MODEL 1
REMARK VINA RESULT:      -8.5      0.000      0.000
REMARK  Name = 
REMARK  5 active torsions:
REMARK  status: ('A' for Active; 'I' for Inactive)
REMARK    1  A    between atoms: C_2  and  C_3
REMARK    2  A    between atoms: C_8  and  O_9
REMARK    3  A    between atoms: O_9  and  C_10
REMARK    4  A    between atoms: N_19  and  C_20
REMARK    5  A    between atoms: C_20  and  C_21
REMARK                            x       y       z     vdW  Elec       q    Type
REMARK                         _______ _______ _______ _____ _____    ______ ____
ROOT
ATOM      1  C   UNL     1       2.812   4.981  18.397  0.00  0.00    +0.000 A 
ATOM      2  C   UNL     1       2.646   6.360  18.213  0.00  0.00    +0.000 A 
ATOM      3  C   UNL     1       2.112   7.082  19.284  0.00  0.00    +0.000 A 
ATOM      4  C   UNL     1       1.861   6.517  20.529  0.00  0.00    +0.000 A 
ATOM      5  C   UNL     1       2.165   5.166  20.747  0.00  0.00    +0.000 A 
ATOM      6  C   UNL     1       2.631   4.407  19.665  0.00  0.00    +0.000 A 
ATOM      7 CL   UNL     1       2.970   2.734  19.940  0.00  0.00    +0.000 Cl
ATOM      8  N   UNL     1       1.328   7.446  21.388  0.00  0.00    +0.000 NA
ATOM      9  C   UNL     1       1.206   8.546  20.677  0.00  0.00    +0.000 A 
ATOM     10  N   UNL     1       1.685   8.385  19.406  0.00  0.00    +0.000 N 
ENDROOT
BRANCH   1  11
ATOM     11  O   UNL     1       3.190   4.159  17.352  0.00  0.00    +0.000 OA
BRANCH  11  17
ATOM     12  C   UNL     1       6.128   4.218  15.069  0.00  0.00    +0.000 A 
ATOM     13  C   UNL     1       7.120   4.562  15.989  0.00  0.00    +0.000 A 
ATOM     14  C   UNL     1       6.788   4.711  17.336  0.00  0.00    +0.000 A 
ATOM     15 CL   UNL     1       8.016   5.093  18.478  0.00  0.00    +0.000 Cl
ATOM     16  C   UNL     1       5.471   4.557  17.768  0.00  0.00    +0.000 A 
ATOM     17  C   UNL     1       4.469   4.264  16.843  0.00  0.00    +0.000 A 
ATOM     18  C   UNL     1       4.803   4.058  15.498  0.00  0.00    +0.000 A 
BRANCH  12  20
ATOM     19  N   UNL     1       6.723   3.916  12.562  0.00  0.00    +0.000 NA
ATOM     20  C   UNL     1       6.451   4.024  13.686  0.00  0.00    +0.000 C 
ENDBRANCH  12  20
ENDBRANCH  11  17
ENDBRANCH   1  11
BRANCH  10  21
ATOM     21  C   UNL     1       1.794   9.438  18.407  0.00  0.00    +0.000 C 
BRANCH  21  22
ATOM     22  C   UNL     1       0.806  10.555  18.567  0.00  0.00    +0.000 A 
ATOM     23  N   UNL     1       1.148  11.744  19.094  0.00  0.00    +0.000 NA
ATOM     24  N   UNL     1       0.017  12.478  19.006  0.00  0.00    +0.000 N 
ATOM     25  C   UNL     1      -1.030  11.806  18.448  0.00  0.00    +0.000 A 
ATOM     26  N   UNL     1      -2.265  12.294  18.234  0.00  0.00    +0.000 NA
ATOM     27  C   UNL     1      -3.088  11.401  17.643  0.00  0.00    +0.000 A 
ATOM     28  C   UNL     1      -2.749  10.099  17.295  0.00  0.00    +0.000 A 
ATOM     29  C   UNL     1      -1.456   9.638  17.558  0.00  0.00    +0.000 A 
ATOM     30  C   UNL     1      -0.557  10.538  18.153  0.00  0.00    +0.000 A 
ATOM     31  H   UNL     1      -0.002  13.427  19.367  0.00  0.00    +0.000 HD
ENDBRANCH  21  22
ENDBRANCH  10  21
TORSDOF 5
ENDMDL
MODEL 2
REMARK VINA RESULT:      -8.5      2.008      2.545
REMARK  Name = 
REMARK  5 active torsions:
REMARK  status: ('A' for Active; 'I' for Inactive)
REMARK    1  A    between atoms: C_2  and  C_3
REMARK    2  A    between atoms: C_8  and  O_9
REMARK    3  A    between atoms: O_9  and  C_10
REMARK    4  A    between atoms: N_19  and  C_20
REMARK    5  A    between atoms: C_20  and  C_21
REMARK                            x       y       z     vdW  Elec       q    Type
REMARK                         _______ _______ _______ _____ _____    ______ ____
ROOT
ATOM      1  C   UNL     1       2.532   6.674  18.534  0.00  0.00    +0.000 A 
ATOM      2  C   UNL     1       2.153   8.021  18.468  0.00  0.00    +0.000 A 
ATOM      3  C   UNL     1       1.599   8.581  19.623  0.00  0.00    +0.000 A 
ATOM      4  C   UNL     1       1.525   7.901  20.834  0.00  0.00    +0.000 A 
ATOM      5  C   UNL     1       2.038   6.601  20.927  0.00  0.00    +0.000 A 
ATOM      6  C   UNL     1       2.530   5.995  19.762  0.00  0.00    +0.000 A 
ATOM      7 CL   UNL     1       3.130   4.378  19.886  0.00  0.00    +0.000 Cl
ATOM      8  N   UNL     1       0.925   8.680  21.793  0.00  0.00    +0.000 NA
ATOM      9  C   UNL     1       0.592   9.794  21.179  0.00  0.00    +0.000 A 
ATOM     10  N   UNL     1       0.995   9.793  19.871  0.00  0.00    +0.000 N 
ENDROOT
BRANCH   1  11
ATOM     11  O   UNL     1       2.949   5.991  17.407  0.00  0.00    +0.000 OA
BRANCH  11  17
ATOM     12  C   UNL     1       6.560   6.857  17.165  0.00  0.00    +0.000 A 
ATOM     13  C   UNL     1       6.978   5.837  16.308  0.00  0.00    +0.000 A 
ATOM     14  C   UNL     1       6.041   4.934  15.804  0.00  0.00    +0.000 A 
ATOM     15 CL   UNL     1       6.546   3.702  14.714  0.00  0.00    +0.000 Cl
ATOM     16  C   UNL     1       4.699   5.016  16.175  0.00  0.00    +0.000 A 
ATOM     17  C   UNL     1       4.288   6.002  17.072  0.00  0.00    +0.000 A 
ATOM     18  C   UNL     1       5.212   6.947  17.538  0.00  0.00    +0.000 A 
BRANCH  12  20
ATOM     19  N   UNL     1       8.234   8.632  18.047  0.00  0.00    +0.000 NA
ATOM     20  C   UNL     1       7.498   7.818  17.667  0.00  0.00    +0.000 C 
ENDBRANCH  12  20
ENDBRANCH  11  17
ENDBRANCH   1  11
BRANCH  10  21
ATOM     21  C   UNL     1       0.876  10.915  18.953  0.00  0.00    +0.000 C 
BRANCH  21  22
ATOM     22  C   UNL     1      -0.516  11.451  18.800  0.00  0.00    +0.000 A 
ATOM     23  N   UNL     1      -0.929  12.563  19.433  0.00  0.00    +0.000 NA
ATOM     24  N   UNL     1      -2.194  12.741  18.991  0.00  0.00    +0.000 N 
ATOM     25  C   UNL     1      -2.604  11.788  18.107  0.00  0.00    +0.000 A 
ATOM     26  N   UNL     1      -3.807  11.723  17.507  0.00  0.00    +0.000 NA
ATOM     27  C   UNL     1      -3.916  10.676  16.660  0.00  0.00    +0.000 A 
ATOM     28  C   UNL     1      -2.930   9.728  16.419  0.00  0.00    +0.000 A 
ATOM     29  C   UNL     1      -1.705   9.832  17.084  0.00  0.00    +0.000 A 
ATOM     30  C   UNL     1      -1.536  10.917  17.960  0.00  0.00    +0.000 A 
ATOM     31  H   UNL     1      -2.752  13.513  19.344  0.00  0.00    +0.000 HD
ENDBRANCH  21  22
ENDBRANCH  10  21
TORSDOF 5
ENDMDL
MODEL 3
REMARK VINA RESULT:      -8.4      3.380      8.325
REMARK  Name = 
REMARK  5 active torsions:
REMARK  status: ('A' for Active; 'I' for Inactive)
REMARK    1  A    between atoms: C_2  and  C_3
REMARK    2  A    between atoms: C_8  and  O_9
REMARK    3  A    between atoms: O_9  and  C_10
REMARK    4  A    between atoms: N_19  and  C_20
REMARK    5  A    between atoms: C_20  and  C_21
REMARK                            x       y       z     vdW  Elec       q    Type
REMARK                         _______ _______ _______ _____ _____    ______ ____
ROOT
ATOM      1  C   UNL     1       2.071   7.966  19.252  0.00  0.00    +0.000 A 
ATOM      2  C   UNL     1       2.427   6.768  18.617  0.00  0.00    +0.000 A 
ATOM      3  C   UNL     1       2.351   5.600  19.381  0.00  0.00    +0.000 A 
ATOM      4  C   UNL     1       1.837   5.571  20.673  0.00  0.00    +0.000 A 
ATOM      5  C   UNL     1       1.350   6.752  21.248  0.00  0.00    +0.000 A 
ATOM      6  C   UNL     1       1.485   7.947  20.527  0.00  0.00    +0.000 A 
ATOM      7 CL   UNL     1       0.910   9.403  21.263  0.00  0.00    +0.000 Cl
ATOM      8  N   UNL     1       1.894   4.300  21.191  0.00  0.00    +0.000 NA
ATOM      9  C   UNL     1       2.475   3.572  20.264  0.00  0.00    +0.000 A 
ATOM     10  N   UNL     1       2.752   4.305  19.142  0.00  0.00    +0.000 N 
ENDROOT
BRANCH   1  11
ATOM     11  O   UNL     1       2.254   9.187  18.631  0.00  0.00    +0.000 OA
BRANCH  11  17
ATOM     12  C   UNL     1      -1.131  10.546  17.897  0.00  0.00    +0.000 A 
ATOM     13  C   UNL     1      -0.920  11.879  18.252  0.00  0.00    +0.000 A 
ATOM     14  C   UNL     1       0.348  12.287  18.671  0.00  0.00    +0.000 A 
ATOM     15 CL   UNL     1       0.623  13.939  19.067  0.00  0.00    +0.000 Cl
ATOM     16  C   UNL     1       1.394  11.371  18.774  0.00  0.00    +0.000 A 
ATOM     17  C   UNL     1       1.171  10.029  18.471  0.00  0.00    +0.000 A 
ATOM     18  C   UNL     1      -0.083   9.621  17.996  0.00  0.00    +0.000 A 
BRANCH  12  20
ATOM     19  N   UNL     1      -3.432   9.738  17.010  0.00  0.00    +0.000 NA
ATOM     20  C   UNL     1      -2.415  10.111  17.429  0.00  0.00    +0.000 C 
ENDBRANCH  12  20
ENDBRANCH  11  17
ENDBRANCH   1  11
BRANCH  10  21
ATOM     21  C   UNL     1       3.292   3.773  17.900  0.00  0.00    +0.000 C 
BRANCH  21  22
ATOM     22  C   UNL     1       4.748   4.059  17.679  0.00  0.00    +0.000 A 
ATOM     23  N   UNL     1       5.639   4.054  18.686  0.00  0.00    +0.000 NA
ATOM     24  N   UNL     1       6.823   4.288  18.076  0.00  0.00    +0.000 N 
ATOM     25  C   UNL     1       6.721   4.444  16.725  0.00  0.00    +0.000 A 
ATOM     26  N   UNL     1       7.735   4.680  15.872  0.00  0.00    +0.000 NA
ATOM     27  C   UNL     1       7.331   4.765  14.586  0.00  0.00    +0.000 A 
ATOM     28  C   UNL     1       6.019   4.651  14.144  0.00  0.00    +0.000 A 
ATOM     29  C   UNL     1       5.001   4.425  15.076  0.00  0.00    +0.000 A 
ATOM     30  C   UNL     1       5.375   4.309  16.424  0.00  0.00    +0.000 A 
ATOM     31  H   UNL     1       7.673   4.363  18.627  0.00  0.00    +0.000 HD
ENDBRANCH  21  22
ENDBRANCH  10  21
TORSDOF 5
ENDMDL
MODEL 4
REMARK VINA RESULT:      -8.4      1.966      2.416
REMARK  Name = 
REMARK  5 active torsions:
REMARK  status: ('A' for Active; 'I' for Inactive)
REMARK    1  A    between atoms: C_2  and  C_3
REMARK    2  A    between atoms: C_8  and  O_9
REMARK    3  A    between atoms: O_9  and  C_10
REMARK    4  A    between atoms: N_19  and  C_20
REMARK    5  A    between atoms: C_20  and  C_21
REMARK                            x       y       z     vdW  Elec       q    Type
REMARK                         _______ _______ _______ _____ _____    ______ ____
ROOT
ATOM      1  C   UNL     1       2.640   6.172  18.536  0.00  0.00    +0.000 A 
ATOM      2  C   UNL     1       2.350   7.541  18.465  0.00  0.00    +0.000 A 
ATOM      3  C   UNL     1       1.695   8.108  19.561  0.00  0.00    +0.000 A 
ATOM      4  C   UNL     1       1.437   7.408  20.735  0.00  0.00    +0.000 A 
ATOM      5  C   UNL     1       1.859   6.077  20.851  0.00  0.00    +0.000 A 
ATOM      6  C   UNL     1       2.451   5.468  19.735  0.00  0.00    +0.000 A 
ATOM      7 CL   UNL     1       2.937   3.815  19.882  0.00  0.00    +0.000 Cl
ATOM      8  N   UNL     1       0.772   8.201  21.638  0.00  0.00    +0.000 NA
ATOM      9  C   UNL     1       0.580   9.346  21.022  0.00  0.00    +0.000 A 
ATOM     10  N   UNL     1       1.137   9.349  19.772  0.00  0.00    +0.000 N 
ENDROOT
BRANCH   1  11
ATOM     11  O   UNL     1       3.149   5.490  17.448  0.00  0.00    +0.000 OA
BRANCH  11  17
ATOM     12  C   UNL     1       6.805   5.304  18.116  0.00  0.00    +0.000 A 
ATOM     13  C   UNL     1       7.261   5.098  16.813  0.00  0.00    +0.000 A 
ATOM     14  C   UNL     1       6.347   5.079  15.758  0.00  0.00    +0.000 A 
ATOM     15 CL   UNL     1       6.911   4.869  14.147  0.00  0.00    +0.000 Cl
ATOM     16  C   UNL     1       4.981   5.228  15.996  0.00  0.00    +0.000 A 
ATOM     17  C   UNL     1       4.518   5.381  17.302  0.00  0.00    +0.000 A 
ATOM     18  C   UNL     1       5.433   5.457  18.360  0.00  0.00    +0.000 A 
BRANCH  12  20
ATOM     19  N   UNL     1       8.447   5.445  20.120  0.00  0.00    +0.000 NA
ATOM     20  C   UNL     1       7.728   5.363  19.211  0.00  0.00    +0.000 C 
ENDBRANCH  12  20
ENDBRANCH  11  17
ENDBRANCH   1  11
BRANCH  10  21
ATOM     21  C   UNL     1       1.195  10.496  18.878  0.00  0.00    +0.000 C 
BRANCH  21  22
ATOM     22  C   UNL     1      -0.104  11.229  18.719  0.00  0.00    +0.000 A 
ATOM     23  N   UNL     1      -0.300  12.458  19.228  0.00  0.00    +0.000 NA
ATOM     24  N   UNL     1      -1.546  12.786  18.821  0.00  0.00    +0.000 N 
ATOM     25  C   UNL     1      -2.152  11.817  18.078  0.00  0.00    +0.000 A 
ATOM     26  N   UNL     1      -3.384  11.879  17.541  0.00  0.00    +0.000 NA
ATOM     27  C   UNL     1      -3.706  10.775  16.833  0.00  0.00    +0.000 A 
ATOM     28  C   UNL     1      -2.895   9.658  16.668  0.00  0.00    +0.000 A 
ATOM     29  C   UNL     1      -1.631   9.639  17.264  0.00  0.00    +0.000 A 
ATOM     30  C   UNL     1      -1.243  10.775  17.993  0.00  0.00    +0.000 A 
ATOM     31  H   UNL     1      -1.955  13.673  19.101  0.00  0.00    +0.000 HD
ENDBRANCH  21  22
ENDBRANCH  10  21
TORSDOF 5
ENDMDL
MODEL 5
REMARK VINA RESULT:      -8.3      1.010      1.083
REMARK  Name = 
REMARK  5 active torsions:
REMARK  status: ('A' for Active; 'I' for Inactive)
REMARK    1  A    between atoms: C_2  and  C_3
REMARK    2  A    between atoms: C_8  and  O_9
REMARK    3  A    between atoms: O_9  and  C_10
REMARK    4  A    between atoms: N_19  and  C_20
REMARK    5  A    between atoms: C_20  and  C_21
REMARK                            x       y       z     vdW  Elec       q    Type
REMARK                         _______ _______ _______ _____ _____    ______ ____
ROOT
ATOM      1  C   UNL     1       2.685   5.966  18.586  0.00  0.00    +0.000 A 
ATOM      2  C   UNL     1       2.416   7.335  18.454  0.00  0.00    +0.000 A 
ATOM      3  C   UNL     1       1.770   7.960  19.525  0.00  0.00    +0.000 A 
ATOM      4  C   UNL     1       1.501   7.316  20.728  0.00  0.00    +0.000 A 
ATOM      5  C   UNL     1       1.902   5.985  20.902  0.00  0.00    +0.000 A 
ATOM      6  C   UNL     1       2.485   5.319  19.815  0.00  0.00    +0.000 A 
ATOM      7 CL   UNL     1       2.946   3.666  20.034  0.00  0.00    +0.000 Cl
ATOM      8  N   UNL     1       0.848   8.157  21.595  0.00  0.00    +0.000 NA
ATOM      9  C   UNL     1       0.674   9.278  20.929  0.00  0.00    +0.000 A 
ATOM     10  N   UNL     1       1.231   9.217  19.680  0.00  0.00    +0.000 N 
ENDROOT
BRANCH   1  11
ATOM     11  O   UNL     1       3.183   5.230  17.529  0.00  0.00    +0.000 OA
BRANCH  11  17
ATOM     12  C   UNL     1       6.460   5.265  15.766  0.00  0.00    +0.000 A 
ATOM     13  C   UNL     1       7.301   5.478  16.860  0.00  0.00    +0.000 A 
ATOM     14  C   UNL     1       6.756   5.549  18.143  0.00  0.00    +0.000 A 
ATOM     15 CL   UNL     1       7.795   5.767  19.497  0.00  0.00    +0.000 Cl
ATOM     16  C   UNL     1       5.379   5.449  18.340  0.00  0.00    +0.000 A 
ATOM     17  C   UNL     1       4.533   5.289  17.244  0.00  0.00    +0.000 A 
ATOM     18  C   UNL     1       5.076   5.160  15.959  0.00  0.00    +0.000 A 
BRANCH  12  20
ATOM     19  N   UNL     1       7.471   5.095  13.383  0.00  0.00    +0.000 NA
ATOM     20  C   UNL     1       6.999   5.152  14.442  0.00  0.00    +0.000 C 
ENDBRANCH  12  20
ENDBRANCH  11  17
ENDBRANCH   1  11
BRANCH  10  21
ATOM     21  C   UNL     1       1.306  10.323  18.737  0.00  0.00    +0.000 C 
BRANCH  21  22
ATOM     22  C   UNL     1       0.051  11.136  18.628  0.00  0.00    +0.000 A 
ATOM     23  N   UNL     1      -0.026  12.398  19.085  0.00  0.00    +0.000 NA
ATOM     24  N   UNL     1      -1.274  12.793  18.747  0.00  0.00    +0.000 N 
ATOM     25  C   UNL     1      -1.994  11.835  18.097  0.00  0.00    +0.000 A 
ATOM     26  N   UNL     1      -3.254  11.958  17.642  0.00  0.00    +0.000 NA
ATOM     27  C   UNL     1      -3.698  10.846  17.016  0.00  0.00    +0.000 A 
ATOM     28  C   UNL     1      -2.977   9.669  16.854  0.00  0.00    +0.000 A 
ATOM     29  C   UNL     1      -1.677   9.590  17.364  0.00  0.00    +0.000 A 
ATOM     30  C   UNL     1      -1.165  10.729  18.006  0.00  0.00    +0.000 A 
ATOM     31  H   UNL     1      -1.602  13.719  19.007  0.00  0.00    +0.000 HD
ENDBRANCH  21  22
ENDBRANCH  10  21
TORSDOF 5
ENDMDL
MODEL 6
REMARK VINA RESULT:      -8.2      1.215      1.906
REMARK  Name = 
REMARK  5 active torsions:
REMARK  status: ('A' for Active; 'I' for Inactive)
REMARK    1  A    between atoms: C_2  and  C_3
REMARK    2  A    between atoms: C_8  and  O_9
REMARK    3  A    between atoms: O_9  and  C_10
REMARK    4  A    between atoms: N_19  and  C_20
REMARK    5  A    between atoms: C_20  and  C_21
REMARK                            x       y       z     vdW  Elec       q    Type
REMARK                         _______ _______ _______ _____ _____    ______ ____
ROOT
ATOM      1  C   UNL     1       2.836   4.852  18.563  0.00  0.00    +0.000 A 
ATOM      2  C   UNL     1       2.726   6.225  18.305  0.00  0.00    +0.000 A 
ATOM      3  C   UNL     1       2.157   7.015  19.308  0.00  0.00    +0.000 A 
ATOM      4  C   UNL     1       1.817   6.519  20.562  0.00  0.00    +0.000 A 
ATOM      5  C   UNL     1       2.064   5.172  20.860  0.00  0.00    +0.000 A 
ATOM      6  C   UNL     1       2.564   4.347  19.843  0.00  0.00    +0.000 A 
ATOM      7 CL   UNL     1       2.832   2.679  20.217  0.00  0.00    +0.000 Cl
ATOM      8  N   UNL     1       1.267   7.505  21.343  0.00  0.00    +0.000 NA
ATOM      9  C   UNL     1       1.222   8.572  20.576  0.00  0.00    +0.000 A 
ATOM     10  N   UNL     1       1.767   8.334  19.343  0.00  0.00    +0.000 N 
ENDROOT
BRANCH   1  11
ATOM     11  O   UNL     1       3.244   3.970  17.581  0.00  0.00    +0.000 OA
BRANCH  11  17
ATOM     12  C   UNL     1       6.065   4.144  15.161  0.00  0.00    +0.000 A 
ATOM     13  C   UNL     1       7.084   4.537  16.032  0.00  0.00    +0.000 A 
ATOM     14  C   UNL     1       6.809   4.679  17.393  0.00  0.00    +0.000 A 
ATOM     15 CL   UNL     1       8.072   5.121  18.475  0.00  0.00    +0.000 Cl
ATOM     16  C   UNL     1       5.522   4.469  17.887  0.00  0.00    +0.000 A 
ATOM     17  C   UNL     1       4.492   4.128  17.012  0.00  0.00    +0.000 A 
ATOM     18  C   UNL     1       4.771   3.929  15.653  0.00  0.00    +0.000 A 
BRANCH  12  20
ATOM     19  N   UNL     1       6.590   3.782  12.647  0.00  0.00    +0.000 NA
ATOM     20  C   UNL     1       6.332   3.957  13.765  0.00  0.00    +0.000 C 
ENDBRANCH  12  20
ENDBRANCH  11  17
ENDBRANCH   1  11
BRANCH  10  21
ATOM     21  C   UNL     1       1.967   9.333  18.304  0.00  0.00    +0.000 C 
BRANCH  21  22
ATOM     22  C   UNL     1       0.921  10.407  18.261  0.00  0.00    +0.000 A 
ATOM     23  N   UNL     1      -0.367  10.142  17.982  0.00  0.00    +0.000 NA
ATOM     24  N   UNL     1      -0.982  11.340  18.103  0.00  0.00    +0.000 N 
ATOM     25  C   UNL     1      -0.139  12.355  18.445  0.00  0.00    +0.000 A 
ATOM     26  N   UNL     1      -0.481  13.642  18.638  0.00  0.00    +0.000 NA
ATOM     27  C   UNL     1       0.567  14.417  18.993  0.00  0.00    +0.000 A 
ATOM     28  C   UNL     1       1.879  13.983  19.134  0.00  0.00    +0.000 A 
ATOM     29  C   UNL     1       2.182  12.638  18.903  0.00  0.00    +0.000 A 
ATOM     30  C   UNL     1       1.121  11.788  18.551  0.00  0.00    +0.000 A 
ATOM     31  H   UNL     1      -1.976  11.422  17.913  0.00  0.00    +0.000 HD
ENDBRANCH  21  22
ENDBRANCH  10  21
TORSDOF 5
ENDMDL
MODEL 7
REMARK VINA RESULT:      -8.2      3.174      8.589
REMARK  Name = 
REMARK  5 active torsions:
REMARK  status: ('A' for Active; 'I' for Inactive)
REMARK    1  A    between atoms: C_2  and  C_3
REMARK    2  A    between atoms: C_8  and  O_9
REMARK    3  A    between atoms: O_9  and  C_10
REMARK    4  A    between atoms: N_19  and  C_20
REMARK    5  A    between atoms: C_20  and  C_21
REMARK                            x       y       z     vdW  Elec       q    Type
REMARK                         _______ _______ _______ _____ _____    ______ ____
ROOT
ATOM      1  C   UNL     1       1.932   8.283  19.216  0.00  0.00    +0.000 A 
ATOM      2  C   UNL     1       2.289   7.081  18.590  0.00  0.00    +0.000 A 
ATOM      3  C   UNL     1       2.277   5.928  19.379  0.00  0.00    +0.000 A 
ATOM      4  C   UNL     1       1.820   5.913  20.692  0.00  0.00    +0.000 A 
ATOM      5  C   UNL     1       1.330   7.094  21.265  0.00  0.00    +0.000 A 
ATOM      6  C   UNL     1       1.403   8.276  20.516  0.00  0.00    +0.000 A 
ATOM      7 CL   UNL     1       0.825   9.732  21.248  0.00  0.00    +0.000 Cl
ATOM      8  N   UNL     1       1.932   4.655  21.233  0.00  0.00    +0.000 NA
ATOM      9  C   UNL     1       2.490   3.922  20.295  0.00  0.00    +0.000 A 
ATOM     10  N   UNL     1       2.699   4.638  19.148  0.00  0.00    +0.000 N 
ENDROOT
BRANCH   1  11
ATOM     11  O   UNL     1       2.057   9.495  18.564  0.00  0.00    +0.000 OA
BRANCH  11  17
ATOM     12  C   UNL     1      -0.260  12.406  18.513  0.00  0.00    +0.000 A 
ATOM     13  C   UNL     1      -1.403  11.774  18.021  0.00  0.00    +0.000 A 
ATOM     14  C   UNL     1      -1.379  10.401  17.774  0.00  0.00    +0.000 A 
ATOM     15 CL   UNL     1      -2.799   9.612  17.209  0.00  0.00    +0.000 Cl
ATOM     16  C   UNL     1      -0.215   9.660  17.978  0.00  0.00    +0.000 A 
ATOM     17  C   UNL     1       0.943  10.298  18.419  0.00  0.00    +0.000 A 
ATOM     18  C   UNL     1       0.911  11.666  18.723  0.00  0.00    +0.000 A 
BRANCH  12  20
ATOM     19  N   UNL     1      -0.273  14.954  19.000  0.00  0.00    +0.000 NA
ATOM     20  C   UNL     1      -0.272  13.809  18.809  0.00  0.00    +0.000 C 
ENDBRANCH  12  20
ENDBRANCH  11  17
ENDBRANCH   1  11
BRANCH  10  21
ATOM     21  C   UNL     1       3.198   4.093  17.894  0.00  0.00    +0.000 C 
BRANCH  21  22
ATOM     22  C   UNL     1       4.676   4.242  17.692  0.00  0.00    +0.000 A 
ATOM     23  N   UNL     1       5.551   4.143  18.708  0.00  0.00    +0.000 NA
ATOM     24  N   UNL     1       6.759   4.271  18.114  0.00  0.00    +0.000 N 
ATOM     25  C   UNL     1       6.688   4.450  16.765  0.00  0.00    +0.000 A 
ATOM     26  N   UNL     1       7.730   4.598  15.926  0.00  0.00    +0.000 NA
ATOM     27  C   UNL     1       7.352   4.734  14.637  0.00  0.00    +0.000 A 
ATOM     28  C   UNL     1       6.040   4.750  14.178  0.00  0.00    +0.000 A 
ATOM     29  C   UNL     1       4.995   4.611  15.096  0.00  0.00    +0.000 A 
ATOM     30  C   UNL     1       5.340   4.446  16.447  0.00  0.00    +0.000 A 
ATOM     31  H   UNL     1       7.605   4.258  18.676  0.00  0.00    +0.000 HD
ENDBRANCH  21  22
ENDBRANCH  10  21
TORSDOF 5
ENDMDL
MODEL 8
REMARK VINA RESULT:      -8.2      3.182      8.282
REMARK  Name = 
REMARK  5 active torsions:
REMARK  status: ('A' for Active; 'I' for Inactive)
REMARK    1  A    between atoms: C_2  and  C_3
REMARK    2  A    between atoms: C_8  and  O_9
REMARK    3  A    between atoms: O_9  and  C_10
REMARK    4  A    between atoms: N_19  and  C_20
REMARK    5  A    between atoms: C_20  and  C_21
REMARK                            x       y       z     vdW  Elec       q    Type
REMARK                         _______ _______ _______ _____ _____    ______ ____
ROOT
ATOM      1  C   UNL     1       2.177   7.675  19.166  0.00  0.00    +0.000 A 
ATOM      2  C   UNL     1       2.553   6.679  18.255  0.00  0.00    +0.000 A 
ATOM      3  C   UNL     1       2.633   5.372  18.743  0.00  0.00    +0.000 A 
ATOM      4  C   UNL     1       2.247   5.019  20.032  0.00  0.00    +0.000 A 
ATOM      5  C   UNL     1       1.737   6.001  20.892  0.00  0.00    +0.000 A 
ATOM      6  C   UNL     1       1.718   7.330  20.446  0.00  0.00    +0.000 A 
ATOM      7 CL   UNL     1       1.116   8.535  21.530  0.00  0.00    +0.000 Cl
ATOM      8  N   UNL     1       2.443   3.677  20.249  0.00  0.00    +0.000 NA
ATOM      9  C   UNL     1       2.982   3.220  19.140  0.00  0.00    +0.000 A 
ATOM     10  N   UNL     1       3.099   4.200  18.191  0.00  0.00    +0.000 N 
ENDROOT
BRANCH   1  11
ATOM     11  O   UNL     1       2.214   9.013  18.820  0.00  0.00    +0.000 OA
BRANCH  11  17
ATOM     12  C   UNL     1      -1.160  10.176  17.766  0.00  0.00    +0.000 A 
ATOM     13  C   UNL     1      -1.330  11.223  18.674  0.00  0.00    +0.000 A 
ATOM     14  C   UNL     1      -0.302  11.535  19.565  0.00  0.00    +0.000 A 
ATOM     15 CL   UNL     1      -0.491  12.853  20.655  0.00  0.00    +0.000 Cl
ATOM     16  C   UNL     1       0.878  10.791  19.583  0.00  0.00    +0.000 A 
ATOM     17  C   UNL     1       1.029   9.712  18.713  0.00  0.00    +0.000 A 
ATOM     18  C   UNL     1       0.025   9.427  17.777  0.00  0.00    +0.000 A 
BRANCH  12  20
ATOM     19  N   UNL     1      -3.005   9.643  16.022  0.00  0.00    +0.000 NA
ATOM     20  C   UNL     1      -2.187   9.859  16.818  0.00  0.00    +0.000 C 
ENDBRANCH  12  20
ENDBRANCH  11  17
ENDBRANCH   1  11
BRANCH  10  21
ATOM     21  C   UNL     1       3.554   3.998  16.824  0.00  0.00    +0.000 C 
BRANCH  21  22
ATOM     22  C   UNL     1       4.888   4.609  16.514  0.00  0.00    +0.000 A 
ATOM     23  N   UNL     1       5.607   5.268  17.439  0.00  0.00    +0.000 NA
ATOM     24  N   UNL     1       6.747   5.601  16.793  0.00  0.00    +0.000 N 
ATOM     25  C   UNL     1       6.781   5.184  15.496  0.00  0.00    +0.000 A 
ATOM     26  N   UNL     1       7.791   5.372  14.626  0.00  0.00    +0.000 NA
ATOM     27  C   UNL     1       7.550   4.825  13.415  0.00  0.00    +0.000 A 
ATOM     28  C   UNL     1       6.391   4.152  13.050  0.00  0.00    +0.000 A 
ATOM     29  C   UNL     1       5.365   4.002  13.988  0.00  0.00    +0.000 A 
ATOM     30  C   UNL     1       5.578   4.536  15.269  0.00  0.00    +0.000 A 
ATOM     31  H   UNL     1       7.463   6.140  17.271  0.00  0.00    +0.000 HD
ENDBRANCH  21  22
ENDBRANCH  10  21
TORSDOF 5
ENDMDL
MODEL 9
REMARK VINA RESULT:      -8.1      3.311      8.020
REMARK  Name = 
REMARK  5 active torsions:
REMARK  status: ('A' for Active; 'I' for Inactive)
REMARK    1  A    between atoms: C_2  and  C_3
REMARK    2  A    between atoms: C_8  and  O_9
REMARK    3  A    between atoms: O_9  and  C_10
REMARK    4  A    between atoms: N_19  and  C_20
REMARK    5  A    between atoms: C_20  and  C_21
REMARK                            x       y       z     vdW  Elec       q    Type
REMARK                         _______ _______ _______ _____ _____    ______ ____
ROOT
ATOM      1  C   UNL     1       2.161   7.748  19.195  0.00  0.00    +0.000 A 
ATOM      2  C   UNL     1       2.602   6.751  18.315  0.00  0.00    +0.000 A 
ATOM      3  C   UNL     1       2.611   5.439  18.798  0.00  0.00    +0.000 A 
ATOM      4  C   UNL     1       2.099   5.086  20.041  0.00  0.00    +0.000 A 
ATOM      5  C   UNL     1       1.529   6.072  20.858  0.00  0.00    +0.000 A 
ATOM      6  C   UNL     1       1.577   7.404  20.423  0.00  0.00    +0.000 A 
ATOM      7 CL   UNL     1       0.899   8.614  21.456  0.00  0.00    +0.000 Cl
ATOM      8  N   UNL     1       2.248   3.739  20.265  0.00  0.00    +0.000 NA
ATOM      9  C   UNL     1       2.880   3.279  19.207  0.00  0.00    +0.000 A 
ATOM     10  N   UNL     1       3.104   4.262  18.282  0.00  0.00    +0.000 N 
ENDROOT
BRANCH   1  11
ATOM     11  O   UNL     1       2.255   9.087  18.865  0.00  0.00    +0.000 OA
BRANCH  11  17
ATOM     12  C   UNL     1      -1.095  10.263  17.750  0.00  0.00    +0.000 A 
ATOM     13  C   UNL     1      -1.194  11.421  18.523  0.00  0.00    +0.000 A 
ATOM     14  C   UNL     1      -0.129  11.795  19.344  0.00  0.00    +0.000 A 
ATOM     15 CL   UNL     1      -0.232  13.244  20.265  0.00  0.00    +0.000 Cl
ATOM     16  C   UNL     1       1.017  11.005  19.429  0.00  0.00    +0.000 A 
ATOM     17  C   UNL     1       1.098   9.821  18.697  0.00  0.00    +0.000 A 
ATOM     18  C   UNL     1       0.057   9.468  17.828  0.00  0.00    +0.000 A 
BRANCH  12  20
ATOM     19  N   UNL     1      -3.004   9.522  16.158  0.00  0.00    +0.000 NA
ATOM     20  C   UNL     1      -2.161   9.879  16.872  0.00  0.00    +0.000 C 
ENDBRANCH  12  20
ENDBRANCH  11  17
ENDBRANCH   1  11
BRANCH  10  21
ATOM     21  C   UNL     1       3.681   4.060  16.962  0.00  0.00    +0.000 C 
BRANCH  21  22
ATOM     22  C   UNL     1       4.830   4.967  16.637  0.00  0.00    +0.000 A 
ATOM     23  N   UNL     1       4.966   5.549  15.433  0.00  0.00    +0.000 NA
ATOM     24  N   UNL     1       6.068   6.321  15.564  0.00  0.00    +0.000 N 
ATOM     25  C   UNL     1       6.639   6.253  16.799  0.00  0.00    +0.000 A 
ATOM     26  N   UNL     1       7.736   6.918  17.207  0.00  0.00    +0.000 NA
ATOM     27  C   UNL     1       8.054   6.668  18.496  0.00  0.00    +0.000 A 
ATOM     28  C   UNL     1       7.368   5.807  19.343  0.00  0.00    +0.000 A 
ATOM     29  C   UNL     1       6.246   5.126  18.862  0.00  0.00    +0.000 A 
ATOM     30  C   UNL     1       5.864   5.369  17.533  0.00  0.00    +0.000 A 
ATOM     31  H   UNL     1       6.410   6.857  14.772  0.00  0.00    +0.000 HD
ENDBRANCH  21  22
ENDBRANCH  10  21
TORSDOF 5
ENDMDL
