MODEL 1
REMARK VINA RESULT:      -8.3      0.000      0.000
REMARK  Name = 
REMARK  5 active torsions:
REMARK  status: ('A' for Active; 'I' for Inactive)
REMARK    1  A    between atoms: C_1  and  C_2
REMARK    2  A    between atoms: C_5  and  C_6
REMARK    3  A    between atoms: C_9  and  S_10
REMARK    4  A    between atoms: S_10  and  C_11
REMARK    5  A    between atoms: N_15  and  O_16
REMARK                            x       y       z     vdW  Elec       q    Type
REMARK                         _______ _______ _______ _____ _____    ______ ____
ROOT
ATOM      1  C   UNL     1       1.566   7.482  20.432  0.00  0.00    +0.000 A 
ATOM      2  C   UNL     1       2.355   7.425  19.269  0.00  0.00    +0.000 A 
ATOM      3  C   UNL     1       2.906   6.219  18.810  0.00  0.00    +0.000 A 
ATOM      4  C   UNL     1       2.700   5.035  19.514  0.00  0.00    +0.000 A 
ATOM      5  C   UNL     1       1.929   5.068  20.677  0.00  0.00    +0.000 A 
ATOM      6  C   UNL     1       1.375   6.275  21.128  0.00  0.00    +0.000 A 
ENDROOT
BRANCH   1  11
ATOM      7  C   UNL     1      -0.778  12.501  22.266  0.00  0.00    +0.000 C 
ATOM      8  C   UNL     1      -0.215  11.196  21.787  0.00  0.00    +0.000 A 
ATOM      9  C   UNL     1      -0.228  10.063  22.601  0.00  0.00    +0.000 A 
ATOM     10  C   UNL     1       0.337   8.862  22.153  0.00  0.00    +0.000 A 
ATOM     11  C   UNL     1       0.924   8.746  20.880  0.00  0.00    +0.000 A 
ATOM     12  C   UNL     1       0.902   9.894  20.067  0.00  0.00    +0.000 A 
ATOM     13  C   UNL     1       0.350  11.102  20.514  0.00  0.00    +0.000 A 
ENDBRANCH   1  11
BRANCH   4  14
ATOM     14  S   UNL     1       3.302   3.489  18.869  0.00  0.00    +0.000 S 
BRANCH  14  15
ATOM     15  C   UNL     1       4.593   3.968  17.822  0.00  0.00    +0.000 A 
ATOM     16  C   UNL     1       4.389   4.075  16.503  0.00  0.00    +0.000 A 
ATOM     17  C   UNL     1       5.537   4.356  15.620  0.00  0.00    +0.000 A 
ATOM     18  O   UNL     1       5.395   4.392  14.400  0.00  0.00    +0.000 OA
ATOM     19  N   UNL     1       6.742   4.531  16.249  0.00  0.00    +0.000 N 
ATOM     20  C   UNL     1       6.970   4.396  17.604  0.00  0.00    +0.000 A 
ATOM     21  O   UNL     1       8.061   4.475  18.166  0.00  0.00    +0.000 OA
ATOM     22  N   UNL     1       5.841   4.130  18.346  0.00  0.00    +0.000 N 
ATOM     23  H   UNL     1       5.994   4.022  19.339  0.00  0.00    +0.000 HD
BRANCH  19  24
ATOM     24  O   UNL     1       7.868   4.724  15.420  0.00  0.00    +0.000 OA
ATOM     25  H   UNL     1       8.529   4.134  15.834  0.00  0.00    +0.000 HD
ENDBRANCH  19  24
ENDBRANCH  14  15
ENDBRANCH   4  14
TORSDOF 4
ENDMDL
MODEL 2
REMARK VINA RESULT:      -8.3      0.116      1.002
REMARK  Name = 
REMARK  5 active torsions:
REMARK  status: ('A' for Active; 'I' for Inactive)
REMARK    1  A    between atoms: C_1  and  C_2
REMARK    2  A    between atoms: C_5  and  C_6
REMARK    3  A    between atoms: C_9  and  S_10
REMARK    4  A    between atoms: S_10  and  C_11
REMARK    5  A    between atoms: N_15  and  O_16
REMARK                            x       y       z     vdW  Elec       q    Type
REMARK                         _______ _______ _______ _____ _____    ______ ____
ROOT
ATOM      1  C   UNL     1       1.590   7.453  20.453  0.00  0.00    +0.000 A 
ATOM      2  C   UNL     1       2.362   7.408  19.278  0.00  0.00    +0.000 A 
ATOM      3  C   UNL     1       2.897   6.207  18.791  0.00  0.00    +0.000 A 
ATOM      4  C   UNL     1       2.691   5.012  19.479  0.00  0.00    +0.000 A 
ATOM      5  C   UNL     1       1.937   5.032  20.652  0.00  0.00    +0.000 A 
ATOM      6  C   UNL     1       1.399   6.235  21.132  0.00  0.00    +0.000 A 
ENDROOT
BRANCH   1  11
ATOM      7  C   UNL     1      -1.043  12.329  22.278  0.00  0.00    +0.000 C 
ATOM      8  C   UNL     1      -0.328  11.096  21.811  0.00  0.00    +0.000 A 
ATOM      9  C   UNL     1       0.131  10.981  20.499  0.00  0.00    +0.000 A 
ATOM     10  C   UNL     1       0.762   9.807  20.069  0.00  0.00    +0.000 A 
ATOM     11  C   UNL     1       0.965   8.713  20.931  0.00  0.00    +0.000 A 
ATOM     12  C   UNL     1       0.516   8.863  22.256  0.00  0.00    +0.000 A 
ATOM     13  C   UNL     1      -0.127  10.029  22.689  0.00  0.00    +0.000 A 
ENDBRANCH   1  11
BRANCH   4  14
ATOM     14  S   UNL     1       3.272   3.473  18.799  0.00  0.00    +0.000 S 
BRANCH  14  15
ATOM     15  C   UNL     1       4.578   3.955  17.773  0.00  0.00    +0.000 A 
ATOM     16  C   UNL     1       4.397   4.055  16.450  0.00  0.00    +0.000 A 
ATOM     17  C   UNL     1       5.559   4.340  15.587  0.00  0.00    +0.000 A 
ATOM     18  O   UNL     1       5.438   4.370  14.364  0.00  0.00    +0.000 OA
ATOM     19  N   UNL     1       6.751   4.525  16.236  0.00  0.00    +0.000 N 
ATOM     20  C   UNL     1       6.956   4.397  17.597  0.00  0.00    +0.000 A 
ATOM     21  O   UNL     1       8.036   4.485  18.177  0.00  0.00    +0.000 OA
ATOM     22  N   UNL     1       5.816   4.127  18.319  0.00  0.00    +0.000 N 
ATOM     23  H   UNL     1       5.952   4.024  19.315  0.00  0.00    +0.000 HD
BRANCH  19  24
ATOM     24  O   UNL     1       7.891   4.722  15.427  0.00  0.00    +0.000 OA
ATOM     25  H   UNL     1       8.229   5.578  15.756  0.00  0.00    +0.000 HD
ENDBRANCH  19  24
ENDBRANCH  14  15
ENDBRANCH   4  14
TORSDOF 4
ENDMDL
MODEL 3
REMARK VINA RESULT:      -8.2      0.222      1.024
REMARK  Name = 
REMARK  5 active torsions:
REMARK  status: ('A' for Active; 'I' for Inactive)
REMARK    1  A    between atoms: C_1  and  C_2
REMARK    2  A    between atoms: C_5  and  C_6
REMARK    3  A    between atoms: C_9  and  S_10
REMARK    4  A    between atoms: S_10  and  C_11
REMARK    5  A    between atoms: N_15  and  O_16
REMARK                            x       y       z     vdW  Elec       q    Type
REMARK                         _______ _______ _______ _____ _____    ______ ____
ROOT
ATOM      1  C   UNL     1       1.573   7.360  20.304  0.00  0.00    +0.000 A 
ATOM      2  C   UNL     1       1.381   6.181  21.049  0.00  0.00    +0.000 A 
ATOM      3  C   UNL     1       1.975   4.967  20.674  0.00  0.00    +0.000 A 
ATOM      4  C   UNL     1       2.765   4.891  19.529  0.00  0.00    +0.000 A 
ATOM      5  C   UNL     1       2.962   6.044  18.768  0.00  0.00    +0.000 A 
ATOM      6  C   UNL     1       2.371   7.257  19.150  0.00  0.00    +0.000 A 
ENDROOT
BRANCH   1  11
ATOM      7  C   UNL     1      -0.490  12.524  22.071  0.00  0.00    +0.000 C 
ATOM      8  C   UNL     1      -0.000  11.182  21.613  0.00  0.00    +0.000 A 
ATOM      9  C   UNL     1       0.013  10.086  22.475  0.00  0.00    +0.000 A 
ATOM     10  C   UNL     1       0.510   8.850  22.044  0.00  0.00    +0.000 A 
ATOM     11  C   UNL     1       1.001   8.661  20.739  0.00  0.00    +0.000 A 
ATOM     12  C   UNL     1       0.953   9.774  19.879  0.00  0.00    +0.000 A 
ATOM     13  C   UNL     1       0.470  11.016  20.308  0.00  0.00    +0.000 A 
ENDBRANCH   1  11
BRANCH   4  14
ATOM     14  S   UNL     1       3.611   3.379  19.120  0.00  0.00    +0.000 S 
BRANCH  14  15
ATOM     15  C   UNL     1       4.795   3.884  17.963  0.00  0.00    +0.000 A 
ATOM     16  C   UNL     1       4.486   3.942  16.661  0.00  0.00    +0.000 A 
ATOM     17  C   UNL     1       5.549   4.248  15.685  0.00  0.00    +0.000 A 
ATOM     18  O   UNL     1       5.313   4.241  14.479  0.00  0.00    +0.000 OA
ATOM     19  N   UNL     1       6.789   4.494  16.214  0.00  0.00    +0.000 N 
ATOM     20  C   UNL     1       7.126   4.410  17.551  0.00  0.00    +0.000 A 
ATOM     21  O   UNL     1       8.251   4.554  18.024  0.00  0.00    +0.000 OA
ATOM     22  N   UNL     1       6.071   4.117  18.384  0.00  0.00    +0.000 N 
ATOM     23  H   UNL     1       6.303   4.045  19.365  0.00  0.00    +0.000 HD
BRANCH  19  24
ATOM     24  O   UNL     1       7.839   4.713  15.295  0.00  0.00    +0.000 OA
ATOM     25  H   UNL     1       8.335   5.439  15.723  0.00  0.00    +0.000 HD
ENDBRANCH  19  24
ENDBRANCH  14  15
ENDBRANCH   4  14
TORSDOF 4
ENDMDL
MODEL 4
REMARK VINA RESULT:      -8.1      2.288      3.214
REMARK  Name = 
REMARK  5 active torsions:
REMARK  status: ('A' for Active; 'I' for Inactive)
REMARK    1  A    between atoms: C_1  and  C_2
REMARK    2  A    between atoms: C_5  and  C_6
REMARK    3  A    between atoms: C_9  and  S_10
REMARK    4  A    between atoms: S_10  and  C_11
REMARK    5  A    between atoms: N_15  and  O_16
REMARK                            x       y       z     vdW  Elec       q    Type
REMARK                         _______ _______ _______ _____ _____    ______ ____
ROOT
ATOM      1  C   UNL     1       3.029   7.293  18.393  0.00  0.00    +0.000 A 
ATOM      2  C   UNL     1       3.256   6.088  19.083  0.00  0.00    +0.000 A 
ATOM      3  C   UNL     1       4.309   5.228  18.740  0.00  0.00    +0.000 A 
ATOM      4  C   UNL     1       5.158   5.539  17.680  0.00  0.00    +0.000 A 
ATOM      5  C   UNL     1       4.948   6.724  16.973  0.00  0.00    +0.000 A 
ATOM      6  C   UNL     1       3.897   7.584  17.324  0.00  0.00    +0.000 A 
ENDROOT
BRANCH   1  11
ATOM      7  C   UNL     1      -1.042  11.141  20.024  0.00  0.00    +0.000 C 
ATOM      8  C   UNL     1      -0.025  10.121  19.608  0.00  0.00    +0.000 A 
ATOM      9  C   UNL     1       0.571   9.273  20.542  0.00  0.00    +0.000 A 
ATOM     10  C   UNL     1       1.547   8.352  20.142  0.00  0.00    +0.000 A 
ATOM     11  C   UNL     1       1.957   8.237  18.801  0.00  0.00    +0.000 A 
ATOM     12  C   UNL     1       1.323   9.085  17.873  0.00  0.00    +0.000 A 
ATOM     13  C   UNL     1       0.355  10.017  18.268  0.00  0.00    +0.000 A 
ENDBRANCH   1  11
BRANCH   4  14
ATOM     14  S   UNL     1       6.563   4.507  17.319  0.00  0.00    +0.000 S 
BRANCH  14  15
ATOM     15  C   UNL     1       6.673   4.569  15.594  0.00  0.00    +0.000 A 
ATOM     16  C   UNL     1       5.865   3.814  14.838  0.00  0.00    +0.000 A 
ATOM     17  C   UNL     1       6.069   3.788  13.376  0.00  0.00    +0.000 A 
ATOM     18  O   UNL     1       5.390   3.053  12.663  0.00  0.00    +0.000 OA
ATOM     19  N   UNL     1       7.070   4.594  12.902  0.00  0.00    +0.000 N 
ATOM     20  C   UNL     1       7.927   5.354  13.673  0.00  0.00    +0.000 A 
ATOM     21  O   UNL     1       8.875   6.019  13.260  0.00  0.00    +0.000 OA
ATOM     22  N   UNL     1       7.662   5.313  15.023  0.00  0.00    +0.000 N 
ATOM     23  H   UNL     1       8.285   5.860  15.601  0.00  0.00    +0.000 HD
BRANCH  19  24
ATOM     24  O   UNL     1       7.335   4.527  11.516  0.00  0.00    +0.000 OA
ATOM     25  H   UNL     1       7.757   5.393  11.348  0.00  0.00    +0.000 HD
ENDBRANCH  19  24
ENDBRANCH  14  15
ENDBRANCH   4  14
TORSDOF 4
ENDMDL
MODEL 5
REMARK VINA RESULT:      -8.1      2.663      3.472
REMARK  Name = 
REMARK  5 active torsions:
REMARK  status: ('A' for Active; 'I' for Inactive)
REMARK    1  A    between atoms: C_1  and  C_2
REMARK    2  A    between atoms: C_5  and  C_6
REMARK    3  A    between atoms: C_9  and  S_10
REMARK    4  A    between atoms: S_10  and  C_11
REMARK    5  A    between atoms: N_15  and  O_16
REMARK                            x       y       z     vdW  Elec       q    Type
REMARK                         _______ _______ _______ _____ _____    ______ ____
ROOT
ATOM      1  C   UNL     1       0.742   9.310  20.131  0.00  0.00    +0.000 A 
ATOM      2  C   UNL     1       1.349   8.157  20.662  0.00  0.00    +0.000 A 
ATOM      3  C   UNL     1       2.239   7.378  19.908  0.00  0.00    +0.000 A 
ATOM      4  C   UNL     1       2.534   7.720  18.589  0.00  0.00    +0.000 A 
ATOM      5  C   UNL     1       1.936   8.853  18.037  0.00  0.00    +0.000 A 
ATOM      6  C   UNL     1       1.052   9.633  18.797  0.00  0.00    +0.000 A 
ENDROOT
BRANCH   1  11
ATOM      7  C   UNL     1      -2.590  12.820  23.391  0.00  0.00    +0.000 C 
ATOM      8  C   UNL     1      -1.765  11.888  22.553  0.00  0.00    +0.000 A 
ATOM      9  C   UNL     1      -1.117  10.791  23.120  0.00  0.00    +0.000 A 
ATOM     10  C   UNL     1      -0.319   9.953  22.331  0.00  0.00    +0.000 A 
ATOM     11  C   UNL     1      -0.147  10.174  20.952  0.00  0.00    +0.000 A 
ATOM     12  C   UNL     1      -0.831  11.271  20.398  0.00  0.00    +0.000 A 
ATOM     13  C   UNL     1      -1.620  12.121  21.184  0.00  0.00    +0.000 A 
ENDBRANCH   1  11
BRANCH   4  14
ATOM     14  S   UNL     1       3.750   6.798  17.673  0.00  0.00    +0.000 S 
BRANCH  14  15
ATOM     15  C   UNL     1       3.359   5.152  18.032  0.00  0.00    +0.000 A 
ATOM     16  C   UNL     1       2.146   4.666  17.742  0.00  0.00    +0.000 A 
ATOM     17  C   UNL     1       1.796   3.300  18.178  0.00  0.00    +0.000 A 
ATOM     18  O   UNL     1       0.668   2.852  17.987  0.00  0.00    +0.000 OA
ATOM     19  N   UNL     1       2.788   2.611  18.824  0.00  0.00    +0.000 N 
ATOM     20  C   UNL     1       4.034   3.110  19.154  0.00  0.00    +0.000 A 
ATOM     21  O   UNL     1       4.900   2.525  19.801  0.00  0.00    +0.000 OA
ATOM     22  N   UNL     1       4.267   4.392  18.709  0.00  0.00    +0.000 N 
ATOM     23  H   UNL     1       5.171   4.773  18.949  0.00  0.00    +0.000 HD
BRANCH  19  24
ATOM     24  O   UNL     1       2.453   1.332  19.319  0.00  0.00    +0.000 OA
ATOM     25  H   UNL     1       1.849   1.551  20.056  0.00  0.00    +0.000 HD
ENDBRANCH  19  24
ENDBRANCH  14  15
ENDBRANCH   4  14
TORSDOF 4
ENDMDL
MODEL 6
REMARK VINA RESULT:      -8.1      0.934      2.044
REMARK  Name = 
REMARK  5 active torsions:
REMARK  status: ('A' for Active; 'I' for Inactive)
REMARK    1  A    between atoms: C_1  and  C_2
REMARK    2  A    between atoms: C_5  and  C_6
REMARK    3  A    between atoms: C_9  and  S_10
REMARK    4  A    between atoms: S_10  and  C_11
REMARK    5  A    between atoms: N_15  and  O_16
REMARK                            x       y       z     vdW  Elec       q    Type
REMARK                         _______ _______ _______ _____ _____    ______ ____
ROOT
ATOM      1  C   UNL     1       1.833   7.326  20.044  0.00  0.00    +0.000 A 
ATOM      2  C   UNL     1       2.386   7.339  18.750  0.00  0.00    +0.000 A 
ATOM      3  C   UNL     1       2.911   6.180  18.161  0.00  0.00    +0.000 A 
ATOM      4  C   UNL     1       2.918   4.973  18.858  0.00  0.00    +0.000 A 
ATOM      5  C   UNL     1       2.385   4.938  20.147  0.00  0.00    +0.000 A 
ATOM      6  C   UNL     1       1.855   6.098  20.730  0.00  0.00    +0.000 A 
ENDROOT
BRANCH   1  11
ATOM      7  C   UNL     1      -0.780  12.001  22.360  0.00  0.00    +0.000 C 
ATOM      8  C   UNL     1      -0.071  10.821  21.763  0.00  0.00    +0.000 A 
ATOM      9  C   UNL     1       0.213  10.766  20.399  0.00  0.00    +0.000 A 
ATOM     10  C   UNL     1       0.840   9.640  19.850  0.00  0.00    +0.000 A 
ATOM     11  C   UNL     1       1.214   8.537  20.641  0.00  0.00    +0.000 A 
ATOM     12  C   UNL     1       0.940   8.628  22.019  0.00  0.00    +0.000 A 
ATOM     13  C   UNL     1       0.301   9.745  22.571  0.00  0.00    +0.000 A 
ENDBRANCH   1  11
BRANCH   4  14
ATOM     14  S   UNL     1       3.479   3.480  18.067  0.00  0.00    +0.000 S 
BRANCH  14  15
ATOM     15  C   UNL     1       4.850   4.004  17.152  0.00  0.00    +0.000 A 
ATOM     16  C   UNL     1       5.845   4.673  17.747  0.00  0.00    +0.000 A 
ATOM     17  C   UNL     1       6.937   5.221  16.920  0.00  0.00    +0.000 A 
ATOM     18  O   UNL     1       7.828   5.898  17.428  0.00  0.00    +0.000 OA
ATOM     19  N   UNL     1       6.858   4.953  15.579  0.00  0.00    +0.000 N 
ATOM     20  C   UNL     1       5.824   4.288  14.949  0.00  0.00    +0.000 A 
ATOM     21  O   UNL     1       5.708   4.111  13.738  0.00  0.00    +0.000 OA
ATOM     22  N   UNL     1       4.851   3.817  15.801  0.00  0.00    +0.000 N 
ATOM     23  H   UNL     1       4.084   3.334  15.354  0.00  0.00    +0.000 HD
BRANCH  19  24
ATOM     24  O   UNL     1       7.850   5.532  14.757  0.00  0.00    +0.000 OA
ATOM     25  H   UNL     1       7.467   5.416  13.864  0.00  0.00    +0.000 HD
ENDBRANCH  19  24
ENDBRANCH  14  15
ENDBRANCH   4  14
TORSDOF 4
ENDMDL
MODEL 7
REMARK VINA RESULT:      -8.1      1.007      2.239
REMARK  Name = 
REMARK  5 active torsions:
REMARK  status: ('A' for Active; 'I' for Inactive)
REMARK    1  A    between atoms: C_1  and  C_2
REMARK    2  A    between atoms: C_5  and  C_6
REMARK    3  A    between atoms: C_9  and  S_10
REMARK    4  A    between atoms: S_10  and  C_11
REMARK    5  A    between atoms: N_15  and  O_16
REMARK                            x       y       z     vdW  Elec       q    Type
REMARK                         _______ _______ _______ _____ _____    ______ ____
ROOT
ATOM      1  C   UNL     1       1.884   7.226  20.001  0.00  0.00    +0.000 A 
ATOM      2  C   UNL     1       1.910   6.078  20.814  0.00  0.00    +0.000 A 
ATOM      3  C   UNL     1       2.570   4.906  20.415  0.00  0.00    +0.000 A 
ATOM      4  C   UNL     1       3.209   4.842  19.178  0.00  0.00    +0.000 A 
ATOM      5  C   UNL     1       3.189   5.965  18.350  0.00  0.00    +0.000 A 
ATOM      6  C   UNL     1       2.533   7.136  18.756  0.00  0.00    +0.000 A 
ENDROOT
BRANCH   1  11
ATOM      7  C   UNL     1      -0.804  12.104  21.740  0.00  0.00    +0.000 C 
ATOM      8  C   UNL     1      -0.076  10.872  21.292  0.00  0.00    +0.000 A 
ATOM      9  C   UNL     1       0.306  10.703  19.961  0.00  0.00    +0.000 A 
ATOM     10  C   UNL     1       0.950   9.529  19.552  0.00  0.00    +0.000 A 
ATOM     11  C   UNL     1       1.245   8.489  20.453  0.00  0.00    +0.000 A 
ATOM     12  C   UNL     1       0.873   8.693  21.795  0.00  0.00    +0.000 A 
ATOM     13  C   UNL     1       0.217   9.859  22.208  0.00  0.00    +0.000 A 
ENDBRANCH   1  11
BRANCH   4  14
ATOM     14  S   UNL     1       4.143   3.397  18.723  0.00  0.00    +0.000 S 
BRANCH  14  15
ATOM     15  C   UNL     1       5.322   4.014  17.617  0.00  0.00    +0.000 A 
ATOM     16  C   UNL     1       6.142   5.006  17.987  0.00  0.00    +0.000 A 
ATOM     17  C   UNL     1       7.046   5.601  16.983  0.00  0.00    +0.000 A 
ATOM     18  O   UNL     1       7.760   6.558  17.274  0.00  0.00    +0.000 OA
ATOM     19  N   UNL     1       6.996   5.042  15.734  0.00  0.00    +0.000 N 
ATOM     20  C   UNL     1       6.136   4.039  15.333  0.00  0.00    +0.000 A 
ATOM     21  O   UNL     1       6.033   3.586  14.195  0.00  0.00    +0.000 OA
ATOM     22  N   UNL     1       5.330   3.549  16.335  0.00  0.00    +0.000 N 
ATOM     23  H   UNL     1       4.690   2.819  16.055  0.00  0.00    +0.000 HD
BRANCH  19  24
ATOM     24  O   UNL     1       7.795   5.645  14.737  0.00  0.00    +0.000 OA
ATOM     25  H   UNL     1       8.558   5.035  14.692  0.00  0.00    +0.000 HD
ENDBRANCH  19  24
ENDBRANCH  14  15
ENDBRANCH   4  14
TORSDOF 4
ENDMDL
MODEL 8
REMARK VINA RESULT:      -8.1      1.014      2.011
REMARK  Name = 
REMARK  5 active torsions:
REMARK  status: ('A' for Active; 'I' for Inactive)
REMARK    1  A    between atoms: C_1  and  C_2
REMARK    2  A    between atoms: C_5  and  C_6
REMARK    3  A    between atoms: C_9  and  S_10
REMARK    4  A    between atoms: S_10  and  C_11
REMARK    5  A    between atoms: N_15  and  O_16
REMARK                            x       y       z     vdW  Elec       q    Type
REMARK                         _______ _______ _______ _____ _____    ______ ____
ROOT
ATOM      1  C   UNL     1       1.885   7.215  19.992  0.00  0.00    +0.000 A 
ATOM      2  C   UNL     1       1.933   6.074  20.814  0.00  0.00    +0.000 A 
ATOM      3  C   UNL     1       2.603   4.907  20.419  0.00  0.00    +0.000 A 
ATOM      4  C   UNL     1       3.229   4.839  19.176  0.00  0.00    +0.000 A 
ATOM      5  C   UNL     1       3.187   5.954  18.338  0.00  0.00    +0.000 A 
ATOM      6  C   UNL     1       2.521   7.121  18.741  0.00  0.00    +0.000 A 
ENDROOT
BRANCH   1  11
ATOM      7  C   UNL     1      -0.483  12.232  21.799  0.00  0.00    +0.000 C 
ATOM      8  C   UNL     1       0.086  10.925  21.333  0.00  0.00    +0.000 A 
ATOM      9  C   UNL     1       0.235   9.850  22.209  0.00  0.00    +0.000 A 
ATOM     10  C   UNL     1       0.804   8.648  21.768  0.00  0.00    +0.000 A 
ATOM     11  C   UNL     1       1.236   8.474  20.440  0.00  0.00    +0.000 A 
ATOM     12  C   UNL     1       1.052   9.564  19.568  0.00  0.00    +0.000 A 
ATOM     13  C   UNL     1       0.496  10.772  20.007  0.00  0.00    +0.000 A 
ENDBRANCH   1  11
BRANCH   4  14
ATOM     14  S   UNL     1       4.175   3.400  18.724  0.00  0.00    +0.000 S 
BRANCH  14  15
ATOM     15  C   UNL     1       5.358   4.028  17.628  0.00  0.00    +0.000 A 
ATOM     16  C   UNL     1       6.166   5.027  18.005  0.00  0.00    +0.000 A 
ATOM     17  C   UNL     1       7.074   5.630  17.010  0.00  0.00    +0.000 A 
ATOM     18  O   UNL     1       7.777   6.593  17.307  0.00  0.00    +0.000 OA
ATOM     19  N   UNL     1       7.041   5.071  15.760  0.00  0.00    +0.000 N 
ATOM     20  C   UNL     1       6.193   4.059  15.352  0.00  0.00    +0.000 A 
ATOM     21  O   UNL     1       6.104   3.605  14.213  0.00  0.00    +0.000 OA
ATOM     22  N   UNL     1       5.382   3.563  16.347  0.00  0.00    +0.000 N 
ATOM     23  H   UNL     1       4.752   2.827  16.061  0.00  0.00    +0.000 HD
BRANCH  19  24
ATOM     24  O   UNL     1       7.843   5.680  14.771  0.00  0.00    +0.000 OA
ATOM     25  H   UNL     1       8.742   5.403  15.039  0.00  0.00    +0.000 HD
ENDBRANCH  19  24
ENDBRANCH  14  15
ENDBRANCH   4  14
TORSDOF 4
ENDMDL
MODEL 9
REMARK VINA RESULT:      -8.0      2.686      3.685
REMARK  Name = 
REMARK  5 active torsions:
REMARK  status: ('A' for Active; 'I' for Inactive)
REMARK    1  A    between atoms: C_1  and  C_2
REMARK    2  A    between atoms: C_5  and  C_6
REMARK    3  A    between atoms: C_9  and  S_10
REMARK    4  A    between atoms: S_10  and  C_11
REMARK    5  A    between atoms: N_15  and  O_16
REMARK                            x       y       z     vdW  Elec       q    Type
REMARK                         _______ _______ _______ _____ _____    ______ ____
ROOT
ATOM      1  C   UNL     1       0.642   9.446  20.204  0.00  0.00    +0.000 A 
ATOM      2  C   UNL     1       1.257   8.286  20.710  0.00  0.00    +0.000 A 
ATOM      3  C   UNL     1       2.129   7.512  19.929  0.00  0.00    +0.000 A 
ATOM      4  C   UNL     1       2.396   7.866  18.608  0.00  0.00    +0.000 A 
ATOM      5  C   UNL     1       1.790   9.007  18.081  0.00  0.00    +0.000 A 
ATOM      6  C   UNL     1       0.925   9.781  18.867  0.00  0.00    +0.000 A 
ENDROOT
BRANCH   1  11
ATOM      7  C   UNL     1      -2.919  12.695  23.490  0.00  0.00    +0.000 C 
ATOM      8  C   UNL     1      -1.974  11.891  22.648  0.00  0.00    +0.000 A 
ATOM      9  C   UNL     1      -1.780  12.187  21.299  0.00  0.00    +0.000 A 
ATOM     10  C   UNL     1      -0.924  11.401  20.516  0.00  0.00    +0.000 A 
ATOM     11  C   UNL     1      -0.225  10.304  21.052  0.00  0.00    +0.000 A 
ATOM     12  C   UNL     1      -0.417  10.041  22.421  0.00  0.00    +0.000 A 
ATOM     13  C   UNL     1      -1.282  10.814  23.206  0.00  0.00    +0.000 A 
ENDBRANCH   1  11
BRANCH   4  14
ATOM     14  S   UNL     1       3.590   6.951  17.656  0.00  0.00    +0.000 S 
BRANCH  14  15
ATOM     15  C   UNL     1       3.238   5.303  18.051  0.00  0.00    +0.000 A 
ATOM     16  C   UNL     1       2.030   4.789  17.789  0.00  0.00    +0.000 A 
ATOM     17  C   UNL     1       1.715   3.425  18.255  0.00  0.00    +0.000 A 
ATOM     18  O   UNL     1       0.593   2.951  18.091  0.00  0.00    +0.000 OA
ATOM     19  N   UNL     1       2.731   2.767  18.897  0.00  0.00    +0.000 N 
ATOM     20  C   UNL     1       3.971   3.296  19.197  0.00  0.00    +0.000 A 
ATOM     21  O   UNL     1       4.859   2.740  19.840  0.00  0.00    +0.000 OA
ATOM     22  N   UNL     1       4.171   4.573  18.726  0.00  0.00    +0.000 N 
ATOM     23  H   UNL     1       5.072   4.976  18.944  0.00  0.00    +0.000 HD
BRANCH  19  24
ATOM     24  O   UNL     1       2.429   1.490  19.420  0.00  0.00    +0.000 OA
ATOM     25  H   UNL     1       1.484   1.584  19.651  0.00  0.00    +0.000 HD
ENDBRANCH  19  24
ENDBRANCH  14  15
ENDBRANCH   4  14
TORSDOF 4
ENDMDL
