MODEL 1
REMARK VINA RESULT:      -9.7      0.000      0.000
REMARK  Name = 
REMARK  7 active torsions:
REMARK  status: ('A' for Active; 'I' for Inactive)
REMARK    1  A    between atoms: C_1  and  N_2
REMARK    2  A    between atoms: N_2  and  C_3
REMARK    3  A    between atoms: C_9  and  C_10
REMARK    4  A    between atoms: C_10  and  C_11
REMARK    5  A    between atoms: C_11  and  O_12
REMARK    6  A    between atoms: C_11  and  C_13
REMARK    7  A    between atoms: C_11  and  C_21
REMARK                            x       y       z     vdW  Elec       q    Type
REMARK                         _______ _______ _______ _____ _____    ______ ____
ROOT
ATOM      1  C   UNL     1       5.509   4.433  16.372  0.00  0.00    +0.000 C 
ENDROOT
BRANCH   1   2
ATOM      2  C   UNL     1       5.950   4.463  14.904  0.00  0.00    +0.000 A 
ATOM      3  C   UNL     1       5.313   3.638  13.946  0.00  0.00    +0.000 A 
ATOM      4  C   UNL     1       5.802   3.518  12.640  0.00  0.00    +0.000 A 
ATOM      5  C   UNL     1       6.951   4.203  12.274  0.00  0.00    +0.000 A 
ATOM      6  F   UNL     1       7.450   4.046  11.042  0.00  0.00    +0.000 F 
ATOM      7  C   UNL     1       7.586   5.030  13.190  0.00  0.00    +0.000 A 
ATOM      8  F   UNL     1       8.710   5.676  12.850  0.00  0.00    +0.000 F 
ATOM      9  C   UNL     1       7.089   5.174  14.488  0.00  0.00    +0.000 A 
ENDBRANCH   1   2
BRANCH   1  10
ATOM     10  C   UNL     1       6.384   5.413  17.202  0.00  0.00    +0.000 A 
ATOM     11  C   UNL     1       7.201   4.946  18.258  0.00  0.00    +0.000 A 
ATOM     12  C   UNL     1       8.065   5.798  18.950  0.00  0.00    +0.000 A 
ATOM     13  C   UNL     1       8.119   7.138  18.602  0.00  0.00    +0.000 A 
ATOM     14  F   UNL     1       8.979   7.950  19.235  0.00  0.00    +0.000 F 
ATOM     15  C   UNL     1       7.305   7.630  17.596  0.00  0.00    +0.000 A 
ATOM     16  F   UNL     1       7.354   8.929  17.257  0.00  0.00    +0.000 F 
ATOM     17  C   UNL     1       6.436   6.785  16.903  0.00  0.00    +0.000 A 
ENDBRANCH   1  10
BRANCH   1  18
ATOM     18  O   UNL     1       5.685   3.116  16.905  0.00  0.00    +0.000 OA
ATOM     19  H   UNL     1       5.551   3.165  17.866  0.00  0.00    +0.000 HD
ENDBRANCH   1  18
BRANCH   1  20
ATOM     20  C   UNL     1       4.020   4.797  16.681  0.00  0.00    +0.000 C 
BRANCH  20  29
ATOM     21  C   UNL     1       1.498   2.983  21.274  0.00  0.00    +0.000 C 
ATOM     22  N   UNL     1       1.722   3.000  19.739  0.00  0.00    +0.000 N 
ATOM     23  C   UNL     1       0.657   2.051  19.195  0.00  0.00    +0.000 C 
ATOM     24  C   UNL     1       1.669   4.435  19.185  0.00  0.00    +0.000 C 
ATOM     25  C   UNL     1       2.951   5.049  19.769  0.00  0.00    +0.000 C 
ATOM     26  C   UNL     1       3.947   3.881  19.879  0.00  0.00    +0.000 C 
ATOM     27  C   UNL     1       3.179   2.648  19.380  0.00  0.00    +0.000 C 
ATOM     28  C   UNL     1       3.329   2.485  17.848  0.00  0.00    +0.000 C 
ATOM     29  C   UNL     1       2.933   3.715  16.990  0.00  0.00    +0.000 C 
ATOM     30  C   UNL     1       1.689   4.403  17.634  0.00  0.00    +0.000 C 
ENDBRANCH  20  29
ENDBRANCH   1  20
TORSDOF 5
ENDMDL
MODEL 2
REMARK VINA RESULT:      -9.5      0.535      1.255
REMARK  Name = 
REMARK  7 active torsions:
REMARK  status: ('A' for Active; 'I' for Inactive)
REMARK    1  A    between atoms: C_1  and  N_2
REMARK    2  A    between atoms: N_2  and  C_3
REMARK    3  A    between atoms: C_9  and  C_10
REMARK    4  A    between atoms: C_10  and  C_11
REMARK    5  A    between atoms: C_11  and  O_12
REMARK    6  A    between atoms: C_11  and  C_13
REMARK    7  A    between atoms: C_11  and  C_21
REMARK                            x       y       z     vdW  Elec       q    Type
REMARK                         _______ _______ _______ _____ _____    ______ ____
ROOT
ATOM      1  C   UNL     1       5.637   4.509  16.376  0.00  0.00    +0.000 C 
ENDROOT
BRANCH   1   2
ATOM      2  C   UNL     1       6.003   4.488  14.887  0.00  0.00    +0.000 A 
ATOM      3  C   UNL     1       5.310   3.639  13.991  0.00  0.00    +0.000 A 
ATOM      4  C   UNL     1       5.730   3.473  12.666  0.00  0.00    +0.000 A 
ATOM      5  C   UNL     1       6.864   4.135  12.220  0.00  0.00    +0.000 A 
ATOM      6  F   UNL     1       7.298   3.934  10.969  0.00  0.00    +0.000 F 
ATOM      7  C   UNL     1       7.552   4.984  13.075  0.00  0.00    +0.000 A 
ATOM      8  F   UNL     1       8.663   5.608  12.657  0.00  0.00    +0.000 F 
ATOM      9  C   UNL     1       7.125   5.174  14.391  0.00  0.00    +0.000 A 
ENDBRANCH   1   2
BRANCH   1  10
ATOM     10  C   UNL     1       6.596   5.466  17.138  0.00  0.00    +0.000 A 
ATOM     11  C   UNL     1       6.727   6.822  16.758  0.00  0.00    +0.000 A 
ATOM     12  C   UNL     1       7.510   7.716  17.492  0.00  0.00    +0.000 A 
ATOM     13  C   UNL     1       8.183   7.266  18.616  0.00  0.00    +0.000 A 
ATOM     14  F   UNL     1       8.901   8.134  19.346  0.00  0.00    +0.000 F 
ATOM     15  C   UNL     1       8.101   5.936  18.991  0.00  0.00    +0.000 A 
ATOM     16  F   UNL     1       8.753   5.496  20.079  0.00  0.00    +0.000 F 
ATOM     17  C   UNL     1       7.324   5.034  18.261  0.00  0.00    +0.000 A 
ENDBRANCH   1  10
BRANCH   1  18
ATOM     18  O   UNL     1       5.784   3.196  16.931  0.00  0.00    +0.000 OA
ATOM     19  H   UNL     1       4.915   2.916  17.264  0.00  0.00    +0.000 HD
ENDBRANCH   1  18
BRANCH   1  20
ATOM     20  C   UNL     1       4.183   4.943  16.753  0.00  0.00    +0.000 C 
BRANCH  20  29
ATOM     21  C   UNL     1       1.572   2.940  21.215  0.00  0.00    +0.000 C 
ATOM     22  N   UNL     1       1.787   3.065  19.684  0.00  0.00    +0.000 N 
ATOM     23  C   UNL     1       0.658   2.236  19.078  0.00  0.00    +0.000 C 
ATOM     24  C   UNL     1       1.828   4.540  19.246  0.00  0.00    +0.000 C 
ATOM     25  C   UNL     1       3.152   5.019  19.863  0.00  0.00    +0.000 C 
ATOM     26  C   UNL     1       4.068   3.782  19.868  0.00  0.00    +0.000 C 
ATOM     27  C   UNL     1       3.215   2.647  19.281  0.00  0.00    +0.000 C 
ATOM     28  C   UNL     1       3.345   2.597  17.739  0.00  0.00    +0.000 C 
ATOM     29  C   UNL     1       3.028   3.916  16.987  0.00  0.00    +0.000 C 
ATOM     30  C   UNL     1       1.837   4.631  17.697  0.00  0.00    +0.000 C 
ENDBRANCH  20  29
ENDBRANCH   1  20
TORSDOF 5
ENDMDL
MODEL 3
REMARK VINA RESULT:      -9.4      0.831      1.059
REMARK  Name = 
REMARK  7 active torsions:
REMARK  status: ('A' for Active; 'I' for Inactive)
REMARK    1  A    between atoms: C_1  and  N_2
REMARK    2  A    between atoms: N_2  and  C_3
REMARK    3  A    between atoms: C_9  and  C_10
REMARK    4  A    between atoms: C_10  and  C_11
REMARK    5  A    between atoms: C_11  and  O_12
REMARK    6  A    between atoms: C_11  and  C_13
REMARK    7  A    between atoms: C_11  and  C_21
REMARK                            x       y       z     vdW  Elec       q    Type
REMARK                         _______ _______ _______ _____ _____    ______ ____
ROOT
ATOM      1  C   UNL     1       5.644   4.157  15.994  0.00  0.00    +0.000 C 
ENDROOT
BRANCH   1   2
ATOM      2  C   UNL     1       6.095   4.335  14.540  0.00  0.00    +0.000 A 
ATOM      3  C   UNL     1       5.505   3.569  13.506  0.00  0.00    +0.000 A 
ATOM      4  C   UNL     1       6.010   3.586  12.201  0.00  0.00    +0.000 A 
ATOM      5  C   UNL     1       7.129   4.352  11.910  0.00  0.00    +0.000 A 
ATOM      6  F   UNL     1       7.646   4.326  10.675  0.00  0.00    +0.000 F 
ATOM      7  C   UNL     1       7.717   5.124  12.902  0.00  0.00    +0.000 A 
ATOM      8  F   UNL     1       8.813   5.847  12.634  0.00  0.00    +0.000 F 
ATOM      9  C   UNL     1       7.204   5.131  14.201  0.00  0.00    +0.000 A 
ENDBRANCH   1   2
BRANCH   1  10
ATOM     10  C   UNL     1       6.429   5.134  16.911  0.00  0.00    +0.000 A 
ATOM     11  C   UNL     1       7.259   4.653  17.951  0.00  0.00    +0.000 A 
ATOM     12  C   UNL     1       8.045   5.514  18.720  0.00  0.00    +0.000 A 
ATOM     13  C   UNL     1       8.007   6.876  18.467  0.00  0.00    +0.000 A 
ATOM     14  F   UNL     1       8.794   7.700  19.176  0.00  0.00    +0.000 F 
ATOM     15  C   UNL     1       7.178   7.378  17.479  0.00  0.00    +0.000 A 
ATOM     16  F   UNL     1       7.139   8.698  17.232  0.00  0.00    +0.000 F 
ATOM     17  C   UNL     1       6.386   6.525  16.708  0.00  0.00    +0.000 A 
ENDBRANCH   1  10
BRANCH   1  18
ATOM     18  O   UNL     1       5.919   2.820  16.428  0.00  0.00    +0.000 OA
ATOM     19  H   UNL     1       6.682   2.853  17.027  0.00  0.00    +0.000 HD
ENDBRANCH   1  18
BRANCH   1  20
ATOM     20  C   UNL     1       4.127   4.376  16.306  0.00  0.00    +0.000 C 
BRANCH  20  29
ATOM     21  C   UNL     1       1.456   5.583  21.013  0.00  0.00    +0.000 C 
ATOM     22  N   UNL     1       1.933   4.600  19.912  0.00  0.00    +0.000 N 
ATOM     23  C   UNL     1       1.298   3.268  20.298  0.00  0.00    +0.000 C 
ATOM     24  C   UNL     1       1.572   5.119  18.509  0.00  0.00    +0.000 C 
ATOM     25  C   UNL     1       2.501   6.336  18.369  0.00  0.00    +0.000 C 
ATOM     26  C   UNL     1       3.753   5.986  19.193  0.00  0.00    +0.000 C 
ATOM     27  C   UNL     1       3.470   4.599  19.788  0.00  0.00    +0.000 C 
ATOM     28  C   UNL     1       3.929   3.478  18.824  0.00  0.00    +0.000 C 
ATOM     29  C   UNL     1       3.358   3.543  17.384  0.00  0.00    +0.000 C 
ATOM     30  C   UNL     1       1.875   4.027  17.448  0.00  0.00    +0.000 C 
ENDBRANCH  20  29
ENDBRANCH   1  20
TORSDOF 5
ENDMDL
MODEL 4
REMARK VINA RESULT:      -9.4      0.567      1.259
REMARK  Name = 
REMARK  7 active torsions:
REMARK  status: ('A' for Active; 'I' for Inactive)
REMARK    1  A    between atoms: C_1  and  N_2
REMARK    2  A    between atoms: N_2  and  C_3
REMARK    3  A    between atoms: C_9  and  C_10
REMARK    4  A    between atoms: C_10  and  C_11
REMARK    5  A    between atoms: C_11  and  O_12
REMARK    6  A    between atoms: C_11  and  C_13
REMARK    7  A    between atoms: C_11  and  C_21
REMARK                            x       y       z     vdW  Elec       q    Type
REMARK                         _______ _______ _______ _____ _____    ______ ____
ROOT
ATOM      1  C   UNL     1       5.632   4.464  16.605  0.00  0.00    +0.000 C 
ENDROOT
BRANCH   1   2
ATOM      2  C   UNL     1       6.140   4.315  15.166  0.00  0.00    +0.000 A 
ATOM      3  C   UNL     1       7.308   4.995  14.744  0.00  0.00    +0.000 A 
ATOM      4  C   UNL     1       7.700   5.015  13.401  0.00  0.00    +0.000 A 
ATOM      5  C   UNL     1       6.918   4.375  12.451  0.00  0.00    +0.000 A 
ATOM      6  F   UNL     1       7.262   4.440  11.158  0.00  0.00    +0.000 F 
ATOM      7  C   UNL     1       5.776   3.690  12.840  0.00  0.00    +0.000 A 
ATOM      8  F   UNL     1       5.004   3.090  11.924  0.00  0.00    +0.000 F 
ATOM      9  C   UNL     1       5.393   3.644  14.183  0.00  0.00    +0.000 A 
ENDBRANCH   1   2
BRANCH   1  10
ATOM     10  C   UNL     1       6.481   5.528  17.354  0.00  0.00    +0.000 A 
ATOM     11  C   UNL     1       7.344   5.161  18.413  0.00  0.00    +0.000 A 
ATOM     12  C   UNL     1       8.184   6.091  19.030  0.00  0.00    +0.000 A 
ATOM     13  C   UNL     1       8.169   7.409  18.603  0.00  0.00    +0.000 A 
ATOM     14  F   UNL     1       9.006   8.294  19.166  0.00  0.00    +0.000 F 
ATOM     15  C   UNL     1       7.309   7.804  17.593  0.00  0.00    +0.000 A 
ATOM     16  F   UNL     1       7.291   9.081  17.178  0.00  0.00    +0.000 F 
ATOM     17  C   UNL     1       6.463   6.882  16.973  0.00  0.00    +0.000 A 
ENDBRANCH   1  10
BRANCH   1  18
ATOM     18  O   UNL     1       5.766   3.218  17.299  0.00  0.00    +0.000 OA
ATOM     19  H   UNL     1       6.304   3.376  18.092  0.00  0.00    +0.000 HD
ENDBRANCH   1  18
BRANCH   1  20
ATOM     20  C   UNL     1       4.135   4.873  16.799  0.00  0.00    +0.000 C 
BRANCH  20  29
ATOM     21  C   UNL     1       1.392   2.937  21.211  0.00  0.00    +0.000 C 
ATOM     22  N   UNL     1       1.666   3.023  19.687  0.00  0.00    +0.000 N 
ATOM     23  C   UNL     1       0.581   2.151  19.062  0.00  0.00    +0.000 C 
ATOM     24  C   UNL     1       1.691   4.485  19.208  0.00  0.00    +0.000 C 
ATOM     25  C   UNL     1       2.978   5.013  19.862  0.00  0.00    +0.000 C 
ATOM     26  C   UNL     1       3.921   3.798  19.940  0.00  0.00    +0.000 C 
ATOM     27  C   UNL     1       3.118   2.627  19.354  0.00  0.00    +0.000 C 
ATOM     28  C   UNL     1       3.310   2.537  17.820  0.00  0.00    +0.000 C 
ATOM     29  C   UNL     1       2.995   3.825  17.017  0.00  0.00    +0.000 C 
ATOM     30  C   UNL     1       1.760   4.533  17.659  0.00  0.00    +0.000 C 
ENDBRANCH  20  29
ENDBRANCH   1  20
TORSDOF 5
ENDMDL
MODEL 5
REMARK VINA RESULT:      -9.4      1.202      4.804
REMARK  Name = 
REMARK  7 active torsions:
REMARK  status: ('A' for Active; 'I' for Inactive)
REMARK    1  A    between atoms: C_1  and  N_2
REMARK    2  A    between atoms: N_2  and  C_3
REMARK    3  A    between atoms: C_9  and  C_10
REMARK    4  A    between atoms: C_10  and  C_11
REMARK    5  A    between atoms: C_11  and  O_12
REMARK    6  A    between atoms: C_11  and  C_13
REMARK    7  A    between atoms: C_11  and  C_21
REMARK                            x       y       z     vdW  Elec       q    Type
REMARK                         _______ _______ _______ _____ _____    ______ ____
ROOT
ATOM      1  C   UNL     1       5.254   5.284  15.951  0.00  0.00    +0.000 C 
ENDROOT
BRANCH   1   2
ATOM      2  C   UNL     1       6.380   5.879  16.806  0.00  0.00    +0.000 A 
ATOM      3  C   UNL     1       7.001   5.103  17.814  0.00  0.00    +0.000 A 
ATOM      4  C   UNL     1       7.909   5.667  18.718  0.00  0.00    +0.000 A 
ATOM      5  C   UNL     1       8.194   7.022  18.645  0.00  0.00    +0.000 A 
ATOM      6  F   UNL     1       9.020   7.574  19.544  0.00  0.00    +0.000 F 
ATOM      7  C   UNL     1       7.609   7.802  17.657  0.00  0.00    +0.000 A 
ATOM      8  F   UNL     1       7.862   9.116  17.597  0.00  0.00    +0.000 F 
ATOM      9  C   UNL     1       6.721   7.240  16.736  0.00  0.00    +0.000 A 
ENDBRANCH   1   2
BRANCH   1  10
ATOM     10  C   UNL     1       5.832   4.776  14.602  0.00  0.00    +0.000 A 
ATOM     11  C   UNL     1       7.132   5.142  14.180  0.00  0.00    +0.000 A 
ATOM     12  C   UNL     1       7.701   4.617  13.017  0.00  0.00    +0.000 A 
ATOM     13  C   UNL     1       6.975   3.720  12.251  0.00  0.00    +0.000 A 
ATOM     14  F   UNL     1       7.536   3.181  11.158  0.00  0.00    +0.000 F 
ATOM     15  C   UNL     1       5.688   3.370  12.621  0.00  0.00    +0.000 A 
ATOM     16  F   UNL     1       4.980   2.502  11.879  0.00  0.00    +0.000 F 
ATOM     17  C   UNL     1       5.109   3.894  13.779  0.00  0.00    +0.000 A 
ENDBRANCH   1  10
BRANCH   1  18
ATOM     18  O   UNL     1       4.276   6.291  15.667  0.00  0.00    +0.000 OA
ATOM     19  H   UNL     1       3.433   6.005  16.057  0.00  0.00    +0.000 HD
ENDBRANCH   1  18
BRANCH   1  20
ATOM     20  C   UNL     1       4.441   4.096  16.562  0.00  0.00    +0.000 C 
BRANCH  20  29
ATOM     21  C   UNL     1       2.356   2.640  21.489  0.00  0.00    +0.000 C 
ATOM     22  N   UNL     1       2.273   3.349  20.112  0.00  0.00    +0.000 N 
ATOM     23  C   UNL     1       0.924   4.063  20.140  0.00  0.00    +0.000 C 
ATOM     24  C   UNL     1       3.493   4.257  19.879  0.00  0.00    +0.000 C 
ATOM     25  C   UNL     1       4.627   3.232  19.718  0.00  0.00    +0.000 C 
ATOM     26  C   UNL     1       3.966   1.990  19.093  0.00  0.00    +0.000 C 
ATOM     27  C   UNL     1       2.480   2.353  18.954  0.00  0.00    +0.000 C 
ATOM     28  C   UNL     1       2.203   3.045  17.596  0.00  0.00    +0.000 C 
ATOM     29  C   UNL     1       3.066   4.294  17.281  0.00  0.00    +0.000 C 
ATOM     30  C   UNL     1       3.284   5.105  18.596  0.00  0.00    +0.000 C 
ENDBRANCH  20  29
ENDBRANCH   1  20
TORSDOF 5
ENDMDL
MODEL 6
REMARK VINA RESULT:      -9.3      1.050      4.852
REMARK  Name = 
REMARK  7 active torsions:
REMARK  status: ('A' for Active; 'I' for Inactive)
REMARK    1  A    between atoms: C_1  and  N_2
REMARK    2  A    between atoms: N_2  and  C_3
REMARK    3  A    between atoms: C_9  and  C_10
REMARK    4  A    between atoms: C_10  and  C_11
REMARK    5  A    between atoms: C_11  and  O_12
REMARK    6  A    between atoms: C_11  and  C_13
REMARK    7  A    between atoms: C_11  and  C_21
REMARK                            x       y       z     vdW  Elec       q    Type
REMARK                         _______ _______ _______ _____ _____    ______ ____
ROOT
ATOM      1  C   UNL     1       5.711   5.472  16.735  0.00  0.00    +0.000 C 
ENDROOT
BRANCH   1   2
ATOM      2  C   UNL     1       6.767   6.408  17.334  0.00  0.00    +0.000 A 
ATOM      3  C   UNL     1       7.612   5.960  18.379  0.00  0.00    +0.000 A 
ATOM      4  C   UNL     1       8.465   6.837  19.058  0.00  0.00    +0.000 A 
ATOM      5  C   UNL     1       8.473   8.182  18.721  0.00  0.00    +0.000 A 
ATOM      6  F   UNL     1       9.249   9.031  19.408  0.00  0.00    +0.000 F 
ATOM      7  C   UNL     1       7.666   8.643  17.692  0.00  0.00    +0.000 A 
ATOM      8  F   UNL     1       7.651   9.946  17.378  0.00  0.00    +0.000 F 
ATOM      9  C   UNL     1       6.830   7.770  16.992  0.00  0.00    +0.000 A 
ENDBRANCH   1   2
BRANCH   1  10
ATOM     10  C   UNL     1       6.182   4.975  15.340  0.00  0.00    +0.000 A 
ATOM     11  C   UNL     1       5.433   4.019  14.615  0.00  0.00    +0.000 A 
ATOM     12  C   UNL     1       5.792   3.634  13.321  0.00  0.00    +0.000 A 
ATOM     13  C   UNL     1       6.915   4.194  12.733  0.00  0.00    +0.000 A 
ATOM     14  F   UNL     1       7.236   3.858  11.474  0.00  0.00    +0.000 F 
ATOM     15  C   UNL     1       7.686   5.106  13.432  0.00  0.00    +0.000 A 
ATOM     16  F   UNL     1       8.776   5.650  12.865  0.00  0.00    +0.000 F 
ATOM     17  C   UNL     1       7.337   5.493  14.728  0.00  0.00    +0.000 A 
ENDBRANCH   1  10
BRANCH   1  18
ATOM     18  O   UNL     1       4.477   6.179  16.563  0.00  0.00    +0.000 OA
ATOM     19  H   UNL     1       4.664   6.980  16.046  0.00  0.00    +0.000 HD
ENDBRANCH   1  18
BRANCH   1  20
ATOM     20  C   UNL     1       5.332   4.197  17.557  0.00  0.00    +0.000 C 
BRANCH  20  29
ATOM     21  C   UNL     1       0.509   2.990  20.012  0.00  0.00    +0.000 C 
ATOM     22  N   UNL     1       1.990   3.451  20.034  0.00  0.00    +0.000 N 
ATOM     23  C   UNL     1       2.307   3.620  21.517  0.00  0.00    +0.000 C 
ATOM     24  C   UNL     1       2.893   2.460  19.278  0.00  0.00    +0.000 C 
ATOM     25  C   UNL     1       2.445   2.668  17.822  0.00  0.00    +0.000 C 
ATOM     26  C   UNL     1       2.010   4.142  17.738  0.00  0.00    +0.000 C 
ATOM     27  C   UNL     1       2.202   4.700  19.156  0.00  0.00    +0.000 C 
ATOM     28  C   UNL     1       3.637   5.250  19.346  0.00  0.00    +0.000 C 
ATOM     29  C   UNL     1       4.792   4.267  19.023  0.00  0.00    +0.000 C 
ATOM     30  C   UNL     1       4.384   2.835  19.491  0.00  0.00    +0.000 C 
ENDBRANCH  20  29
ENDBRANCH   1  20
TORSDOF 5
ENDMDL
MODEL 7
REMARK VINA RESULT:      -9.3      1.056      4.716
REMARK  Name = 
REMARK  7 active torsions:
REMARK  status: ('A' for Active; 'I' for Inactive)
REMARK    1  A    between atoms: C_1  and  N_2
REMARK    2  A    between atoms: N_2  and  C_3
REMARK    3  A    between atoms: C_9  and  C_10
REMARK    4  A    between atoms: C_10  and  C_11
REMARK    5  A    between atoms: C_11  and  O_12
REMARK    6  A    between atoms: C_11  and  C_13
REMARK    7  A    between atoms: C_11  and  C_21
REMARK                            x       y       z     vdW  Elec       q    Type
REMARK                         _______ _______ _______ _____ _____    ______ ____
ROOT
ATOM      1  C   UNL     1       5.388   5.631  16.155  0.00  0.00    +0.000 C 
ENDROOT
BRANCH   1   2
ATOM      2  C   UNL     1       6.510   6.282  16.973  0.00  0.00    +0.000 A 
ATOM      3  C   UNL     1       7.113   5.583  18.047  0.00  0.00    +0.000 A 
ATOM      4  C   UNL     1       8.016   6.210  18.913  0.00  0.00    +0.000 A 
ATOM      5  C   UNL     1       8.315   7.552  18.736  0.00  0.00    +0.000 A 
ATOM      6  F   UNL     1       9.135   8.166  19.599  0.00  0.00    +0.000 F 
ATOM      7  C   UNL     1       7.748   8.255  17.683  0.00  0.00    +0.000 A 
ATOM      8  F   UNL     1       8.014   9.559  17.522  0.00  0.00    +0.000 F 
ATOM      9  C   UNL     1       6.866   7.630  16.799  0.00  0.00    +0.000 A 
ENDBRANCH   1   2
BRANCH   1  10
ATOM     10  C   UNL     1       5.978   5.007  14.859  0.00  0.00    +0.000 A 
ATOM     11  C   UNL     1       5.282   3.998  14.153  0.00  0.00    +0.000 A 
ATOM     12  C   UNL     1       5.753   3.497  12.937  0.00  0.00    +0.000 A 
ATOM     13  C   UNL     1       6.935   3.992  12.410  0.00  0.00    +0.000 A 
ATOM     14  F   UNL     1       7.366   3.543  11.221  0.00  0.00    +0.000 F 
ATOM     15  C   UNL     1       7.655   4.954  13.098  0.00  0.00    +0.000 A 
ATOM     16  F   UNL     1       8.802   5.435  12.590  0.00  0.00    +0.000 F 
ATOM     17  C   UNL     1       7.194   5.457  14.316  0.00  0.00    +0.000 A 
ENDBRANCH   1  10
BRANCH   1  18
ATOM     18  O   UNL     1       4.426   6.621  15.775  0.00  0.00    +0.000 OA
ATOM     19  H   UNL     1       3.826   6.218  15.126  0.00  0.00    +0.000 HD
ENDBRANCH   1  18
BRANCH   1  20
ATOM     20  C   UNL     1       4.554   4.506  16.850  0.00  0.00    +0.000 C 
BRANCH  20  29
ATOM     21  C   UNL     1       1.991   2.389  21.288  0.00  0.00    +0.000 C 
ATOM     22  N   UNL     1       2.107   3.393  20.110  0.00  0.00    +0.000 N 
ATOM     23  C   UNL     1       0.906   4.318  20.288  0.00  0.00    +0.000 C 
ATOM     24  C   UNL     1       3.479   4.089  20.106  0.00  0.00    +0.000 C 
ATOM     25  C   UNL     1       4.421   2.936  19.724  0.00  0.00    +0.000 C 
ATOM     26  C   UNL     1       3.583   2.010  18.823  0.00  0.00    +0.000 C 
ATOM     27  C   UNL     1       2.194   2.661  18.756  0.00  0.00    +0.000 C 
ATOM     28  C   UNL     1       2.115   3.679  17.592  0.00  0.00    +0.000 C 
ATOM     29  C   UNL     1       3.200   4.787  17.581  0.00  0.00    +0.000 C 
ATOM     30  C   UNL     1       3.490   5.227  19.050  0.00  0.00    +0.000 C 
ENDBRANCH  20  29
ENDBRANCH   1  20
TORSDOF 5
ENDMDL
MODEL 8
REMARK VINA RESULT:      -9.3      0.709      1.544
REMARK  Name = 
REMARK  7 active torsions:
REMARK  status: ('A' for Active; 'I' for Inactive)
REMARK    1  A    between atoms: C_1  and  N_2
REMARK    2  A    between atoms: N_2  and  C_3
REMARK    3  A    between atoms: C_9  and  C_10
REMARK    4  A    between atoms: C_10  and  C_11
REMARK    5  A    between atoms: C_11  and  O_12
REMARK    6  A    between atoms: C_11  and  C_13
REMARK    7  A    between atoms: C_11  and  C_21
REMARK                            x       y       z     vdW  Elec       q    Type
REMARK                         _______ _______ _______ _____ _____    ______ ____
ROOT
ATOM      1  C   UNL     1       5.707   4.510  16.343  0.00  0.00    +0.000 C 
ENDROOT
BRANCH   1   2
ATOM      2  C   UNL     1       6.129   4.553  14.869  0.00  0.00    +0.000 A 
ATOM      3  C   UNL     1       5.477   3.739  13.912  0.00  0.00    +0.000 A 
ATOM      4  C   UNL     1       5.948   3.631  12.599  0.00  0.00    +0.000 A 
ATOM      5  C   UNL     1       7.095   4.315  12.225  0.00  0.00    +0.000 A 
ATOM      6  F   UNL     1       7.578   4.169  10.984  0.00  0.00    +0.000 F 
ATOM      7  C   UNL     1       7.745   5.130  13.140  0.00  0.00    +0.000 A 
ATOM      8  F   UNL     1       8.867   5.775  12.792  0.00  0.00    +0.000 F 
ATOM      9  C   UNL     1       7.266   5.263  14.445  0.00  0.00    +0.000 A 
ENDBRANCH   1   2
BRANCH   1  10
ATOM     10  C   UNL     1       6.530   5.548  17.154  0.00  0.00    +0.000 A 
ATOM     11  C   UNL     1       7.391   5.142  18.201  0.00  0.00    +0.000 A 
ATOM     12  C   UNL     1       8.207   6.053  18.874  0.00  0.00    +0.000 A 
ATOM     13  C   UNL     1       8.171   7.391  18.517  0.00  0.00    +0.000 A 
ATOM     14  F   UNL     1       8.986   8.260  19.134  0.00  0.00    +0.000 F 
ATOM     15  C   UNL     1       7.312   7.823  17.521  0.00  0.00    +0.000 A 
ATOM     16  F   UNL     1       7.273   9.120  17.174  0.00  0.00    +0.000 F 
ATOM     17  C   UNL     1       6.489   6.919  16.846  0.00  0.00    +0.000 A 
ENDBRANCH   1  10
BRANCH   1  18
ATOM     18  O   UNL     1       5.969   3.210  16.886  0.00  0.00    +0.000 OA
ATOM     19  H   UNL     1       5.671   2.552  16.237  0.00  0.00    +0.000 HD
ENDBRANCH   1  18
BRANCH   1  20
ATOM     20  C   UNL     1       4.202   4.784  16.666  0.00  0.00    +0.000 C 
BRANCH  20  29
ATOM     21  C   UNL     1       1.303   2.506  20.807  0.00  0.00    +0.000 C 
ATOM     22  N   UNL     1       2.116   3.661  20.166  0.00  0.00    +0.000 N 
ATOM     23  C   UNL     1       2.208   4.711  21.269  0.00  0.00    +0.000 C 
ATOM     24  C   UNL     1       3.464   3.157  19.623  0.00  0.00    +0.000 C 
ATOM     25  C   UNL     1       3.025   2.288  18.434  0.00  0.00    +0.000 C 
ATOM     26  C   UNL     1       1.731   2.938  17.912  0.00  0.00    +0.000 C 
ATOM     27  C   UNL     1       1.476   4.132  18.845  0.00  0.00    +0.000 C 
ATOM     28  C   UNL     1       2.191   5.403  18.326  0.00  0.00    +0.000 C 
ATOM     29  C   UNL     1       3.715   5.270  18.071  0.00  0.00    +0.000 C 
ATOM     30  C   UNL     1       4.337   4.360  19.176  0.00  0.00    +0.000 C 
ENDBRANCH  20  29
ENDBRANCH   1  20
TORSDOF 5
ENDMDL
MODEL 9
REMARK VINA RESULT:      -9.2      1.189      4.633
REMARK  Name = 
REMARK  7 active torsions:
REMARK  status: ('A' for Active; 'I' for Inactive)
REMARK    1  A    between atoms: C_1  and  N_2
REMARK    2  A    between atoms: N_2  and  C_3
REMARK    3  A    between atoms: C_9  and  C_10
REMARK    4  A    between atoms: C_10  and  C_11
REMARK    5  A    between atoms: C_11  and  O_12
REMARK    6  A    between atoms: C_11  and  C_13
REMARK    7  A    between atoms: C_11  and  C_21
REMARK                            x       y       z     vdW  Elec       q    Type
REMARK                         _______ _______ _______ _____ _____    ______ ____
ROOT
ATOM      1  C   UNL     1       5.137   5.484  16.205  0.00  0.00    +0.000 C 
ENDROOT
BRANCH   1   2
ATOM      2  C   UNL     1       6.132   6.182  17.139  0.00  0.00    +0.000 A 
ATOM      3  C   UNL     1       6.479   7.539  16.932  0.00  0.00    +0.000 A 
ATOM      4  C   UNL     1       7.506   8.152  17.659  0.00  0.00    +0.000 A 
ATOM      5  C   UNL     1       8.220   7.413  18.590  0.00  0.00    +0.000 A 
ATOM      6  F   UNL     1       9.239   7.984  19.246  0.00  0.00    +0.000 F 
ATOM      7  C   UNL     1       7.891   6.086  18.822  0.00  0.00    +0.000 A 
ATOM      8  F   UNL     1       8.593   5.360  19.702  0.00  0.00    +0.000 F 
ATOM      9  C   UNL     1       6.850   5.474  18.118  0.00  0.00    +0.000 A 
ENDBRANCH   1   2
BRANCH   1  10
ATOM     10  C   UNL     1       5.878   4.966  14.941  0.00  0.00    +0.000 A 
ATOM     11  C   UNL     1       5.318   3.950  14.131  0.00  0.00    +0.000 A 
ATOM     12  C   UNL     1       5.926   3.543  12.941  0.00  0.00    +0.000 A 
ATOM     13  C   UNL     1       7.111   4.141  12.545  0.00  0.00    +0.000 A 
ATOM     14  F   UNL     1       7.673   3.782  11.380  0.00  0.00    +0.000 F 
ATOM     15  C   UNL     1       7.699   5.113  13.335  0.00  0.00    +0.000 A 
ATOM     16  F   UNL     1       8.849   5.694  12.954  0.00  0.00    +0.000 F 
ATOM     17  C   UNL     1       7.101   5.523  14.528  0.00  0.00    +0.000 A 
ENDBRANCH   1  10
BRANCH   1  18
ATOM     18  O   UNL     1       4.131   6.412  15.784  0.00  0.00    +0.000 OA
ATOM     19  H   UNL     1       4.559   7.078  15.221  0.00  0.00    +0.000 HD
ENDBRANCH   1  18
BRANCH   1  20
ATOM     20  C   UNL     1       4.342   4.267  16.783  0.00  0.00    +0.000 C 
BRANCH  20  29
ATOM     21  C   UNL     1       2.173   2.448  21.551  0.00  0.00    +0.000 C 
ATOM     22  N   UNL     1       2.117   3.265  20.233  0.00  0.00    +0.000 N 
ATOM     23  C   UNL     1       0.775   3.990  20.300  0.00  0.00    +0.000 C 
ATOM     24  C   UNL     1       3.350   4.175  20.090  0.00  0.00    +0.000 C 
ATOM     25  C   UNL     1       4.475   3.153  19.862  0.00  0.00    +0.000 C 
ATOM     26  C   UNL     1       3.810   1.973  19.132  0.00  0.00    +0.000 C 
ATOM     27  C   UNL     1       2.330   2.362  19.002  0.00  0.00    +0.000 C 
ATOM     28  C   UNL     1       2.079   3.163  17.701  0.00  0.00    +0.000 C 
ATOM     29  C   UNL     1       2.959   4.423  17.497  0.00  0.00    +0.000 C 
ATOM     30  C   UNL     1       3.167   5.125  18.876  0.00  0.00    +0.000 C 
ENDBRANCH  20  29
ENDBRANCH   1  20
TORSDOF 5
ENDMDL
