MODEL 1
REMARK VINA RESULT:      -7.0      0.000      0.000
REMARK  Name = 
REMARK  11 active torsions:
REMARK  status: ('A' for Active; 'I' for Inactive)
REMARK    1  A    between atoms: C_1  and  O_2
REMARK    2  A    between atoms: O_2  and  C_3
REMARK    3  A    between atoms: C_6  and  O_7
REMARK    4  A    between atoms: O_7  and  C_8
REMARK    5  A    between atoms: C_8  and  C_9
REMARK    6  A    between atoms: C_11  and  C_12
REMARK    7  A    between atoms: C_14  and  N_15
REMARK    8  A    between atoms: N_15  and  C_16
REMARK    9  A    between atoms: C_16  and  C_17
REMARK   10  A    between atoms: C_17  and  C_18
REMARK   11  A    between atoms: C_18  and  N_19
REMARK                            x       y       z     vdW  Elec       q    Type
REMARK                         _______ _______ _______ _____ _____    ______ ____
ROOT
ATOM      1  C   UNL     1       4.188   6.310  17.621  0.00  0.00    +0.000 A 
ATOM      2  N   UNL     1       5.502   6.335  17.777  0.00  0.00    +0.000 NA
ATOM      3  C   UNL     1       5.869   5.009  17.646  0.00  0.00    +0.000 A 
ATOM      4  C   UNL     1       4.761   4.221  17.421  0.00  0.00    +0.000 A 
ATOM      5  O   UNL     1       3.675   5.056  17.394  0.00  0.00    +0.000 OA
ENDROOT
BRANCH   3   6
ATOM      6  C   UNL     1       7.223   4.570  17.738  0.00  0.00    +0.000 C 
ATOM      7  N   UNL     1       8.337   4.244  17.779  0.00  0.00    +0.000 NA
ENDBRANCH   3   6
BRANCH   4   8
ATOM      8  N   UNL     1       4.537   2.890  17.306  0.00  0.00    +0.000 N 
ATOM      9  H   UNL     1       4.713   2.417  16.420  0.00  0.00    +0.000 HD
BRANCH   8  10
ATOM     10  C   UNL     1       3.620   2.196  18.197  0.00  0.00    +0.000 C 
BRANCH  10  11
ATOM     11  C   UNL     1       2.193   2.300  17.667  0.00  0.00    +0.000 C 
BRANCH  11  12
ATOM     12  C   UNL     1       1.173   2.197  18.799  0.00  0.00    +0.000 C 
BRANCH  12  13
ATOM     13  N   UNL     1       1.539   3.000  19.946  0.00  0.00    +0.000 N 
ATOM     14  C   UNL     1       1.676   4.358  19.978  0.00  0.00    +0.000 A 
ATOM     15  C   UNL     1       2.085   4.638  21.262  0.00  0.00    +0.000 A 
ATOM     16  N   UNL     1       2.199   3.489  22.000  0.00  0.00    +0.000 NA
ATOM     17  C   UNL     1       1.871   2.516  21.179  0.00  0.00    +0.000 A 
ENDBRANCH  12  13
ENDBRANCH  11  12
ENDBRANCH  10  11
ENDBRANCH   8  10
ENDBRANCH   4   8
BRANCH   1  18
ATOM     18  C   UNL     1       3.183   7.414  17.775  0.00  0.00    +0.000 C 
BRANCH  18  19
ATOM     19  O   UNL     1       2.793   7.472  19.149  0.00  0.00    +0.000 OA
BRANCH  19  23
ATOM     20  C   UNL     1      -0.306  10.209  19.812  0.00  0.00    +0.000 A 
ATOM     21  C   UNL     1       0.383  10.139  18.601  0.00  0.00    +0.000 A 
ATOM     22  C   UNL     1       1.412   9.210  18.421  0.00  0.00    +0.000 A 
ATOM     23  C   UNL     1       1.798   8.363  19.461  0.00  0.00    +0.000 A 
ATOM     24  C   UNL     1       1.121   8.441  20.680  0.00  0.00    +0.000 A 
ATOM     25  C   UNL     1       0.070   9.362  20.854  0.00  0.00    +0.000 A 
BRANCH  20  27
ATOM     26  C   UNL     1      -0.862  12.493  20.128  0.00  0.00    +0.000 C 
ATOM     27  O   UNL     1      -1.287  11.160  19.867  0.00  0.00    +0.000 OA
ENDBRANCH  20  27
ENDBRANCH  19  23
ENDBRANCH  18  19
ENDBRANCH   1  18
TORSDOF 10
ENDMDL
MODEL 2
REMARK VINA RESULT:      -6.9      5.195      6.116
REMARK  Name = 
REMARK  11 active torsions:
REMARK  status: ('A' for Active; 'I' for Inactive)
REMARK    1  A    between atoms: C_1  and  O_2
REMARK    2  A    between atoms: O_2  and  C_3
REMARK    3  A    between atoms: C_6  and  O_7
REMARK    4  A    between atoms: O_7  and  C_8
REMARK    5  A    between atoms: C_8  and  C_9
REMARK    6  A    between atoms: C_11  and  C_12
REMARK    7  A    between atoms: C_14  and  N_15
REMARK    8  A    between atoms: N_15  and  C_16
REMARK    9  A    between atoms: C_16  and  C_17
REMARK   10  A    between atoms: C_17  and  C_18
REMARK   11  A    between atoms: C_18  and  N_19
REMARK                            x       y       z     vdW  Elec       q    Type
REMARK                         _______ _______ _______ _____ _____    ______ ____
ROOT
ATOM      1  C   UNL     1       7.819   7.280  17.957  0.00  0.00    +0.000 A 
ATOM      2  N   UNL     1       7.678   7.064  16.659  0.00  0.00    +0.000 NA
ATOM      3  C   UNL     1       7.089   5.815  16.601  0.00  0.00    +0.000 A 
ATOM      4  C   UNL     1       6.898   5.311  17.870  0.00  0.00    +0.000 A 
ATOM      5  O   UNL     1       7.358   6.256  18.748  0.00  0.00    +0.000 OA
ENDROOT
BRANCH   3   6
ATOM      6  C   UNL     1       6.744   5.180  15.371  0.00  0.00    +0.000 C 
ATOM      7  N   UNL     1       6.451   4.707  14.352  0.00  0.00    +0.000 NA
ENDBRANCH   3   6
BRANCH   4   8
ATOM      8  N   UNL     1       6.454   4.138  18.379  0.00  0.00    +0.000 N 
ATOM      9  H   UNL     1       6.790   3.255  17.997  0.00  0.00    +0.000 HD
BRANCH   8  10
ATOM     10  C   UNL     1       5.187   4.052  19.090  0.00  0.00    +0.000 C 
BRANCH  10  11
ATOM     11  C   UNL     1       4.223   5.118  18.578  0.00  0.00    +0.000 C 
BRANCH  11  12
ATOM     12  C   UNL     1       3.222   5.523  19.656  0.00  0.00    +0.000 C 
BRANCH  12  13
ATOM     13  N   UNL     1       2.320   4.447  20.005  0.00  0.00    +0.000 N 
ATOM     14  C   UNL     1       1.456   3.805  19.165  0.00  0.00    +0.000 A 
ATOM     15  C   UNL     1       0.786   2.911  19.968  0.00  0.00    +0.000 A 
ATOM     16  N   UNL     1       1.220   3.000  21.265  0.00  0.00    +0.000 NA
ATOM     17  C   UNL     1       2.139   3.939  21.260  0.00  0.00    +0.000 A 
ENDBRANCH  12  13
ENDBRANCH  11  12
ENDBRANCH  10  11
ENDBRANCH   8  10
ENDBRANCH   4   8
BRANCH   1  18
ATOM     18  C   UNL     1       8.508   8.405  18.673  0.00  0.00    +0.000 C 
BRANCH  18  19
ATOM     19  O   UNL     1       8.502   9.548  17.814  0.00  0.00    +0.000 OA
BRANCH  19  23
ATOM     20  C   UNL     1       9.970  13.192  19.265  0.00  0.00    +0.000 A 
ATOM     21  C   UNL     1       9.101  13.117  18.176  0.00  0.00    +0.000 A 
ATOM     22  C   UNL     1       8.634  11.879  17.723  0.00  0.00    +0.000 A 
ATOM     23  C   UNL     1       9.059  10.693  18.324  0.00  0.00    +0.000 A 
ATOM     24  C   UNL     1       9.942  10.764  19.404  0.00  0.00    +0.000 A 
ATOM     25  C   UNL     1      10.396  12.011  19.873  0.00  0.00    +0.000 A 
BRANCH  20  27
ATOM     26  C   UNL     1       9.380  15.480  19.469  0.00  0.00    +0.000 C 
ATOM     27  O   UNL     1      10.359  14.456  19.609  0.00  0.00    +0.000 OA
ENDBRANCH  20  27
ENDBRANCH  19  23
ENDBRANCH  18  19
ENDBRANCH   1  18
TORSDOF 10
ENDMDL
MODEL 3
REMARK VINA RESULT:      -6.9      4.849      5.819
REMARK  Name = 
REMARK  11 active torsions:
REMARK  status: ('A' for Active; 'I' for Inactive)
REMARK    1  A    between atoms: C_1  and  O_2
REMARK    2  A    between atoms: O_2  and  C_3
REMARK    3  A    between atoms: C_6  and  O_7
REMARK    4  A    between atoms: O_7  and  C_8
REMARK    5  A    between atoms: C_8  and  C_9
REMARK    6  A    between atoms: C_11  and  C_12
REMARK    7  A    between atoms: C_14  and  N_15
REMARK    8  A    between atoms: N_15  and  C_16
REMARK    9  A    between atoms: C_16  and  C_17
REMARK   10  A    between atoms: C_17  and  C_18
REMARK   11  A    between atoms: C_18  and  N_19
REMARK                            x       y       z     vdW  Elec       q    Type
REMARK                         _______ _______ _______ _____ _____    ______ ____
ROOT
ATOM      1  C   UNL     1       7.479   6.769  17.605  0.00  0.00    +0.000 A 
ATOM      2  N   UNL     1       7.594   6.483  16.318  0.00  0.00    +0.000 NA
ATOM      3  C   UNL     1       6.802   5.362  16.163  0.00  0.00    +0.000 A 
ATOM      4  C   UNL     1       6.235   5.000  17.366  0.00  0.00    +0.000 A 
ATOM      5  O   UNL     1       6.660   5.910  18.297  0.00  0.00    +0.000 OA
ENDROOT
BRANCH   3   6
ATOM      6  C   UNL     1       6.626   4.708  14.906  0.00  0.00    +0.000 C 
ATOM      7  N   UNL     1       6.530   4.167  13.884  0.00  0.00    +0.000 NA
ENDBRANCH   3   6
BRANCH   4   8
ATOM      8  N   UNL     1       5.467   3.970  17.793  0.00  0.00    +0.000 N 
ATOM      9  H   UNL     1       5.829   3.316  18.486  0.00  0.00    +0.000 HD
BRANCH   8  10
ATOM     10  C   UNL     1       4.368   3.460  16.988  0.00  0.00    +0.000 C 
BRANCH  10  11
ATOM     11  C   UNL     1       3.052   4.088  17.436  0.00  0.00    +0.000 C 
BRANCH  11  12
ATOM     12  C   UNL     1       2.144   3.056  18.101  0.00  0.00    +0.000 C 
BRANCH  12  13
ATOM     13  N   UNL     1       2.076   3.223  19.536  0.00  0.00    +0.000 N 
ATOM     14  C   UNL     1       1.413   2.417  20.418  0.00  0.00    +0.000 A 
ATOM     15  C   UNL     1       1.597   3.015  21.644  0.00  0.00    +0.000 A 
ATOM     16  N   UNL     1       2.348   4.155  21.523  0.00  0.00    +0.000 NA
ATOM     17  C   UNL     1       2.617   4.259  20.241  0.00  0.00    +0.000 A 
ENDBRANCH  12  13
ENDBRANCH  11  12
ENDBRANCH  10  11
ENDBRANCH   8  10
ENDBRANCH   4   8
BRANCH   1  18
ATOM     18  C   UNL     1       8.194   7.801  18.426  0.00  0.00    +0.000 C 
BRANCH  18  19
ATOM     19  O   UNL     1       7.948   9.083  17.842  0.00  0.00    +0.000 OA
BRANCH  19  23
ATOM     20  C   UNL     1       9.877  12.483  19.343  0.00  0.00    +0.000 A 
ATOM     21  C   UNL     1       9.123  12.509  18.170  0.00  0.00    +0.000 A 
ATOM     22  C   UNL     1       8.495  11.350  17.703  0.00  0.00    +0.000 A 
ATOM     23  C   UNL     1       8.643  10.138  18.378  0.00  0.00    +0.000 A 
ATOM     24  C   UNL     1       9.410  10.105  19.544  0.00  0.00    +0.000 A 
ATOM     25  C   UNL     1      10.026  11.276  20.026  0.00  0.00    +0.000 A 
BRANCH  20  27
ATOM     26  C   UNL     1       9.926  14.306  20.860  0.00  0.00    +0.000 C 
ATOM     27  O   UNL     1      10.445  13.677  19.693  0.00  0.00    +0.000 OA
ENDBRANCH  20  27
ENDBRANCH  19  23
ENDBRANCH  18  19
ENDBRANCH   1  18
TORSDOF 10
ENDMDL
MODEL 4
REMARK VINA RESULT:      -6.7      5.268      6.435
REMARK  Name = 
REMARK  11 active torsions:
REMARK  status: ('A' for Active; 'I' for Inactive)
REMARK    1  A    between atoms: C_1  and  O_2
REMARK    2  A    between atoms: O_2  and  C_3
REMARK    3  A    between atoms: C_6  and  O_7
REMARK    4  A    between atoms: O_7  and  C_8
REMARK    5  A    between atoms: C_8  and  C_9
REMARK    6  A    between atoms: C_11  and  C_12
REMARK    7  A    between atoms: C_14  and  N_15
REMARK    8  A    between atoms: N_15  and  C_16
REMARK    9  A    between atoms: C_16  and  C_17
REMARK   10  A    between atoms: C_17  and  C_18
REMARK   11  A    between atoms: C_18  and  N_19
REMARK                            x       y       z     vdW  Elec       q    Type
REMARK                         _______ _______ _______ _____ _____    ______ ____
ROOT
ATOM      1  C   UNL     1       7.581   7.558  17.381  0.00  0.00    +0.000 A 
ATOM      2  N   UNL     1       7.422   6.789  16.315  0.00  0.00    +0.000 NA
ATOM      3  C   UNL     1       6.978   5.592  16.843  0.00  0.00    +0.000 A 
ATOM      4  C   UNL     1       6.888   5.673  18.216  0.00  0.00    +0.000 A 
ATOM      5  O   UNL     1       7.266   6.941  18.567  0.00  0.00    +0.000 OA
ENDROOT
BRANCH   3   6
ATOM      6  C   UNL     1       6.668   4.459  16.033  0.00  0.00    +0.000 C 
ATOM      7  N   UNL     1       6.381   3.563  15.353  0.00  0.00    +0.000 NA
ENDBRANCH   3   6
BRANCH   4   8
ATOM      8  N   UNL     1       6.598   4.801  19.211  0.00  0.00    +0.000 N 
ATOM      9  H   UNL     1       7.290   4.113  19.506  0.00  0.00    +0.000 HD
BRANCH   8  10
ATOM     10  C   UNL     1       5.222   4.466  19.548  0.00  0.00    +0.000 C 
BRANCH  10  11
ATOM     11  C   UNL     1       4.261   5.395  18.813  0.00  0.00    +0.000 C 
BRANCH  11  12
ATOM     12  C   UNL     1       3.039   5.716  19.670  0.00  0.00    +0.000 C 
BRANCH  12  13
ATOM     13  N   UNL     1       2.232   4.547  19.942  0.00  0.00    +0.000 N 
ATOM     14  C   UNL     1       1.529   3.813  19.029  0.00  0.00    +0.000 A 
ATOM     15  C   UNL     1       0.887   2.850  19.775  0.00  0.00    +0.000 A 
ATOM     16  N   UNL     1       1.182   2.986  21.106  0.00  0.00    +0.000 NA
ATOM     17  C   UNL     1       1.988   4.021  21.179  0.00  0.00    +0.000 A 
ENDBRANCH  12  13
ENDBRANCH  11  12
ENDBRANCH  10  11
ENDBRANCH   8  10
ENDBRANCH   4   8
BRANCH   1  18
ATOM     18  C   UNL     1       8.159   8.938  17.490  0.00  0.00    +0.000 C 
BRANCH  18  19
ATOM     19  O   UNL     1       8.707   9.088  18.802  0.00  0.00    +0.000 OA
BRANCH  19  23
ATOM     20  C   UNL     1      10.703  12.612  19.869  0.00  0.00    +0.000 A 
ATOM     21  C   UNL     1      10.116  11.770  20.814  0.00  0.00    +0.000 A 
ATOM     22  C   UNL     1       9.458  10.602  20.415  0.00  0.00    +0.000 A 
ATOM     23  C   UNL     1       9.341  10.277  19.063  0.00  0.00    +0.000 A 
ATOM     24  C   UNL     1       9.914  11.125  18.114  0.00  0.00    +0.000 A 
ATOM     25  C   UNL     1      10.594  12.290  18.516  0.00  0.00    +0.000 A 
BRANCH  20  27
ATOM     26  C   UNL     1      10.770  14.980  19.988  0.00  0.00    +0.000 C 
ATOM     27  O   UNL     1      11.312  13.723  20.382  0.00  0.00    +0.000 OA
ENDBRANCH  20  27
ENDBRANCH  19  23
ENDBRANCH  18  19
ENDBRANCH   1  18
TORSDOF 10
ENDMDL
MODEL 5
REMARK VINA RESULT:      -6.6      1.864      2.616
REMARK  Name = 
REMARK  11 active torsions:
REMARK  status: ('A' for Active; 'I' for Inactive)
REMARK    1  A    between atoms: C_1  and  O_2
REMARK    2  A    between atoms: O_2  and  C_3
REMARK    3  A    between atoms: C_6  and  O_7
REMARK    4  A    between atoms: O_7  and  C_8
REMARK    5  A    between atoms: C_8  and  C_9
REMARK    6  A    between atoms: C_11  and  C_12
REMARK    7  A    between atoms: C_14  and  N_15
REMARK    8  A    between atoms: N_15  and  C_16
REMARK    9  A    between atoms: C_16  and  C_17
REMARK   10  A    between atoms: C_17  and  C_18
REMARK   11  A    between atoms: C_18  and  N_19
REMARK                            x       y       z     vdW  Elec       q    Type
REMARK                         _______ _______ _______ _____ _____    ______ ____
ROOT
ATOM      1  C   UNL     1       2.737   6.860  19.232  0.00  0.00    +0.000 A 
ATOM      2  N   UNL     1       3.025   7.341  18.033  0.00  0.00    +0.000 NA
ATOM      3  C   UNL     1       4.095   6.570  17.623  0.00  0.00    +0.000 A 
ATOM      4  C   UNL     1       4.427   5.648  18.592  0.00  0.00    +0.000 A 
ATOM      5  O   UNL     1       3.548   5.824  19.628  0.00  0.00    +0.000 OA
ENDROOT
BRANCH   3   6
ATOM      6  C   UNL     1       4.732   6.745  16.358  0.00  0.00    +0.000 C 
ATOM      7  N   UNL     1       5.283   6.855  15.342  0.00  0.00    +0.000 NA
ENDBRANCH   3   6
BRANCH   4   8
ATOM      8  N   UNL     1       5.410   4.730  18.747  0.00  0.00    +0.000 N 
ATOM      9  H   UNL     1       6.354   4.932  18.418  0.00  0.00    +0.000 HD
BRANCH   8  10
ATOM     10  C   UNL     1       5.108   3.316  18.904  0.00  0.00    +0.000 C 
BRANCH  10  11
ATOM     11  C   UNL     1       4.123   2.866  17.830  0.00  0.00    +0.000 C 
BRANCH  11  12
ATOM     12  C   UNL     1       3.053   1.944  18.410  0.00  0.00    +0.000 C 
BRANCH  12  13
ATOM     13  N   UNL     1       2.225   2.609  19.393  0.00  0.00    +0.000 N 
ATOM     14  C   UNL     1       2.302   2.469  20.749  0.00  0.00    +0.000 A 
ATOM     15  C   UNL     1       1.281   3.251  21.240  0.00  0.00    +0.000 A 
ATOM     16  N   UNL     1       0.594   3.854  20.219  0.00  0.00    +0.000 NA
ATOM     17  C   UNL     1       1.180   3.443  19.117  0.00  0.00    +0.000 A 
ENDBRANCH  12  13
ENDBRANCH  11  12
ENDBRANCH  10  11
ENDBRANCH   8  10
ENDBRANCH   4   8
BRANCH   1  18
ATOM     18  C   UNL     1       1.753   7.352  20.253  0.00  0.00    +0.000 C 
BRANCH  18  19
ATOM     19  O   UNL     1       1.488   8.731  19.986  0.00  0.00    +0.000 OA
BRANCH  19  23
ATOM     20  C   UNL     1      -0.739  10.957  22.747  0.00  0.00    +0.000 A 
ATOM     21  C   UNL     1      -0.554  11.373  21.428  0.00  0.00    +0.000 A 
ATOM     22  C   UNL     1       0.197  10.599  20.538  0.00  0.00    +0.000 A 
ATOM     23  C   UNL     1       0.810   9.419  20.961  0.00  0.00    +0.000 A 
ATOM     24  C   UNL     1       0.640   9.008  22.285  0.00  0.00    +0.000 A 
ATOM     25  C   UNL     1      -0.134   9.776  23.176  0.00  0.00    +0.000 A 
BRANCH  20  27
ATOM     26  C   UNL     1      -2.754  12.183  22.995  0.00  0.00    +0.000 C 
ATOM     27  O   UNL     1      -1.488  11.800  23.520  0.00  0.00    +0.000 OA
ENDBRANCH  20  27
ENDBRANCH  19  23
ENDBRANCH  18  19
ENDBRANCH   1  18
TORSDOF 10
ENDMDL
MODEL 6
REMARK VINA RESULT:      -6.6      2.430      4.223
REMARK  Name = 
REMARK  11 active torsions:
REMARK  status: ('A' for Active; 'I' for Inactive)
REMARK    1  A    between atoms: C_1  and  O_2
REMARK    2  A    between atoms: O_2  and  C_3
REMARK    3  A    between atoms: C_6  and  O_7
REMARK    4  A    between atoms: O_7  and  C_8
REMARK    5  A    between atoms: C_8  and  C_9
REMARK    6  A    between atoms: C_11  and  C_12
REMARK    7  A    between atoms: C_14  and  N_15
REMARK    8  A    between atoms: N_15  and  C_16
REMARK    9  A    between atoms: C_16  and  C_17
REMARK   10  A    between atoms: C_17  and  C_18
REMARK   11  A    between atoms: C_18  and  N_19
REMARK                            x       y       z     vdW  Elec       q    Type
REMARK                         _______ _______ _______ _____ _____    ______ ____
ROOT
ATOM      1  C   UNL     1       1.471   9.058  19.302  0.00  0.00    +0.000 A 
ATOM      2  N   UNL     1       2.187   8.627  18.275  0.00  0.00    +0.000 NA
ATOM      3  C   UNL     1       2.614   7.377  18.680  0.00  0.00    +0.000 A 
ATOM      4  C   UNL     1       2.147   7.093  19.946  0.00  0.00    +0.000 A 
ATOM      5  O   UNL     1       1.401   8.169  20.347  0.00  0.00    +0.000 OA
ENDROOT
BRANCH   3   6
ATOM      6  C   UNL     1       3.425   6.536  17.861  0.00  0.00    +0.000 C 
ATOM      7  N   UNL     1       4.088   5.887  17.164  0.00  0.00    +0.000 NA
ENDBRANCH   3   6
BRANCH   4   8
ATOM      8  N   UNL     1       2.323   6.082  20.828  0.00  0.00    +0.000 N 
ATOM      9  H   UNL     1       3.231   5.941  21.270  0.00  0.00    +0.000 HD
BRANCH   8  10
ATOM     10  C   UNL     1       1.461   4.909  20.819  0.00  0.00    +0.000 C 
BRANCH  10  11
ATOM     11  C   UNL     1       2.123   3.764  21.579  0.00  0.00    +0.000 C 
BRANCH  11  12
ATOM     12  C   UNL     1       1.790   2.415  20.946  0.00  0.00    +0.000 C 
BRANCH  12  13
ATOM     13  N   UNL     1       2.287   2.302  19.593  0.00  0.00    +0.000 N 
ATOM     14  C   UNL     1       3.594   2.184  19.213  0.00  0.00    +0.000 A 
ATOM     15  C   UNL     1       3.559   2.166  17.838  0.00  0.00    +0.000 A 
ATOM     16  N   UNL     1       2.271   2.273  17.381  0.00  0.00    +0.000 NA
ATOM     17  C   UNL     1       1.526   2.360  18.460  0.00  0.00    +0.000 A 
ENDBRANCH  12  13
ENDBRANCH  11  12
ENDBRANCH  10  11
ENDBRANCH   8  10
ENDBRANCH   4   8
BRANCH   1  18
ATOM     18  C   UNL     1       0.839  10.399  19.535  0.00  0.00    +0.000 C 
BRANCH  18  19
ATOM     19  O   UNL     1       0.312  10.865  18.290  0.00  0.00    +0.000 OA
BRANCH  19  23
ATOM     20  C   UNL     1      -3.859  10.920  17.925  0.00  0.00    +0.000 A 
ATOM     21  C   UNL     1      -3.174  11.765  18.798  0.00  0.00    +0.000 A 
ATOM     22  C   UNL     1      -1.780  11.715  18.890  0.00  0.00    +0.000 A 
ATOM     23  C   UNL     1      -1.049  10.791  18.141  0.00  0.00    +0.000 A 
ATOM     24  C   UNL     1      -1.733   9.932  17.278  0.00  0.00    +0.000 A 
ATOM     25  C   UNL     1      -3.135   9.997  17.170  0.00  0.00    +0.000 A 
BRANCH  20  27
ATOM     26  C   UNL     1      -5.743  12.168  17.204  0.00  0.00    +0.000 C 
ATOM     27  O   UNL     1      -5.219  11.061  17.929  0.00  0.00    +0.000 OA
ENDBRANCH  20  27
ENDBRANCH  19  23
ENDBRANCH  18  19
ENDBRANCH   1  18
TORSDOF 10
ENDMDL
MODEL 7
REMARK VINA RESULT:      -6.6      1.045      1.617
REMARK  Name = 
REMARK  11 active torsions:
REMARK  status: ('A' for Active; 'I' for Inactive)
REMARK    1  A    between atoms: C_1  and  O_2
REMARK    2  A    between atoms: O_2  and  C_3
REMARK    3  A    between atoms: C_6  and  O_7
REMARK    4  A    between atoms: O_7  and  C_8
REMARK    5  A    between atoms: C_8  and  C_9
REMARK    6  A    between atoms: C_11  and  C_12
REMARK    7  A    between atoms: C_14  and  N_15
REMARK    8  A    between atoms: N_15  and  C_16
REMARK    9  A    between atoms: C_16  and  C_17
REMARK   10  A    between atoms: C_17  and  C_18
REMARK   11  A    between atoms: C_18  and  N_19
REMARK                            x       y       z     vdW  Elec       q    Type
REMARK                         _______ _______ _______ _____ _____    ______ ____
ROOT
ATOM      1  C   UNL     1       3.668   6.205  17.585  0.00  0.00    +0.000 A 
ATOM      2  N   UNL     1       4.982   6.347  17.656  0.00  0.00    +0.000 NA
ATOM      3  C   UNL     1       5.460   5.079  17.391  0.00  0.00    +0.000 A 
ATOM      4  C   UNL     1       4.417   4.204  17.173  0.00  0.00    +0.000 A 
ATOM      5  O   UNL     1       3.259   4.927  17.287  0.00  0.00    +0.000 OA
ENDROOT
BRANCH   3   6
ATOM      6  C   UNL     1       6.853   4.770  17.357  0.00  0.00    +0.000 C 
ATOM      7  N   UNL     1       7.981   4.505  17.284  0.00  0.00    +0.000 NA
ENDBRANCH   3   6
BRANCH   4   8
ATOM      8  N   UNL     1       4.311   2.871  16.961  0.00  0.00    +0.000 N 
ATOM      9  H   UNL     1       4.710   2.454  16.120  0.00  0.00    +0.000 HD
BRANCH   8  10
ATOM     10  C   UNL     1       3.265   2.084  17.596  0.00  0.00    +0.000 C 
BRANCH  10  11
ATOM     11  C   UNL     1       3.854   1.235  18.718  0.00  0.00    +0.000 C 
BRANCH  11  12
ATOM     12  C   UNL     1       4.181   2.086  19.943  0.00  0.00    +0.000 C 
BRANCH  12  13
ATOM     13  N   UNL     1       3.058   2.892  20.371  0.00  0.00    +0.000 N 
ATOM     14  C   UNL     1       3.066   4.237  20.607  0.00  0.00    +0.000 A 
ATOM     15  C   UNL     1       1.792   4.523  21.042  0.00  0.00    +0.000 A 
ATOM     16  N   UNL     1       1.022   3.390  21.076  0.00  0.00    +0.000 NA
ATOM     17  C   UNL     1       1.813   2.421  20.673  0.00  0.00    +0.000 A 
ENDBRANCH  12  13
ENDBRANCH  11  12
ENDBRANCH  10  11
ENDBRANCH   8  10
ENDBRANCH   4   8
BRANCH   1  18
ATOM     18  C   UNL     1       2.578   7.188  17.897  0.00  0.00    +0.000 C 
BRANCH  18  19
ATOM     19  O   UNL     1       2.601   7.446  19.303  0.00  0.00    +0.000 OA
BRANCH  19  23
ATOM     20  C   UNL     1      -0.102  10.161  20.994  0.00  0.00    +0.000 A 
ATOM     21  C   UNL     1       0.350   9.033  21.678  0.00  0.00    +0.000 A 
ATOM     22  C   UNL     1       1.253   8.150  21.077  0.00  0.00    +0.000 A 
ATOM     23  C   UNL     1       1.688   8.359  19.767  0.00  0.00    +0.000 A 
ATOM     24  C   UNL     1       1.225   9.480  19.074  0.00  0.00    +0.000 A 
ATOM     25  C   UNL     1       0.332  10.379  19.687  0.00  0.00    +0.000 A 
BRANCH  20  27
ATOM     26  C   UNL     1      -1.064  10.719  23.089  0.00  0.00    +0.000 C 
ATOM     27  O   UNL     1      -0.985  10.943  21.686  0.00  0.00    +0.000 OA
ENDBRANCH  20  27
ENDBRANCH  19  23
ENDBRANCH  18  19
ENDBRANCH   1  18
TORSDOF 10
ENDMDL
MODEL 8
REMARK VINA RESULT:      -6.6      1.594      2.129
REMARK  Name = 
REMARK  11 active torsions:
REMARK  status: ('A' for Active; 'I' for Inactive)
REMARK    1  A    between atoms: C_1  and  O_2
REMARK    2  A    between atoms: O_2  and  C_3
REMARK    3  A    between atoms: C_6  and  O_7
REMARK    4  A    between atoms: O_7  and  C_8
REMARK    5  A    between atoms: C_8  and  C_9
REMARK    6  A    between atoms: C_11  and  C_12
REMARK    7  A    between atoms: C_14  and  N_15
REMARK    8  A    between atoms: N_15  and  C_16
REMARK    9  A    between atoms: C_16  and  C_17
REMARK   10  A    between atoms: C_17  and  C_18
REMARK   11  A    between atoms: C_18  and  N_19
REMARK                            x       y       z     vdW  Elec       q    Type
REMARK                         _______ _______ _______ _____ _____    ______ ____
ROOT
ATOM      1  C   UNL     1       3.109   7.352  18.025  0.00  0.00    +0.000 A 
ATOM      2  N   UNL     1       4.254   7.766  17.504  0.00  0.00    +0.000 NA
ATOM      3  C   UNL     1       4.994   6.605  17.387  0.00  0.00    +0.000 A 
ATOM      4  C   UNL     1       4.275   5.524  17.848  0.00  0.00    +0.000 A 
ATOM      5  O   UNL     1       3.055   5.998  18.251  0.00  0.00    +0.000 OA
ENDROOT
BRANCH   3   6
ATOM      6  C   UNL     1       6.317   6.584  16.852  0.00  0.00    +0.000 C 
ATOM      7  N   UNL     1       7.390   6.614  16.410  0.00  0.00    +0.000 NA
ENDBRANCH   3   6
BRANCH   4   8
ATOM      8  N   UNL     1       4.535   4.208  18.037  0.00  0.00    +0.000 N 
ATOM      9  H   UNL     1       5.323   3.921  18.617  0.00  0.00    +0.000 HD
BRANCH   8  10
ATOM     10  C   UNL     1       4.073   3.202  17.094  0.00  0.00    +0.000 C 
BRANCH  10  11
ATOM     11  C   UNL     1       2.680   2.716  17.483  0.00  0.00    +0.000 C 
BRANCH  11  12
ATOM     12  C   UNL     1       2.747   1.685  18.607  0.00  0.00    +0.000 C 
BRANCH  12  13
ATOM     13  N   UNL     1       2.348   2.234  19.885  0.00  0.00    +0.000 N 
ATOM     14  C   UNL     1       1.113   2.717  20.212  0.00  0.00    +0.000 A 
ATOM     15  C   UNL     1       1.246   3.171  21.504  0.00  0.00    +0.000 A 
ATOM     16  N   UNL     1       2.524   2.978  21.960  0.00  0.00    +0.000 NA
ATOM     17  C   UNL     1       3.168   2.417  20.961  0.00  0.00    +0.000 A 
ENDBRANCH  12  13
ENDBRANCH  11  12
ENDBRANCH  10  11
ENDBRANCH   8  10
ENDBRANCH   4   8
BRANCH   1  18
ATOM     18  C   UNL     1       1.932   8.148  18.508  0.00  0.00    +0.000 C 
BRANCH  18  19
ATOM     19  O   UNL     1       1.814   7.955  19.920  0.00  0.00    +0.000 OA
BRANCH  19  23
ATOM     20  C   UNL     1      -0.125  10.818  22.281  0.00  0.00    +0.000 A 
ATOM     21  C   UNL     1       0.246   9.568  22.777  0.00  0.00    +0.000 A 
ATOM     22  C   UNL     1       0.892   8.640  21.954  0.00  0.00    +0.000 A 
ATOM     23  C   UNL     1       1.142   8.930  20.612  0.00  0.00    +0.000 A 
ATOM     24  C   UNL     1       0.757  10.174  20.109  0.00  0.00    +0.000 A 
ATOM     25  C   UNL     1       0.125  11.116  20.942  0.00  0.00    +0.000 A 
BRANCH  20  27
ATOM     26  C   UNL     1      -2.170  11.718  23.077  0.00  0.00    +0.000 C 
ATOM     27  O   UNL     1      -0.753  11.635  23.180  0.00  0.00    +0.000 OA
ENDBRANCH  20  27
ENDBRANCH  19  23
ENDBRANCH  18  19
ENDBRANCH   1  18
TORSDOF 10
ENDMDL
MODEL 9
REMARK VINA RESULT:      -6.6      1.222      1.410
REMARK  Name = 
REMARK  11 active torsions:
REMARK  status: ('A' for Active; 'I' for Inactive)
REMARK    1  A    between atoms: C_1  and  O_2
REMARK    2  A    between atoms: O_2  and  C_3
REMARK    3  A    between atoms: C_6  and  O_7
REMARK    4  A    between atoms: O_7  and  C_8
REMARK    5  A    between atoms: C_8  and  C_9
REMARK    6  A    between atoms: C_11  and  C_12
REMARK    7  A    between atoms: C_14  and  N_15
REMARK    8  A    between atoms: N_15  and  C_16
REMARK    9  A    between atoms: C_16  and  C_17
REMARK   10  A    between atoms: C_17  and  C_18
REMARK   11  A    between atoms: C_18  and  N_19
REMARK                            x       y       z     vdW  Elec       q    Type
REMARK                         _______ _______ _______ _____ _____    ______ ____
ROOT
ATOM      1  C   UNL     1       3.808   6.994  17.298  0.00  0.00    +0.000 A 
ATOM      2  N   UNL     1       5.009   7.113  16.756  0.00  0.00    +0.000 NA
ATOM      3  C   UNL     1       5.373   5.807  16.486  0.00  0.00    +0.000 A 
ATOM      4  C   UNL     1       4.380   4.937  16.880  0.00  0.00    +0.000 A 
ATOM      5  O   UNL     1       3.364   5.697  17.395  0.00  0.00    +0.000 OA
ENDROOT
BRANCH   3   6
ATOM      6  C   UNL     1       6.618   5.463  15.878  0.00  0.00    +0.000 C 
ATOM      7  N   UNL     1       7.610   5.188  15.342  0.00  0.00    +0.000 NA
ENDBRANCH   3   6
BRANCH   4   8
ATOM      8  N   UNL     1       4.248   3.590  16.926  0.00  0.00    +0.000 N 
ATOM      9  H   UNL     1       4.193   3.052  16.063  0.00  0.00    +0.000 HD
BRANCH   8  10
ATOM     10  C   UNL     1       3.699   2.923  18.098  0.00  0.00    +0.000 C 
BRANCH  10  11
ATOM     11  C   UNL     1       2.517   2.046  17.697  0.00  0.00    +0.000 C 
BRANCH  11  12
ATOM     12  C   UNL     1       1.290   2.345  18.555  0.00  0.00    +0.000 C 
BRANCH  12  13
ATOM     13  N   UNL     1       1.630   3.017  19.791  0.00  0.00    +0.000 N 
ATOM     14  C   UNL     1       2.018   2.425  20.958  0.00  0.00    +0.000 A 
ATOM     15  C   UNL     1       2.172   3.466  21.845  0.00  0.00    +0.000 A 
ATOM     16  N   UNL     1       1.886   4.664  21.244  0.00  0.00    +0.000 NA
ATOM     17  C   UNL     1       1.555   4.363  20.008  0.00  0.00    +0.000 A 
ENDBRANCH  12  13
ENDBRANCH  11  12
ENDBRANCH  10  11
ENDBRANCH   8  10
ENDBRANCH   4   8
BRANCH   1  18
ATOM     18  C   UNL     1       2.929   8.038  17.922  0.00  0.00    +0.000 C 
BRANCH  18  19
ATOM     19  O   UNL     1       2.490   7.550  19.192  0.00  0.00    +0.000 OA
BRANCH  19  23
ATOM     20  C   UNL     1      -0.229  10.122  21.069  0.00  0.00    +0.000 A 
ATOM     21  C   UNL     1       0.247  10.352  19.778  0.00  0.00    +0.000 A 
ATOM     22  C   UNL     1       1.155   9.467  19.187  0.00  0.00    +0.000 A 
ATOM     23  C   UNL     1       1.634   8.362  19.892  0.00  0.00    +0.000 A 
ATOM     24  C   UNL     1       1.171   8.138  21.190  0.00  0.00    +0.000 A 
ATOM     25  C   UNL     1       0.241   9.017  21.777  0.00  0.00    +0.000 A 
BRANCH  20  27
ATOM     26  C   UNL     1      -1.160  11.228  22.950  0.00  0.00    +0.000 C 
ATOM     27  O   UNL     1      -1.108  11.059  21.537  0.00  0.00    +0.000 OA
ENDBRANCH  20  27
ENDBRANCH  19  23
ENDBRANCH  18  19
ENDBRANCH   1  18
TORSDOF 10
ENDMDL
