MODEL 1
REMARK VINA RESULT:      -6.9      0.000      0.000
REMARK  Name = 
REMARK  15 active torsions:
REMARK  status: ('A' for Active; 'I' for Inactive)
REMARK    1  A    between atoms: C_1  and  C_2
REMARK    2  A    between atoms: C_2  and  O_3
REMARK    3  A    between atoms: O_3  and  C_4
REMARK    4  A    between atoms: C_4  and  C_5
REMARK    5  A    between atoms: C_4  and  C_16
REMARK    6  A    between atoms: C_4  and  C_22
REMARK    7  A    between atoms: C_5  and  O_7
REMARK    8  A    between atoms: O_7  and  C_8
REMARK    9  A    between atoms: C_8  and  C_9
REMARK   10  A    between atoms: C_9  and  C_10
REMARK   11  A    between atoms: C_10  and  N_11
REMARK   12  A    between atoms: N_11  and  C_12
REMARK   13  A    between atoms: N_11  and  C_14
REMARK   14  A    between atoms: C_12  and  C_13
REMARK   15  A    between atoms: C_14  and  C_15
REMARK                            x       y       z     vdW  Elec       q    Type
REMARK                         _______ _______ _______ _____ _____    ______ ____
ROOT
ATOM      1  C   UNL     1       4.640   5.525  17.650  0.00  0.00    +0.000 C 
ENDROOT
BRANCH   1   2
ATOM      2  C   UNL     1       3.597   6.541  18.181  0.00  0.00    +0.000 A 
ATOM      3  C   UNL     1       3.311   7.669  17.382  0.00  0.00    +0.000 A 
ATOM      4  C   UNL     1       2.432   8.659  17.826  0.00  0.00    +0.000 A 
ATOM      5  C   UNL     1       1.818   8.536  19.069  0.00  0.00    +0.000 A 
ATOM      6  C   UNL     1       2.076   7.419  19.867  0.00  0.00    +0.000 A 
ATOM      7  C   UNL     1       2.957   6.424  19.430  0.00  0.00    +0.000 A 
ENDBRANCH   1   2
BRANCH   1   8
ATOM      8  C   UNL     1       4.237   4.093  18.067  0.00  0.00    +0.000 A 
ATOM      9  C   UNL     1       4.673   3.581  19.310  0.00  0.00    +0.000 A 
ATOM     10  C   UNL     1       4.339   2.281  19.714  0.00  0.00    +0.000 A 
ATOM     11  C   UNL     1       3.546   1.476  18.899  0.00  0.00    +0.000 A 
ATOM     12  C   UNL     1       3.079   1.968  17.680  0.00  0.00    +0.000 A 
ATOM     13  C   UNL     1       3.420   3.259  17.262  0.00  0.00    +0.000 A 
ENDBRANCH   1   8
BRANCH   1  14
ATOM     14  C   UNL     1       6.087   5.780  18.141  0.00  0.00    +0.000 C 
ATOM     15  O   UNL     1       6.757   4.876  18.622  0.00  0.00    +0.000 OA
BRANCH  14  16
ATOM     16  O   UNL     1       6.628   7.021  18.038  0.00  0.00    +0.000 OA
BRANCH  16  17
ATOM     17  C   UNL     1       7.975   7.338  18.083  0.00  0.00    +0.000 C 
BRANCH  17  18
ATOM     18  C   UNL     1       8.078   8.859  17.926  0.00  0.00    +0.000 C 
BRANCH  18  19
ATOM     19  C   UNL     1       8.943   9.571  18.964  0.00  0.00    +0.000 C 
BRANCH  19  20
ATOM     20  N   UNL     1       9.531  10.829  18.420  0.00  0.00    +0.000 NA
BRANCH  20  21
ATOM     21  C   UNL     1       8.550  11.745  17.767  0.00  0.00    +0.000 C 
ATOM     22  C   UNL     1       8.950  13.221  17.813  0.00  0.00    +0.000 C 
ENDBRANCH  20  21
BRANCH  20  23
ATOM     23  C   UNL     1      10.372  11.465  19.460  0.00  0.00    +0.000 C 
ATOM     24  C   UNL     1      11.860  11.533  19.102  0.00  0.00    +0.000 C 
ENDBRANCH  20  23
ENDBRANCH  19  20
ENDBRANCH  18  19
ENDBRANCH  17  18
ENDBRANCH  16  17
ENDBRANCH  14  16
ENDBRANCH   1  14
BRANCH   1  25
ATOM     25  O   UNL     1       4.619   5.547  16.212  0.00  0.00    +0.000 OA
BRANCH  25  27
ATOM     26  C   UNL     1       5.698   4.292  14.449  0.00  0.00    +0.000 C 
ATOM     27  C   UNL     1       5.874   5.291  15.585  0.00  0.00    +0.000 C 
ENDBRANCH  25  27
ENDBRANCH   1  25
TORSDOF 12
ENDMDL
MODEL 2
REMARK VINA RESULT:      -6.8      2.940      6.535
REMARK  Name = 
REMARK  15 active torsions:
REMARK  status: ('A' for Active; 'I' for Inactive)
REMARK    1  A    between atoms: C_1  and  C_2
REMARK    2  A    between atoms: C_2  and  O_3
REMARK    3  A    between atoms: O_3  and  C_4
REMARK    4  A    between atoms: C_4  and  C_5
REMARK    5  A    between atoms: C_4  and  C_16
REMARK    6  A    between atoms: C_4  and  C_22
REMARK    7  A    between atoms: C_5  and  O_7
REMARK    8  A    between atoms: O_7  and  C_8
REMARK    9  A    between atoms: C_8  and  C_9
REMARK   10  A    between atoms: C_9  and  C_10
REMARK   11  A    between atoms: C_10  and  N_11
REMARK   12  A    between atoms: N_11  and  C_12
REMARK   13  A    between atoms: N_11  and  C_14
REMARK   14  A    between atoms: C_12  and  C_13
REMARK   15  A    between atoms: C_14  and  C_15
REMARK                            x       y       z     vdW  Elec       q    Type
REMARK                         _______ _______ _______ _____ _____    ______ ____
ROOT
ATOM      1  C   UNL     1       6.363   5.556  16.437  0.00  0.00    +0.000 C 
ENDROOT
BRANCH   1   2
ATOM      2  C   UNL     1       4.898   5.862  16.840  0.00  0.00    +0.000 A 
ATOM      3  C   UNL     1       4.577   7.190  17.194  0.00  0.00    +0.000 A 
ATOM      4  C   UNL     1       3.293   7.526  17.631  0.00  0.00    +0.000 A 
ATOM      5  C   UNL     1       2.309   6.545  17.714  0.00  0.00    +0.000 A 
ATOM      6  C   UNL     1       2.604   5.229  17.352  0.00  0.00    +0.000 A 
ATOM      7  C   UNL     1       3.887   4.884  16.915  0.00  0.00    +0.000 A 
ENDBRANCH   1   2
BRANCH   1   8
ATOM      8  C   UNL     1       6.405   4.997  14.997  0.00  0.00    +0.000 A 
ATOM      9  C   UNL     1       7.445   5.395  14.126  0.00  0.00    +0.000 A 
ATOM     10  C   UNL     1       7.505   4.920  12.809  0.00  0.00    +0.000 A 
ATOM     11  C   UNL     1       6.547   4.023  12.342  0.00  0.00    +0.000 A 
ATOM     12  C   UNL     1       5.527   3.592  13.191  0.00  0.00    +0.000 A 
ATOM     13  C   UNL     1       5.450   4.073  14.503  0.00  0.00    +0.000 A 
ENDBRANCH   1   8
BRANCH   1  14
ATOM     14  C   UNL     1       7.084   4.548  17.367  0.00  0.00    +0.000 C 
ATOM     15  O   UNL     1       8.224   4.174  17.126  0.00  0.00    +0.000 OA
BRANCH  14  16
ATOM     16  O   UNL     1       6.450   4.070  18.468  0.00  0.00    +0.000 OA
BRANCH  16  17
ATOM     17  C   UNL     1       6.158   4.776  19.621  0.00  0.00    +0.000 C 
BRANCH  17  18
ATOM     18  C   UNL     1       4.746   4.361  20.050  0.00  0.00    +0.000 C 
BRANCH  18  19
ATOM     19  C   UNL     1       4.421   2.877  19.901  0.00  0.00    +0.000 C 
BRANCH  19  20
ATOM     20  N   UNL     1       3.045   2.563  20.382  0.00  0.00    +0.000 NA
BRANCH  20  21
ATOM     21  C   UNL     1       2.372   3.675  21.113  0.00  0.00    +0.000 C 
ATOM     22  C   UNL     1       1.055   4.129  20.481  0.00  0.00    +0.000 C 
ENDBRANCH  20  21
BRANCH  20  23
ATOM     23  C   UNL     1       2.257   1.990  19.267  0.00  0.00    +0.000 C 
ATOM     24  C   UNL     1       3.083   1.678  18.015  0.00  0.00    +0.000 C 
ENDBRANCH  20  23
ENDBRANCH  19  20
ENDBRANCH  18  19
ENDBRANCH  17  18
ENDBRANCH  16  17
ENDBRANCH  14  16
ENDBRANCH   1  14
BRANCH   1  25
ATOM     25  O   UNL     1       7.105   6.788  16.412  0.00  0.00    +0.000 OA
BRANCH  25  27
ATOM     26  C   UNL     1       7.936   8.682  17.664  0.00  0.00    +0.000 C 
ATOM     27  C   UNL     1       7.661   7.184  17.664  0.00  0.00    +0.000 C 
ENDBRANCH  25  27
ENDBRANCH   1  25
TORSDOF 12
ENDMDL
MODEL 3
REMARK VINA RESULT:      -6.8      0.784      1.633
REMARK  Name = 
REMARK  15 active torsions:
REMARK  status: ('A' for Active; 'I' for Inactive)
REMARK    1  A    between atoms: C_1  and  C_2
REMARK    2  A    between atoms: C_2  and  O_3
REMARK    3  A    between atoms: O_3  and  C_4
REMARK    4  A    between atoms: C_4  and  C_5
REMARK    5  A    between atoms: C_4  and  C_16
REMARK    6  A    between atoms: C_4  and  C_22
REMARK    7  A    between atoms: C_5  and  O_7
REMARK    8  A    between atoms: O_7  and  C_8
REMARK    9  A    between atoms: C_8  and  C_9
REMARK   10  A    between atoms: C_9  and  C_10
REMARK   11  A    between atoms: C_10  and  N_11
REMARK   12  A    between atoms: N_11  and  C_12
REMARK   13  A    between atoms: N_11  and  C_14
REMARK   14  A    between atoms: C_12  and  C_13
REMARK   15  A    between atoms: C_14  and  C_15
REMARK                            x       y       z     vdW  Elec       q    Type
REMARK                         _______ _______ _______ _____ _____    ______ ____
ROOT
ATOM      1  C   UNL     1       4.779   5.398  17.606  0.00  0.00    +0.000 C 
ENDROOT
BRANCH   1   2
ATOM      2  C   UNL     1       3.800   6.504  18.077  0.00  0.00    +0.000 A 
ATOM      3  C   UNL     1       3.142   6.318  19.312  0.00  0.00    +0.000 A 
ATOM      4  C   UNL     1       2.197   7.239  19.769  0.00  0.00    +0.000 A 
ATOM      5  C   UNL     1       1.901   8.365  19.005  0.00  0.00    +0.000 A 
ATOM      6  C   UNL     1       2.553   8.575  17.789  0.00  0.00    +0.000 A 
ATOM      7  C   UNL     1       3.499   7.655  17.323  0.00  0.00    +0.000 A 
ENDBRANCH   1   2
BRANCH   1   8
ATOM      8  C   UNL     1       4.277   4.017  18.083  0.00  0.00    +0.000 A 
ATOM      9  C   UNL     1       3.398   3.274  17.261  0.00  0.00    +0.000 A 
ATOM     10  C   UNL     1       2.911   2.025  17.668  0.00  0.00    +0.000 A 
ATOM     11  C   UNL     1       3.306   1.481  18.888  0.00  0.00    +0.000 A 
ATOM     12  C   UNL     1       4.195   2.181  19.704  0.00  0.00    +0.000 A 
ATOM     13  C   UNL     1       4.675   3.436  19.313  0.00  0.00    +0.000 A 
ENDBRANCH   1   8
BRANCH   1  14
ATOM     14  C   UNL     1       6.234   5.580  18.105  0.00  0.00    +0.000 C 
ATOM     15  O   UNL     1       6.957   4.612  18.304  0.00  0.00    +0.000 OA
BRANCH  14  16
ATOM     16  O   UNL     1       6.724   6.827  18.325  0.00  0.00    +0.000 OA
BRANCH  16  17
ATOM     17  C   UNL     1       7.601   7.522  17.510  0.00  0.00    +0.000 C 
BRANCH  17  18
ATOM     18  C   UNL     1       8.432   8.429  18.425  0.00  0.00    +0.000 C 
BRANCH  18  19
ATOM     19  C   UNL     1       8.409   9.915  18.077  0.00  0.00    +0.000 C 
BRANCH  19  20
ATOM     20  N   UNL     1       9.558  10.642  18.690  0.00  0.00    +0.000 NA
BRANCH  20  21
ATOM     21  C   UNL     1      10.527  11.215  17.711  0.00  0.00    +0.000 C 
ATOM     22  C   UNL     1      11.148  12.542  18.152  0.00  0.00    +0.000 C 
ENDBRANCH  20  21
BRANCH  20  23
ATOM     23  C   UNL     1       9.048  11.606  19.691  0.00  0.00    +0.000 C 
ATOM     24  C   UNL     1       9.371  11.229  21.141  0.00  0.00    +0.000 C 
ENDBRANCH  20  23
ENDBRANCH  19  20
ENDBRANCH  18  19
ENDBRANCH  17  18
ENDBRANCH  16  17
ENDBRANCH  14  16
ENDBRANCH   1  14
BRANCH   1  25
ATOM     25  O   UNL     1       4.774   5.355  16.169  0.00  0.00    +0.000 OA
BRANCH  25  27
ATOM     26  C   UNL     1       5.727   4.209  14.265  0.00  0.00    +0.000 C 
ATOM     27  C   UNL     1       6.001   4.940  15.573  0.00  0.00    +0.000 C 
ENDBRANCH  25  27
ENDBRANCH   1  25
TORSDOF 12
ENDMDL
MODEL 4
REMARK VINA RESULT:      -6.7      0.632      1.633
REMARK  Name = 
REMARK  15 active torsions:
REMARK  status: ('A' for Active; 'I' for Inactive)
REMARK    1  A    between atoms: C_1  and  C_2
REMARK    2  A    between atoms: C_2  and  O_3
REMARK    3  A    between atoms: O_3  and  C_4
REMARK    4  A    between atoms: C_4  and  C_5
REMARK    5  A    between atoms: C_4  and  C_16
REMARK    6  A    between atoms: C_4  and  C_22
REMARK    7  A    between atoms: C_5  and  O_7
REMARK    8  A    between atoms: O_7  and  C_8
REMARK    9  A    between atoms: C_8  and  C_9
REMARK   10  A    between atoms: C_9  and  C_10
REMARK   11  A    between atoms: C_10  and  N_11
REMARK   12  A    between atoms: N_11  and  C_12
REMARK   13  A    between atoms: N_11  and  C_14
REMARK   14  A    between atoms: C_12  and  C_13
REMARK   15  A    between atoms: C_14  and  C_15
REMARK                            x       y       z     vdW  Elec       q    Type
REMARK                         _______ _______ _______ _____ _____    ______ ____
ROOT
ATOM      1  C   UNL     1       4.709   5.397  17.678  0.00  0.00    +0.000 C 
ENDROOT
BRANCH   1   2
ATOM      2  C   UNL     1       3.682   6.460  18.144  0.00  0.00    +0.000 A 
ATOM      3  C   UNL     1       3.436   7.556  17.289  0.00  0.00    +0.000 A 
ATOM      4  C   UNL     1       2.573   8.586  17.671  0.00  0.00    +0.000 A 
ATOM      5  C   UNL     1       1.936   8.534  18.908  0.00  0.00    +0.000 A 
ATOM      6  C   UNL     1       2.154   7.449  19.761  0.00  0.00    +0.000 A 
ATOM      7  C   UNL     1       3.018   6.415  19.385  0.00  0.00    +0.000 A 
ENDBRANCH   1   2
BRANCH   1   8
ATOM      8  C   UNL     1       4.207   3.984  18.051  0.00  0.00    +0.000 A 
ATOM      9  C   UNL     1       3.261   3.340  17.221  0.00  0.00    +0.000 A 
ATOM     10  C   UNL     1       2.772   2.065  17.537  0.00  0.00    +0.000 A 
ATOM     11  C   UNL     1       3.233   1.399  18.671  0.00  0.00    +0.000 A 
ATOM     12  C   UNL     1       4.188   2.000  19.489  0.00  0.00    +0.000 A 
ATOM     13  C   UNL     1       4.671   3.279  19.190  0.00  0.00    +0.000 A 
ENDBRANCH   1   8
BRANCH   1  14
ATOM     14  C   UNL     1       6.128   5.577  18.273  0.00  0.00    +0.000 C 
ATOM     15  O   UNL     1       6.793   4.609  18.618  0.00  0.00    +0.000 OA
BRANCH  14  16
ATOM     16  O   UNL     1       6.650   6.822  18.415  0.00  0.00    +0.000 OA
BRANCH  16  17
ATOM     17  C   UNL     1       7.390   7.517  17.473  0.00  0.00    +0.000 C 
BRANCH  17  18
ATOM     18  C   UNL     1       8.320   8.459  18.247  0.00  0.00    +0.000 C 
BRANCH  18  19
ATOM     19  C   UNL     1       8.459   9.865  17.670  0.00  0.00    +0.000 C 
BRANCH  19  20
ATOM     20  N   UNL     1       8.699  10.877  18.739  0.00  0.00    +0.000 NA
BRANCH  20  21
ATOM     21  C   UNL     1       9.689  10.465  19.776  0.00  0.00    +0.000 C 
ATOM     22  C   UNL     1      10.565  11.609  20.291  0.00  0.00    +0.000 C 
ENDBRANCH  20  21
BRANCH  20  23
ATOM     23  C   UNL     1       8.969  12.193  18.115  0.00  0.00    +0.000 C 
ATOM     24  C   UNL     1       7.855  12.681  17.183  0.00  0.00    +0.000 C 
ENDBRANCH  20  23
ENDBRANCH  19  20
ENDBRANCH  18  19
ENDBRANCH  17  18
ENDBRANCH  16  17
ENDBRANCH  14  16
ENDBRANCH   1  14
BRANCH   1  25
ATOM     25  O   UNL     1       4.792   5.429  16.242  0.00  0.00    +0.000 OA
BRANCH  25  27
ATOM     26  C   UNL     1       5.617   4.242  14.304  0.00  0.00    +0.000 C 
ATOM     27  C   UNL     1       5.939   4.789  15.688  0.00  0.00    +0.000 C 
ENDBRANCH  25  27
ENDBRANCH   1  25
TORSDOF 12
ENDMDL
MODEL 5
REMARK VINA RESULT:      -6.7      3.742      7.229
REMARK  Name = 
REMARK  15 active torsions:
REMARK  status: ('A' for Active; 'I' for Inactive)
REMARK    1  A    between atoms: C_1  and  C_2
REMARK    2  A    between atoms: C_2  and  O_3
REMARK    3  A    between atoms: O_3  and  C_4
REMARK    4  A    between atoms: C_4  and  C_5
REMARK    5  A    between atoms: C_4  and  C_16
REMARK    6  A    between atoms: C_4  and  C_22
REMARK    7  A    between atoms: C_5  and  O_7
REMARK    8  A    between atoms: O_7  and  C_8
REMARK    9  A    between atoms: C_8  and  C_9
REMARK   10  A    between atoms: C_9  and  C_10
REMARK   11  A    between atoms: C_10  and  N_11
REMARK   12  A    between atoms: N_11  and  C_12
REMARK   13  A    between atoms: N_11  and  C_14
REMARK   14  A    between atoms: C_12  and  C_13
REMARK   15  A    between atoms: C_14  and  C_15
REMARK                            x       y       z     vdW  Elec       q    Type
REMARK                         _______ _______ _______ _____ _____    ______ ____
ROOT
ATOM      1  C   UNL     1       4.047   5.637  18.260  0.00  0.00    +0.000 C 
ENDROOT
BRANCH   1   2
ATOM      2  C   UNL     1       3.254   4.308  18.361  0.00  0.00    +0.000 A 
ATOM      3  C   UNL     1       1.879   4.338  18.046  0.00  0.00    +0.000 A 
ATOM      4  C   UNL     1       1.087   3.195  18.178  0.00  0.00    +0.000 A 
ATOM      5  C   UNL     1       1.657   2.003  18.618  0.00  0.00    +0.000 A 
ATOM      6  C   UNL     1       3.019   1.951  18.920  0.00  0.00    +0.000 A 
ATOM      7  C   UNL     1       3.819   3.092  18.792  0.00  0.00    +0.000 A 
ENDBRANCH   1   2
BRANCH   1   8
ATOM      8  C   UNL     1       3.121   6.826  18.601  0.00  0.00    +0.000 A 
ATOM      9  C   UNL     1       2.710   7.706  17.573  0.00  0.00    +0.000 A 
ATOM     10  C   UNL     1       1.884   8.803  17.849  0.00  0.00    +0.000 A 
ATOM     11  C   UNL     1       1.433   9.033  19.147  0.00  0.00    +0.000 A 
ATOM     12  C   UNL     1       1.801   8.163  20.174  0.00  0.00    +0.000 A 
ATOM     13  C   UNL     1       2.638   7.073  19.911  0.00  0.00    +0.000 A 
ENDBRANCH   1   8
BRANCH   1  14
ATOM     14  C   UNL     1       4.676   5.900  16.869  0.00  0.00    +0.000 C 
ATOM     15  O   UNL     1       5.234   6.961  16.621  0.00  0.00    +0.000 OA
BRANCH  14  16
ATOM     16  O   UNL     1       4.614   4.944  15.906  0.00  0.00    +0.000 OA
BRANCH  16  17
ATOM     17  C   UNL     1       5.689   4.322  15.294  0.00  0.00    +0.000 C 
BRANCH  17  18
ATOM     18  C   UNL     1       5.448   4.406  13.783  0.00  0.00    +0.000 C 
BRANCH  18  19
ATOM     19  C   UNL     1       6.277   3.449  12.930  0.00  0.00    +0.000 C 
BRANCH  19  20
ATOM     20  N   UNL     1       5.617   3.162  11.624  0.00  0.00    +0.000 NA
BRANCH  20  21
ATOM     21  C   UNL     1       6.023   1.874  10.990  0.00  0.00    +0.000 C 
ATOM     22  C   UNL     1       7.521   1.578  11.083  0.00  0.00    +0.000 C 
ENDBRANCH  20  21
BRANCH  20  23
ATOM     23  C   UNL     1       4.155   3.348  11.765  0.00  0.00    +0.000 C 
ATOM     24  C   UNL     1       3.382   3.234  10.446  0.00  0.00    +0.000 C 
ENDBRANCH  20  23
ENDBRANCH  19  20
ENDBRANCH  18  19
ENDBRANCH  17  18
ENDBRANCH  16  17
ENDBRANCH  14  16
ENDBRANCH   1  14
BRANCH   1  25
ATOM     25  O   UNL     1       5.085   5.636  19.255  0.00  0.00    +0.000 OA
BRANCH  25  27
ATOM     26  C   UNL     1       7.490   5.663  19.505  0.00  0.00    +0.000 C 
ATOM     27  C   UNL     1       6.288   4.973  18.873  0.00  0.00    +0.000 C 
ENDBRANCH  25  27
ENDBRANCH   1  25
TORSDOF 12
ENDMDL
MODEL 6
REMARK VINA RESULT:      -6.7      0.841      1.896
REMARK  Name = 
REMARK  15 active torsions:
REMARK  status: ('A' for Active; 'I' for Inactive)
REMARK    1  A    between atoms: C_1  and  C_2
REMARK    2  A    between atoms: C_2  and  O_3
REMARK    3  A    between atoms: O_3  and  C_4
REMARK    4  A    between atoms: C_4  and  C_5
REMARK    5  A    between atoms: C_4  and  C_16
REMARK    6  A    between atoms: C_4  and  C_22
REMARK    7  A    between atoms: C_5  and  O_7
REMARK    8  A    between atoms: O_7  and  C_8
REMARK    9  A    between atoms: C_8  and  C_9
REMARK   10  A    between atoms: C_9  and  C_10
REMARK   11  A    between atoms: C_10  and  N_11
REMARK   12  A    between atoms: N_11  and  C_12
REMARK   13  A    between atoms: N_11  and  C_14
REMARK   14  A    between atoms: C_12  and  C_13
REMARK   15  A    between atoms: C_14  and  C_15
REMARK                            x       y       z     vdW  Elec       q    Type
REMARK                         _______ _______ _______ _____ _____    ______ ____
ROOT
ATOM      1  C   UNL     1       4.631   5.358  17.658  0.00  0.00    +0.000 C 
ENDROOT
BRANCH   1   2
ATOM      2  C   UNL     1       3.683   6.502  18.102  0.00  0.00    +0.000 A 
ATOM      3  C   UNL     1       3.037   6.373  19.351  0.00  0.00    +0.000 A 
ATOM      4  C   UNL     1       2.120   7.331  19.787  0.00  0.00    +0.000 A 
ATOM      5  C   UNL     1       1.838   8.436  18.988  0.00  0.00    +0.000 A 
ATOM      6  C   UNL     1       2.479   8.589  17.757  0.00  0.00    +0.000 A 
ATOM      7  C   UNL     1       3.399   7.633  17.313  0.00  0.00    +0.000 A 
ENDBRANCH   1   2
BRANCH   1   8
ATOM      8  C   UNL     1       4.021   3.992  18.045  0.00  0.00    +0.000 A 
ATOM      9  C   UNL     1       2.946   3.471  17.290  0.00  0.00    +0.000 A 
ATOM     10  C   UNL     1       2.358   2.243  17.621  0.00  0.00    +0.000 A 
ATOM     11  C   UNL     1       2.844   1.500  18.695  0.00  0.00    +0.000 A 
ATOM     12  C   UNL     1       3.923   1.979  19.438  0.00  0.00    +0.000 A 
ATOM     13  C   UNL     1       4.507   3.211  19.124  0.00  0.00    +0.000 A 
ENDBRANCH   1   8
BRANCH   1  14
ATOM     14  C   UNL     1       6.055   5.439  18.263  0.00  0.00    +0.000 C 
ATOM     15  O   UNL     1       6.629   4.433  18.658  0.00  0.00    +0.000 OA
BRANCH  14  16
ATOM     16  O   UNL     1       6.683   6.639  18.359  0.00  0.00    +0.000 OA
BRANCH  16  17
ATOM     17  C   UNL     1       7.660   7.126  17.509  0.00  0.00    +0.000 C 
BRANCH  17  18
ATOM     18  C   UNL     1       8.356   8.276  18.245  0.00  0.00    +0.000 C 
BRANCH  18  19
ATOM     19  C   UNL     1       8.112   9.670  17.671  0.00  0.00    +0.000 C 
BRANCH  19  20
ATOM     20  N   UNL     1       8.603  10.737  18.589  0.00  0.00    +0.000 NA
BRANCH  20  21
ATOM     21  C   UNL     1       9.437  10.248  19.725  0.00  0.00    +0.000 C 
ATOM     22  C   UNL     1       9.527  11.225  20.898  0.00  0.00    +0.000 C 
ENDBRANCH  20  21
BRANCH  20  23
ATOM     23  C   UNL     1       9.220  11.822  17.791  0.00  0.00    +0.000 C 
ATOM     24  C   UNL     1       8.276  12.992  17.494  0.00  0.00    +0.000 C 
ENDBRANCH  20  23
ENDBRANCH  19  20
ENDBRANCH  18  19
ENDBRANCH  17  18
ENDBRANCH  16  17
ENDBRANCH  14  16
ENDBRANCH   1  14
BRANCH   1  25
ATOM     25  O   UNL     1       4.727   5.365  16.224  0.00  0.00    +0.000 OA
BRANCH  25  27
ATOM     26  C   UNL     1       6.339   4.930  14.474  0.00  0.00    +0.000 C 
ATOM     27  C   UNL     1       5.581   4.367  15.670  0.00  0.00    +0.000 C 
ENDBRANCH  25  27
ENDBRANCH   1  25
TORSDOF 12
ENDMDL
MODEL 7
REMARK VINA RESULT:      -6.7      3.285      6.767
REMARK  Name = 
REMARK  15 active torsions:
REMARK  status: ('A' for Active; 'I' for Inactive)
REMARK    1  A    between atoms: C_1  and  C_2
REMARK    2  A    between atoms: C_2  and  O_3
REMARK    3  A    between atoms: O_3  and  C_4
REMARK    4  A    between atoms: C_4  and  C_5
REMARK    5  A    between atoms: C_4  and  C_16
REMARK    6  A    between atoms: C_4  and  C_22
REMARK    7  A    between atoms: C_5  and  O_7
REMARK    8  A    between atoms: O_7  and  C_8
REMARK    9  A    between atoms: C_8  and  C_9
REMARK   10  A    between atoms: C_9  and  C_10
REMARK   11  A    between atoms: C_10  and  N_11
REMARK   12  A    between atoms: N_11  and  C_12
REMARK   13  A    between atoms: N_11  and  C_14
REMARK   14  A    between atoms: C_12  and  C_13
REMARK   15  A    between atoms: C_14  and  C_15
REMARK                            x       y       z     vdW  Elec       q    Type
REMARK                         _______ _______ _______ _____ _____    ______ ____
ROOT
ATOM      1  C   UNL     1       4.126   5.333  18.503  0.00  0.00    +0.000 C 
ENDROOT
BRANCH   1   2
ATOM      2  C   UNL     1       3.135   6.505  18.718  0.00  0.00    +0.000 A 
ATOM      3  C   UNL     1       2.956   7.417  17.655  0.00  0.00    +0.000 A 
ATOM      4  C   UNL     1       2.129   8.534  17.799  0.00  0.00    +0.000 A 
ATOM      5  C   UNL     1       1.462   8.753  19.001  0.00  0.00    +0.000 A 
ATOM      6  C   UNL     1       1.614   7.853  20.058  0.00  0.00    +0.000 A 
ATOM      7  C   UNL     1       2.442   6.733  19.922  0.00  0.00    +0.000 A 
ENDBRANCH   1   2
BRANCH   1   8
ATOM      8  C   UNL     1       5.574   5.873  18.457  0.00  0.00    +0.000 A 
ATOM      9  C   UNL     1       6.553   5.313  19.309  0.00  0.00    +0.000 A 
ATOM     10  C   UNL     1       7.871   5.788  19.304  0.00  0.00    +0.000 A 
ATOM     11  C   UNL     1       8.245   6.812  18.436  0.00  0.00    +0.000 A 
ATOM     12  C   UNL     1       7.304   7.361  17.565  0.00  0.00    +0.000 A 
ATOM     13  C   UNL     1       5.982   6.904  17.573  0.00  0.00    +0.000 A 
ENDBRANCH   1   8
BRANCH   1  14
ATOM     14  C   UNL     1       3.876   4.513  17.213  0.00  0.00    +0.000 C 
ATOM     15  O   UNL     1       2.741   4.209  16.871  0.00  0.00    +0.000 OA
BRANCH  14  16
ATOM     16  O   UNL     1       4.925   4.124  16.443  0.00  0.00    +0.000 OA
BRANCH  16  17
ATOM     17  C   UNL     1       5.316   4.686  15.240  0.00  0.00    +0.000 C 
BRANCH  17  18
ATOM     18  C   UNL     1       5.752   3.531  14.332  0.00  0.00    +0.000 C 
BRANCH  18  19
ATOM     19  C   UNL     1       6.362   3.940  12.993  0.00  0.00    +0.000 C 
BRANCH  19  20
ATOM     20  N   UNL     1       5.691   3.255  11.851  0.00  0.00    +0.000 NA
BRANCH  20  21
ATOM     21  C   UNL     1       6.109   1.838  11.642  0.00  0.00    +0.000 C 
ATOM     22  C   UNL     1       7.429   1.683  10.884  0.00  0.00    +0.000 C 
ENDBRANCH  20  21
BRANCH  20  23
ATOM     23  C   UNL     1       4.228   3.460  11.949  0.00  0.00    +0.000 C 
ATOM     24  C   UNL     1       3.483   3.284  10.621  0.00  0.00    +0.000 C 
ENDBRANCH  20  23
ENDBRANCH  19  20
ENDBRANCH  18  19
ENDBRANCH  17  18
ENDBRANCH  16  17
ENDBRANCH  14  16
ENDBRANCH   1  14
BRANCH   1  25
ATOM     25  O   UNL     1       4.060   4.455  19.640  0.00  0.00    +0.000 OA
BRANCH  25  27
ATOM     26  C   UNL     1       2.338   2.939  20.404  0.00  0.00    +0.000 C 
ATOM     27  C   UNL     1       3.449   3.191  19.393  0.00  0.00    +0.000 C 
ENDBRANCH  25  27
ENDBRANCH   1  25
TORSDOF 12
ENDMDL
MODEL 8
REMARK VINA RESULT:      -6.7      3.701      7.136
REMARK  Name = 
REMARK  15 active torsions:
REMARK  status: ('A' for Active; 'I' for Inactive)
REMARK    1  A    between atoms: C_1  and  C_2
REMARK    2  A    between atoms: C_2  and  O_3
REMARK    3  A    between atoms: O_3  and  C_4
REMARK    4  A    between atoms: C_4  and  C_5
REMARK    5  A    between atoms: C_4  and  C_16
REMARK    6  A    between atoms: C_4  and  C_22
REMARK    7  A    between atoms: C_5  and  O_7
REMARK    8  A    between atoms: O_7  and  C_8
REMARK    9  A    between atoms: C_8  and  C_9
REMARK   10  A    between atoms: C_9  and  C_10
REMARK   11  A    between atoms: C_10  and  N_11
REMARK   12  A    between atoms: N_11  and  C_12
REMARK   13  A    between atoms: N_11  and  C_14
REMARK   14  A    between atoms: C_12  and  C_13
REMARK   15  A    between atoms: C_14  and  C_15
REMARK                            x       y       z     vdW  Elec       q    Type
REMARK                         _______ _______ _______ _____ _____    ______ ____
ROOT
ATOM      1  C   UNL     1       4.180   5.529  18.054  0.00  0.00    +0.000 C 
ENDROOT
BRANCH   1   2
ATOM      2  C   UNL     1       3.446   4.181  18.277  0.00  0.00    +0.000 A 
ATOM      3  C   UNL     1       2.074   4.118  17.952  0.00  0.00    +0.000 A 
ATOM      4  C   UNL     1       1.333   2.958  18.187  0.00  0.00    +0.000 A 
ATOM      5  C   UNL     1       1.951   1.841  18.744  0.00  0.00    +0.000 A 
ATOM      6  C   UNL     1       3.311   1.879  19.058  0.00  0.00    +0.000 A 
ATOM      7  C   UNL     1       4.059   3.038  18.826  0.00  0.00    +0.000 A 
ENDBRANCH   1   2
BRANCH   1   8
ATOM      8  C   UNL     1       3.239   6.702  18.409  0.00  0.00    +0.000 A 
ATOM      9  C   UNL     1       2.936   7.673  17.428  0.00  0.00    +0.000 A 
ATOM     10  C   UNL     1       2.100   8.759  17.719  0.00  0.00    +0.000 A 
ATOM     11  C   UNL     1       1.531   8.886  18.984  0.00  0.00    +0.000 A 
ATOM     12  C   UNL     1       1.790   7.926  19.962  0.00  0.00    +0.000 A 
ATOM     13  C   UNL     1       2.637   6.846  19.685  0.00  0.00    +0.000 A 
ENDBRANCH   1   8
BRANCH   1  14
ATOM     14  C   UNL     1       4.694   5.744  16.609  0.00  0.00    +0.000 C 
ATOM     15  O   UNL     1       4.920   6.868  16.183  0.00  0.00    +0.000 OA
BRANCH  14  16
ATOM     16  O   UNL     1       4.900   4.675  15.798  0.00  0.00    +0.000 OA
BRANCH  16  17
ATOM     17  C   UNL     1       6.092   4.322  15.189  0.00  0.00    +0.000 C 
BRANCH  17  18
ATOM     18  C   UNL     1       5.884   4.484  13.679  0.00  0.00    +0.000 C 
BRANCH  18  19
ATOM     19  C   UNL     1       6.355   3.313  12.820  0.00  0.00    +0.000 C 
BRANCH  19  20
ATOM     20  N   UNL     1       5.222   2.675  12.090  0.00  0.00    +0.000 NA
BRANCH  20  21
ATOM     21  C   UNL     1       4.214   3.631  11.546  0.00  0.00    +0.000 C 
ATOM     22  C   UNL     1       3.338   3.048  10.435  0.00  0.00    +0.000 C 
ENDBRANCH  20  21
BRANCH  20  23
ATOM     23  C   UNL     1       5.758   1.713  11.100  0.00  0.00    +0.000 C 
ATOM     24  C   UNL     1       7.288   1.679  11.029  0.00  0.00    +0.000 C 
ENDBRANCH  20  23
ENDBRANCH  19  20
ENDBRANCH  18  19
ENDBRANCH  17  18
ENDBRANCH  16  17
ENDBRANCH  14  16
ENDBRANCH   1  14
BRANCH   1  25
ATOM     25  O   UNL     1       5.288   5.611  18.967  0.00  0.00    +0.000 OA
BRANCH  25  27
ATOM     26  C   UNL     1       7.688   5.324  18.885  0.00  0.00    +0.000 C 
ATOM     27  C   UNL     1       6.490   6.138  18.411  0.00  0.00    +0.000 C 
ENDBRANCH  25  27
ENDBRANCH   1  25
TORSDOF 12
ENDMDL
MODEL 9
REMARK VINA RESULT:      -6.6      0.957      1.090
REMARK  Name = 
REMARK  15 active torsions:
REMARK  status: ('A' for Active; 'I' for Inactive)
REMARK    1  A    between atoms: C_1  and  C_2
REMARK    2  A    between atoms: C_2  and  O_3
REMARK    3  A    between atoms: O_3  and  C_4
REMARK    4  A    between atoms: C_4  and  C_5
REMARK    5  A    between atoms: C_4  and  C_16
REMARK    6  A    between atoms: C_4  and  C_22
REMARK    7  A    between atoms: C_5  and  O_7
REMARK    8  A    between atoms: O_7  and  C_8
REMARK    9  A    between atoms: C_8  and  C_9
REMARK   10  A    between atoms: C_9  and  C_10
REMARK   11  A    between atoms: C_10  and  N_11
REMARK   12  A    between atoms: N_11  and  C_12
REMARK   13  A    between atoms: N_11  and  C_14
REMARK   14  A    between atoms: C_12  and  C_13
REMARK   15  A    between atoms: C_14  and  C_15
REMARK                            x       y       z     vdW  Elec       q    Type
REMARK                         _______ _______ _______ _____ _____    ______ ____
ROOT
ATOM      1  C   UNL     1       4.249   5.682  17.905  0.00  0.00    +0.000 C 
ENDROOT
BRANCH   1   2
ATOM      2  C   UNL     1       3.269   6.805  18.331  0.00  0.00    +0.000 A 
ATOM      3  C   UNL     1       2.994   7.826  17.396  0.00  0.00    +0.000 A 
ATOM      4  C   UNL     1       2.173   8.905  17.732  0.00  0.00    +0.000 A 
ATOM      5  C   UNL     1       1.609   8.978  19.003  0.00  0.00    +0.000 A 
ATOM      6  C   UNL     1       1.857   7.969  19.936  0.00  0.00    +0.000 A 
ATOM      7  C   UNL     1       2.679   6.886  19.607  0.00  0.00    +0.000 A 
ENDBRANCH   1   2
BRANCH   1   8
ATOM      8  C   UNL     1       3.623   4.300  18.202  0.00  0.00    +0.000 A 
ATOM      9  C   UNL     1       4.395   3.312  18.855  0.00  0.00    +0.000 A 
ATOM     10  C   UNL     1       3.866   2.044  19.127  0.00  0.00    +0.000 A 
ATOM     11  C   UNL     1       2.551   1.743  18.775  0.00  0.00    +0.000 A 
ATOM     12  C   UNL     1       1.760   2.710  18.156  0.00  0.00    +0.000 A 
ATOM     13  C   UNL     1       2.285   3.974  17.867  0.00  0.00    +0.000 A 
ENDBRANCH   1   8
BRANCH   1  14
ATOM     14  C   UNL     1       5.632   5.744  18.599  0.00  0.00    +0.000 C 
ATOM     15  O   UNL     1       5.791   5.292  19.726  0.00  0.00    +0.000 OA
BRANCH  14  16
ATOM     16  O   UNL     1       6.688   6.304  17.956  0.00  0.00    +0.000 OA
BRANCH  16  17
ATOM     17  C   UNL     1       6.731   7.565  17.388  0.00  0.00    +0.000 C 
BRANCH  17  18
ATOM     18  C   UNL     1       8.013   8.236  17.895  0.00  0.00    +0.000 C 
BRANCH  18  19
ATOM     19  C   UNL     1       8.012   9.763  17.868  0.00  0.00    +0.000 C 
BRANCH  19  20
ATOM     20  N   UNL     1       9.273  10.325  18.431  0.00  0.00    +0.000 NA
BRANCH  20  21
ATOM     21  C   UNL     1       9.647  11.669  17.903  0.00  0.00    +0.000 C 
ATOM     22  C   UNL     1       8.451  12.535  17.501  0.00  0.00    +0.000 C 
ENDBRANCH  20  21
BRANCH  20  23
ATOM     23  C   UNL     1       9.233  10.230  19.909  0.00  0.00    +0.000 C 
ATOM     24  C   UNL     1       9.509  11.556  20.626  0.00  0.00    +0.000 C 
ENDBRANCH  20  23
ENDBRANCH  19  20
ENDBRANCH  18  19
ENDBRANCH  17  18
ENDBRANCH  16  17
ENDBRANCH  14  16
ENDBRANCH   1  14
BRANCH   1  25
ATOM     25  O   UNL     1       4.433   5.742  16.480  0.00  0.00    +0.000 OA
BRANCH  25  27
ATOM     26  C   UNL     1       5.935   4.880  14.792  0.00  0.00    +0.000 C 
ATOM     27  C   UNL     1       4.926   4.545  15.883  0.00  0.00    +0.000 C 
ENDBRANCH  25  27
ENDBRANCH   1  25
TORSDOF 12
ENDMDL
