MODEL 1
REMARK VINA RESULT:      -8.8      0.000      0.000
REMARK  Name = 
REMARK  12 active torsions:
REMARK  status: ('A' for Active; 'I' for Inactive)
REMARK    1  A    between atoms: C_1  and  O_2
REMARK    2  A    between atoms: O_2  and  C_3
REMARK    3  A    between atoms: C_12  and  C_13
REMARK    4  A    between atoms: C_13  and  N_14
REMARK    5  A    between atoms: N_14  and  C_15
REMARK    6  A    between atoms: N_14  and  C_23
REMARK    7  A    between atoms: C_15  and  C_16
REMARK    8  A    between atoms: C_19  and  C_20
REMARK    9  A    between atoms: C_23  and  C_24
REMARK   10  A    between atoms: C_24  and  O_25
REMARK   11  A    between atoms: C_24  and  C_26
REMARK   12  A    between atoms: C_26  and  N_27
REMARK                            x       y       z     vdW  Elec       q    Type
REMARK                         _______ _______ _______ _____ _____    ______ ____
ROOT
ATOM      1  N   UNL     1       3.911   5.325  18.227  0.00  0.00    +0.000 NA
ENDROOT
BRANCH   1   2
ATOM      2  C   UNL     1       5.289   4.771  18.223  0.00  0.00    +0.000 C 
BRANCH   2  12
ATOM      3  C   UNL     1       7.075   5.628  16.633  0.00  0.00    +0.000 A 
ATOM      4  N   UNL     1       7.635   5.791  15.410  0.00  0.00    +0.000 NA
ATOM      5  C   UNL     1       7.168   5.069  14.389  0.00  0.00    +0.000 A 
ATOM      6  C   UNL     1       7.749   5.274  13.144  0.00  0.00    +0.000 A 
ATOM      7  C   UNL     1       7.332   4.547  12.029  0.00  0.00    +0.000 A 
ATOM      8  C   UNL     1       6.327   3.597  12.166  0.00  0.00    +0.000 A 
ATOM      9  C   UNL     1       5.720   3.393  13.409  0.00  0.00    +0.000 A 
ATOM     10  C   UNL     1       6.137   4.130  14.540  0.00  0.00    +0.000 A 
ATOM     11  C   UNL     1       5.554   3.997  15.817  0.00  0.00    +0.000 A 
ATOM     12  C   UNL     1       6.012   4.772  16.894  0.00  0.00    +0.000 A 
BRANCH   3  14
ATOM     13  C   UNL     1       7.494   7.799  17.343  0.00  0.00    +0.000 C 
ATOM     14  O   UNL     1       7.587   6.404  17.654  0.00  0.00    +0.000 OA
ENDBRANCH   3  14
ENDBRANCH   2  12
ENDBRANCH   1   2
BRANCH   1  15
ATOM     15  C   UNL     1       3.948   6.761  17.833  0.00  0.00    +0.000 C 
BRANCH  15  16
ATOM     16  C   UNL     1       2.771   7.553  18.379  0.00  0.00    +0.000 A 
ATOM     17  C   UNL     1       2.236   8.616  17.640  0.00  0.00    +0.000 A 
ATOM     18  C   UNL     1       1.373   9.532  18.244  0.00  0.00    +0.000 A 
ATOM     19  C   UNL     1       1.019   9.386  19.590  0.00  0.00    +0.000 A 
ATOM     20  C   UNL     1       0.242  10.455  20.302  0.00  0.00    +0.000 C 
ATOM     21  C   UNL     1       1.453   8.256  20.292  0.00  0.00    +0.000 A 
ATOM     22  C   UNL     1       2.321   7.342  19.690  0.00  0.00    +0.000 A 
ENDBRANCH  15  16
ENDBRANCH   1  15
BRANCH   1  23
ATOM     23  C   UNL     1       3.041   4.522  17.303  0.00  0.00    +0.000 C 
BRANCH  23  24
ATOM     24  C   UNL     1       1.746   3.979  17.969  0.00  0.00    +0.000 C 
BRANCH  24  25
ATOM     25  O   UNL     1       0.612   4.165  17.102  0.00  0.00    +0.000 OA
ATOM     26  H   UNL     1       0.762   4.991  16.609  0.00  0.00    +0.000 HD
ENDBRANCH  24  25
BRANCH  24  27
ATOM     27  C   UNL     1       1.817   2.471  18.330  0.00  0.00    +0.000 C 
BRANCH  27  28
ATOM     28  N   UNL     1       1.831   2.126  19.766  0.00  0.00    +0.000 NA
ATOM     29  C   UNL     1       0.724   2.802  20.477  0.00  0.00    +0.000 C 
ATOM     30  C   UNL     1       1.277   4.164  20.853  0.00  0.00    +0.000 C 
ATOM     31  C   UNL     1       2.709   3.848  21.232  0.00  0.00    +0.000 C 
ATOM     32  C   UNL     1       3.051   2.579  20.459  0.00  0.00    +0.000 C 
ENDBRANCH  27  28
ENDBRANCH  24  27
ENDBRANCH  23  24
ENDBRANCH   1  23
TORSDOF 10
ENDMDL
MODEL 2
REMARK VINA RESULT:      -8.7      1.051      1.536
REMARK  Name = 
REMARK  12 active torsions:
REMARK  status: ('A' for Active; 'I' for Inactive)
REMARK    1  A    between atoms: C_1  and  O_2
REMARK    2  A    between atoms: O_2  and  C_3
REMARK    3  A    between atoms: C_12  and  C_13
REMARK    4  A    between atoms: C_13  and  N_14
REMARK    5  A    between atoms: N_14  and  C_15
REMARK    6  A    between atoms: N_14  and  C_23
REMARK    7  A    between atoms: C_15  and  C_16
REMARK    8  A    between atoms: C_19  and  C_20
REMARK    9  A    between atoms: C_23  and  C_24
REMARK   10  A    between atoms: C_24  and  O_25
REMARK   11  A    between atoms: C_24  and  C_26
REMARK   12  A    between atoms: C_26  and  N_27
REMARK                            x       y       z     vdW  Elec       q    Type
REMARK                         _______ _______ _______ _____ _____    ______ ____
ROOT
ATOM      1  N   UNL     1       3.925   4.808  18.103  0.00  0.00    +0.000 NA
ENDROOT
BRANCH   1   2
ATOM      2  C   UNL     1       5.389   4.558  18.111  0.00  0.00    +0.000 C 
BRANCH   2  12
ATOM      3  C   UNL     1       7.135   5.475  16.511  0.00  0.00    +0.000 A 
ATOM      4  N   UNL     1       7.672   5.673  15.283  0.00  0.00    +0.000 NA
ATOM      5  C   UNL     1       7.197   4.969  14.254  0.00  0.00    +0.000 A 
ATOM      6  C   UNL     1       7.753   5.209  13.004  0.00  0.00    +0.000 A 
ATOM      7  C   UNL     1       7.326   4.502  11.880  0.00  0.00    +0.000 A 
ATOM      8  C   UNL     1       6.336   3.535  12.012  0.00  0.00    +0.000 A 
ATOM      9  C   UNL     1       5.754   3.295  13.261  0.00  0.00    +0.000 A 
ATOM     10  C   UNL     1       6.181   4.012  14.400  0.00  0.00    +0.000 A 
ATOM     11  C   UNL     1       5.623   3.843  15.684  0.00  0.00    +0.000 A 
ATOM     12  C   UNL     1       6.089   4.598  16.771  0.00  0.00    +0.000 A 
BRANCH   3  14
ATOM     13  C   UNL     1       7.303   7.615  17.397  0.00  0.00    +0.000 C 
ATOM     14  O   UNL     1       7.655   6.235  17.541  0.00  0.00    +0.000 OA
ENDBRANCH   3  14
ENDBRANCH   2  12
ENDBRANCH   1   2
BRANCH   1  15
ATOM     15  C   UNL     1       3.636   6.060  17.349  0.00  0.00    +0.000 C 
BRANCH  15  16
ATOM     16  C   UNL     1       2.994   7.134  18.211  0.00  0.00    +0.000 A 
ATOM     17  C   UNL     1       2.712   6.877  19.559  0.00  0.00    +0.000 A 
ATOM     18  C   UNL     1       1.862   7.720  20.276  0.00  0.00    +0.000 A 
ATOM     19  C   UNL     1       1.297   8.843  19.660  0.00  0.00    +0.000 A 
ATOM     20  C   UNL     1       0.245   9.655  20.355  0.00  0.00    +0.000 C 
ATOM     21  C   UNL     1       1.677   9.167  18.352  0.00  0.00    +0.000 A 
ATOM     22  C   UNL     1       2.523   8.321  17.633  0.00  0.00    +0.000 A 
ENDBRANCH  15  16
ENDBRANCH   1  15
BRANCH   1  23
ATOM     23  C   UNL     1       3.215   3.629  17.504  0.00  0.00    +0.000 C 
BRANCH  23  24
ATOM     24  C   UNL     1       3.219   2.365  18.409  0.00  0.00    +0.000 C 
BRANCH  24  25
ATOM     25  O   UNL     1       4.103   1.361  17.877  0.00  0.00    +0.000 OA
ATOM     26  H   UNL     1       4.091   1.453  16.908  0.00  0.00    +0.000 HD
ENDBRANCH  24  25
BRANCH  24  27
ATOM     27  C   UNL     1       3.656   2.647  19.871  0.00  0.00    +0.000 C 
BRANCH  27  28
ATOM     28  N   UNL     1       2.602   2.610  20.904  0.00  0.00    +0.000 NA
ATOM     29  C   UNL     1       1.372   1.984  20.374  0.00  0.00    +0.000 C 
ATOM     30  C   UNL     1       0.611   3.118  19.714  0.00  0.00    +0.000 C 
ATOM     31  C   UNL     1       0.857   4.277  20.657  0.00  0.00    +0.000 C 
ATOM     32  C   UNL     1       2.177   3.951  21.347  0.00  0.00    +0.000 C 
ENDBRANCH  27  28
ENDBRANCH  24  27
ENDBRANCH  23  24
ENDBRANCH   1  23
TORSDOF 10
ENDMDL
MODEL 3
REMARK VINA RESULT:      -8.2      1.886      7.515
REMARK  Name = 
REMARK  12 active torsions:
REMARK  status: ('A' for Active; 'I' for Inactive)
REMARK    1  A    between atoms: C_1  and  O_2
REMARK    2  A    between atoms: O_2  and  C_3
REMARK    3  A    between atoms: C_12  and  C_13
REMARK    4  A    between atoms: C_13  and  N_14
REMARK    5  A    between atoms: N_14  and  C_15
REMARK    6  A    between atoms: N_14  and  C_23
REMARK    7  A    between atoms: C_15  and  C_16
REMARK    8  A    between atoms: C_19  and  C_20
REMARK    9  A    between atoms: C_23  and  C_24
REMARK   10  A    between atoms: C_24  and  O_25
REMARK   11  A    between atoms: C_24  and  C_26
REMARK   12  A    between atoms: C_26  and  N_27
REMARK                            x       y       z     vdW  Elec       q    Type
REMARK                         _______ _______ _______ _____ _____    ______ ____
ROOT
ATOM      1  N   UNL     1       4.809   5.066  17.088  0.00  0.00    +0.000 NA
ENDROOT
BRANCH   1   2
ATOM      2  C   UNL     1       3.426   4.971  17.621  0.00  0.00    +0.000 C 
BRANCH   2  12
ATOM      3  C   UNL     1       2.503   6.048  19.728  0.00  0.00    +0.000 A 
ATOM      4  N   UNL     1       1.882   7.038  20.414  0.00  0.00    +0.000 NA
ATOM      5  C   UNL     1       1.679   8.209  19.808  0.00  0.00    +0.000 A 
ATOM      6  C   UNL     1       1.021   9.197  20.529  0.00  0.00    +0.000 A 
ATOM      7  C   UNL     1       0.786  10.455  19.976  0.00  0.00    +0.000 A 
ATOM      8  C   UNL     1       1.225  10.730  18.686  0.00  0.00    +0.000 A 
ATOM      9  C   UNL     1       1.872   9.739  17.940  0.00  0.00    +0.000 A 
ATOM     10  C   UNL     1       2.108   8.463  18.496  0.00  0.00    +0.000 A 
ATOM     11  C   UNL     1       2.730   7.409  17.796  0.00  0.00    +0.000 A 
ATOM     12  C   UNL     1       2.922   6.161  18.408  0.00  0.00    +0.000 A 
BRANCH   3  14
ATOM     13  C   UNL     1       1.426   4.232  20.693  0.00  0.00    +0.000 C 
ATOM     14  O   UNL     1       2.681   4.852  20.396  0.00  0.00    +0.000 OA
ENDBRANCH   3  14
ENDBRANCH   2  12
ENDBRANCH   1   2
BRANCH   1  15
ATOM     15  C   UNL     1       5.778   5.114  18.217  0.00  0.00    +0.000 C 
BRANCH  15  16
ATOM     16  C   UNL     1       6.777   6.253  18.089  0.00  0.00    +0.000 A 
ATOM     17  C   UNL     1       7.874   6.326  18.957  0.00  0.00    +0.000 A 
ATOM     18  C   UNL     1       8.619   7.502  19.056  0.00  0.00    +0.000 A 
ATOM     19  C   UNL     1       8.289   8.614  18.274  0.00  0.00    +0.000 A 
ATOM     20  C   UNL     1       8.960   9.938  18.496  0.00  0.00    +0.000 C 
ATOM     21  C   UNL     1       7.273   8.500  17.318  0.00  0.00    +0.000 A 
ATOM     22  C   UNL     1       6.523   7.326  17.223  0.00  0.00    +0.000 A 
ENDBRANCH  15  16
ENDBRANCH   1  15
BRANCH   1  23
ATOM     23  C   UNL     1       5.080   3.902  16.179  0.00  0.00    +0.000 C 
BRANCH  23  24
ATOM     24  C   UNL     1       5.711   4.301  14.815  0.00  0.00    +0.000 C 
BRANCH  24  25
ATOM     25  O   UNL     1       7.081   4.709  14.989  0.00  0.00    +0.000 OA
ATOM     26  H   UNL     1       7.074   5.493  15.566  0.00  0.00    +0.000 HD
ENDBRANCH  24  25
BRANCH  24  27
ATOM     27  C   UNL     1       5.692   3.161  13.763  0.00  0.00    +0.000 C 
BRANCH  27  28
ATOM     28  N   UNL     1       5.849   3.553  12.348  0.00  0.00    +0.000 NA
ATOM     29  C   UNL     1       5.029   2.688  11.472  0.00  0.00    +0.000 C 
ATOM     30  C   UNL     1       5.907   1.486  11.180  0.00  0.00    +0.000 C 
ATOM     31  C   UNL     1       7.280   2.106  11.028  0.00  0.00    +0.000 C 
ATOM     32  C   UNL     1       7.226   3.390  11.850  0.00  0.00    +0.000 C 
ENDBRANCH  27  28
ENDBRANCH  24  27
ENDBRANCH  23  24
ENDBRANCH   1  23
TORSDOF 10
ENDMDL
MODEL 4
REMARK VINA RESULT:      -8.1      1.247      1.673
REMARK  Name = 
REMARK  12 active torsions:
REMARK  status: ('A' for Active; 'I' for Inactive)
REMARK    1  A    between atoms: C_1  and  O_2
REMARK    2  A    between atoms: O_2  and  C_3
REMARK    3  A    between atoms: C_12  and  C_13
REMARK    4  A    between atoms: C_13  and  N_14
REMARK    5  A    between atoms: N_14  and  C_15
REMARK    6  A    between atoms: N_14  and  C_23
REMARK    7  A    between atoms: C_15  and  C_16
REMARK    8  A    between atoms: C_19  and  C_20
REMARK    9  A    between atoms: C_23  and  C_24
REMARK   10  A    between atoms: C_24  and  O_25
REMARK   11  A    between atoms: C_24  and  C_26
REMARK   12  A    between atoms: C_26  and  N_27
REMARK                            x       y       z     vdW  Elec       q    Type
REMARK                         _______ _______ _______ _____ _____    ______ ____
ROOT
ATOM      1  N   UNL     1       4.442   6.073  18.395  0.00  0.00    +0.000 NA
ENDROOT
BRANCH   1   2
ATOM      2  C   UNL     1       4.891   6.818  17.191  0.00  0.00    +0.000 C 
BRANCH   2  12
ATOM      3  C   UNL     1       7.004   6.157  15.946  0.00  0.00    +0.000 A 
ATOM      4  N   UNL     1       7.680   5.604  14.911  0.00  0.00    +0.000 NA
ATOM      5  C   UNL     1       7.010   4.853  14.034  0.00  0.00    +0.000 A 
ATOM      6  C   UNL     1       7.728   4.317  12.972  0.00  0.00    +0.000 A 
ATOM      7  C   UNL     1       7.107   3.505  12.023  0.00  0.00    +0.000 A 
ATOM      8  C   UNL     1       5.751   3.221  12.144  0.00  0.00    +0.000 A 
ATOM      9  C   UNL     1       5.012   3.770  13.197  0.00  0.00    +0.000 A 
ATOM     10  C   UNL     1       5.637   4.594  14.159  0.00  0.00    +0.000 A 
ATOM     11  C   UNL     1       4.951   5.202  15.230  0.00  0.00    +0.000 A 
ATOM     12  C   UNL     1       5.635   6.020  16.143  0.00  0.00    +0.000 A 
BRANCH   3  14
ATOM     13  C   UNL     1       7.921   6.269  18.076  0.00  0.00    +0.000 C 
ATOM     14  O   UNL     1       7.740   6.933  16.820  0.00  0.00    +0.000 OA
ENDBRANCH   3  14
ENDBRANCH   2  12
ENDBRANCH   1   2
BRANCH   1  15
ATOM     15  C   UNL     1       2.954   6.047  18.441  0.00  0.00    +0.000 C 
BRANCH  15  16
ATOM     16  C   UNL     1       2.355   7.348  18.948  0.00  0.00    +0.000 A 
ATOM     17  C   UNL     1       1.986   7.474  20.294  0.00  0.00    +0.000 A 
ATOM     18  C   UNL     1       1.170   8.529  20.706  0.00  0.00    +0.000 A 
ATOM     19  C   UNL     1       0.728   9.483  19.782  0.00  0.00    +0.000 A 
ATOM     20  C   UNL     1      -0.291  10.515  20.167  0.00  0.00    +0.000 C 
ATOM     21  C   UNL     1       1.199   9.426  18.464  0.00  0.00    +0.000 A 
ATOM     22  C   UNL     1       2.010   8.368  18.050  0.00  0.00    +0.000 A 
ENDBRANCH  15  16
ENDBRANCH   1  15
BRANCH   1  23
ATOM     23  C   UNL     1       5.017   4.687  18.375  0.00  0.00    +0.000 C 
BRANCH  23  24
ATOM     24  C   UNL     1       3.947   3.560  18.393  0.00  0.00    +0.000 C 
BRANCH  24  25
ATOM     25  O   UNL     1       4.234   2.570  17.388  0.00  0.00    +0.000 OA
ATOM     26  H   UNL     1       3.453   2.514  16.810  0.00  0.00    +0.000 HD
ENDBRANCH  24  25
BRANCH  24  27
ATOM     27  C   UNL     1       3.838   2.825  19.756  0.00  0.00    +0.000 C 
BRANCH  27  28
ATOM     28  N   UNL     1       2.580   2.103  20.028  0.00  0.00    +0.000 NA
ATOM     29  C   UNL     1       1.429   2.811  19.427  0.00  0.00    +0.000 C 
ATOM     30  C   UNL     1       1.009   3.829  20.471  0.00  0.00    +0.000 C 
ATOM     31  C   UNL     1       1.192   3.068  21.768  0.00  0.00    +0.000 C 
ATOM     32  C   UNL     1       2.258   2.021  21.465  0.00  0.00    +0.000 C 
ENDBRANCH  27  28
ENDBRANCH  24  27
ENDBRANCH  23  24
ENDBRANCH   1  23
TORSDOF 10
ENDMDL
MODEL 5
REMARK VINA RESULT:      -8.0      0.767      1.186
REMARK  Name = 
REMARK  12 active torsions:
REMARK  status: ('A' for Active; 'I' for Inactive)
REMARK    1  A    between atoms: C_1  and  O_2
REMARK    2  A    between atoms: O_2  and  C_3
REMARK    3  A    between atoms: C_12  and  C_13
REMARK    4  A    between atoms: C_13  and  N_14
REMARK    5  A    between atoms: N_14  and  C_15
REMARK    6  A    between atoms: N_14  and  C_23
REMARK    7  A    between atoms: C_15  and  C_16
REMARK    8  A    between atoms: C_19  and  C_20
REMARK    9  A    between atoms: C_23  and  C_24
REMARK   10  A    between atoms: C_24  and  O_25
REMARK   11  A    between atoms: C_24  and  C_26
REMARK   12  A    between atoms: C_26  and  N_27
REMARK                            x       y       z     vdW  Elec       q    Type
REMARK                         _______ _______ _______ _____ _____    ______ ____
ROOT
ATOM      1  N   UNL     1       3.584   5.128  17.891  0.00  0.00    +0.000 NA
ENDROOT
BRANCH   1   2
ATOM      2  C   UNL     1       4.954   4.560  17.983  0.00  0.00    +0.000 C 
BRANCH   2  12
ATOM      3  C   UNL     1       6.915   5.395  16.601  0.00  0.00    +0.000 A 
ATOM      4  N   UNL     1       7.584   5.595  15.441  0.00  0.00    +0.000 NA
ATOM      5  C   UNL     1       7.163   4.969  14.340  0.00  0.00    +0.000 A 
ATOM      6  C   UNL     1       7.857   5.212  13.161  0.00  0.00    +0.000 A 
ATOM      7  C   UNL     1       7.493   4.583  11.971  0.00  0.00    +0.000 A 
ATOM      8  C   UNL     1       6.425   3.694  11.963  0.00  0.00    +0.000 A 
ATOM      9  C   UNL     1       5.704   3.454  13.138  0.00  0.00    +0.000 A 
ATOM     10  C   UNL     1       6.069   4.091  14.345  0.00  0.00    +0.000 A 
ATOM     11  C   UNL     1       5.373   3.919  15.560  0.00  0.00    +0.000 A 
ATOM     12  C   UNL     1       5.785   4.595  16.719  0.00  0.00    +0.000 A 
BRANCH   3  14
ATOM     13  C   UNL     1       7.511   7.473  17.447  0.00  0.00    +0.000 C 
ATOM     14  O   UNL     1       7.385   6.072  17.710  0.00  0.00    +0.000 OA
ENDBRANCH   3  14
ENDBRANCH   2  12
ENDBRANCH   1   2
BRANCH   1  15
ATOM     15  C   UNL     1       3.666   6.579  17.564  0.00  0.00    +0.000 C 
BRANCH  15  16
ATOM     16  C   UNL     1       2.882   7.447  18.534  0.00  0.00    +0.000 A 
ATOM     17  C   UNL     1       2.562   6.964  19.810  0.00  0.00    +0.000 A 
ATOM     18  C   UNL     1       1.602   7.610  20.589  0.00  0.00    +0.000 A 
ATOM     19  C   UNL     1       0.961   8.759  20.112  0.00  0.00    +0.000 A 
ATOM     20  C   UNL     1      -0.197   9.360  20.853  0.00  0.00    +0.000 C 
ATOM     21  C   UNL     1       1.371   9.312  18.892  0.00  0.00    +0.000 A 
ATOM     22  C   UNL     1       2.327   8.663  18.110  0.00  0.00    +0.000 A 
ENDBRANCH  15  16
ENDBRANCH   1  15
BRANCH   1  23
ATOM     23  C   UNL     1       2.793   4.375  16.861  0.00  0.00    +0.000 C 
BRANCH  23  24
ATOM     24  C   UNL     1       1.684   3.465  17.459  0.00  0.00    +0.000 C 
BRANCH  24  25
ATOM     25  O   UNL     1       2.032   2.075  17.312  0.00  0.00    +0.000 OA
ATOM     26  H   UNL     1       1.416   1.694  16.662  0.00  0.00    +0.000 HD
ENDBRANCH  24  25
BRANCH  24  27
ATOM     27  C   UNL     1       1.412   3.722  18.965  0.00  0.00    +0.000 C 
BRANCH  27  28
ATOM     28  N   UNL     1       1.513   2.561  19.872  0.00  0.00    +0.000 NA
ATOM     29  C   UNL     1       1.069   2.923  21.235  0.00  0.00    +0.000 C 
ATOM     30  C   UNL     1       2.305   3.488  21.909  0.00  0.00    +0.000 C 
ATOM     31  C   UNL     1       3.409   2.594  21.384  0.00  0.00    +0.000 C 
ATOM     32  C   UNL     1       2.895   2.078  20.044  0.00  0.00    +0.000 C 
ENDBRANCH  27  28
ENDBRANCH  24  27
ENDBRANCH  23  24
ENDBRANCH   1  23
TORSDOF 10
ENDMDL
MODEL 6
REMARK VINA RESULT:      -8.0      2.549      8.281
REMARK  Name = 
REMARK  12 active torsions:
REMARK  status: ('A' for Active; 'I' for Inactive)
REMARK    1  A    between atoms: C_1  and  O_2
REMARK    2  A    between atoms: O_2  and  C_3
REMARK    3  A    between atoms: C_12  and  C_13
REMARK    4  A    between atoms: C_13  and  N_14
REMARK    5  A    between atoms: N_14  and  C_15
REMARK    6  A    between atoms: N_14  and  C_23
REMARK    7  A    between atoms: C_15  and  C_16
REMARK    8  A    between atoms: C_19  and  C_20
REMARK    9  A    between atoms: C_23  and  C_24
REMARK   10  A    between atoms: C_24  and  O_25
REMARK   11  A    between atoms: C_24  and  C_26
REMARK   12  A    between atoms: C_26  and  N_27
REMARK                            x       y       z     vdW  Elec       q    Type
REMARK                         _______ _______ _______ _____ _____    ______ ____
ROOT
ATOM      1  N   UNL     1       6.561   6.405  17.381  0.00  0.00    +0.000 NA
ENDROOT
BRANCH   1   2
ATOM      2  C   UNL     1       5.185   6.517  16.833  0.00  0.00    +0.000 C 
BRANCH   2  12
ATOM      3  C   UNL     1       3.127   6.832  18.288  0.00  0.00    +0.000 A 
ATOM      4  N   UNL     1       2.221   6.432  19.212  0.00  0.00    +0.000 NA
ATOM      5  C   UNL     1       2.197   5.148  19.574  0.00  0.00    +0.000 A 
ATOM      6  C   UNL     1       1.271   4.774  20.540  0.00  0.00    +0.000 A 
ATOM      7  C   UNL     1       1.168   3.448  20.961  0.00  0.00    +0.000 A 
ATOM      8  C   UNL     1       1.998   2.484  20.400  0.00  0.00    +0.000 A 
ATOM      9  C   UNL     1       2.948   2.849  19.441  0.00  0.00    +0.000 A 
ATOM     10  C   UNL     1       3.057   4.191  19.015  0.00  0.00    +0.000 A 
ATOM     11  C   UNL     1       4.007   4.638  18.074  0.00  0.00    +0.000 A 
ATOM     12  C   UNL     1       4.066   5.991  17.705  0.00  0.00    +0.000 A 
BRANCH   3  14
ATOM     13  C   UNL     1       1.793   8.714  18.021  0.00  0.00    +0.000 C 
ATOM     14  O   UNL     1       3.116   8.172  17.953  0.00  0.00    +0.000 OA
ENDBRANCH   3  14
ENDBRANCH   2  12
ENDBRANCH   1   2
BRANCH   1  15
ATOM     15  C   UNL     1       7.209   5.171  16.856  0.00  0.00    +0.000 C 
BRANCH  15  16
ATOM     16  C   UNL     1       6.811   4.860  15.422  0.00  0.00    +0.000 A 
ATOM     17  C   UNL     1       5.760   3.971  15.162  0.00  0.00    +0.000 A 
ATOM     18  C   UNL     1       5.581   3.446  13.882  0.00  0.00    +0.000 A 
ATOM     19  C   UNL     1       6.438   3.816  12.840  0.00  0.00    +0.000 A 
ATOM     20  C   UNL     1       6.374   3.128  11.508  0.00  0.00    +0.000 C 
ATOM     21  C   UNL     1       7.409   4.799  13.071  0.00  0.00    +0.000 A 
ATOM     22  C   UNL     1       7.592   5.321  14.353  0.00  0.00    +0.000 A 
ENDBRANCH  15  16
ENDBRANCH   1  15
BRANCH   1  23
ATOM     23  C   UNL     1       7.347   7.634  17.026  0.00  0.00    +0.000 C 
BRANCH  23  24
ATOM     24  C   UNL     1       7.933   8.384  18.255  0.00  0.00    +0.000 C 
BRANCH  24  25
ATOM     25  O   UNL     1       8.683   7.483  19.091  0.00  0.00    +0.000 OA
ATOM     26  H   UNL     1       8.535   6.585  18.747  0.00  0.00    +0.000 HD
ENDBRANCH  24  25
BRANCH  24  27
ATOM     27  C   UNL     1       8.870   9.562  17.877  0.00  0.00    +0.000 C 
BRANCH  27  28
ATOM     28  N   UNL     1       8.767  10.788  18.693  0.00  0.00    +0.000 NA
ATOM     29  C   UNL     1       9.174  11.974  17.909  0.00  0.00    +0.000 C 
ATOM     30  C   UNL     1      10.679  12.054  18.076  0.00  0.00    +0.000 C 
ATOM     31  C   UNL     1      10.875  11.655  19.524  0.00  0.00    +0.000 C 
ATOM     32  C   UNL     1       9.668  10.785  19.860  0.00  0.00    +0.000 C 
ENDBRANCH  27  28
ENDBRANCH  24  27
ENDBRANCH  23  24
ENDBRANCH   1  23
TORSDOF 10
ENDMDL
MODEL 7
REMARK VINA RESULT:      -7.8      0.986      1.102
REMARK  Name = 
REMARK  12 active torsions:
REMARK  status: ('A' for Active; 'I' for Inactive)
REMARK    1  A    between atoms: C_1  and  O_2
REMARK    2  A    between atoms: O_2  and  C_3
REMARK    3  A    between atoms: C_12  and  C_13
REMARK    4  A    between atoms: C_13  and  N_14
REMARK    5  A    between atoms: N_14  and  C_15
REMARK    6  A    between atoms: N_14  and  C_23
REMARK    7  A    between atoms: C_15  and  C_16
REMARK    8  A    between atoms: C_19  and  C_20
REMARK    9  A    between atoms: C_23  and  C_24
REMARK   10  A    between atoms: C_24  and  O_25
REMARK   11  A    between atoms: C_24  and  C_26
REMARK   12  A    between atoms: C_26  and  N_27
REMARK                            x       y       z     vdW  Elec       q    Type
REMARK                         _______ _______ _______ _____ _____    ______ ____
ROOT
ATOM      1  N   UNL     1       3.630   5.554  18.406  0.00  0.00    +0.000 NA
ENDROOT
BRANCH   1   2
ATOM      2  C   UNL     1       4.332   6.485  17.487  0.00  0.00    +0.000 C 
BRANCH   2  12
ATOM      3  C   UNL     1       6.597   6.161  16.385  0.00  0.00    +0.000 A 
ATOM      4  N   UNL     1       7.412   5.767  15.377  0.00  0.00    +0.000 NA
ATOM      5  C   UNL     1       6.904   5.014  14.400  0.00  0.00    +0.000 A 
ATOM      6  C   UNL     1       7.759   4.643  13.370  0.00  0.00    +0.000 A 
ATOM      7  C   UNL     1       7.313   3.841  12.319  0.00  0.00    +0.000 A 
ATOM      8  C   UNL     1       5.995   3.398  12.306  0.00  0.00    +0.000 A 
ATOM      9  C   UNL     1       5.118   3.780  13.326  0.00  0.00    +0.000 A 
ATOM     10  C   UNL     1       5.566   4.594  14.389  0.00  0.00    +0.000 A 
ATOM     11  C   UNL     1       4.733   5.039  15.437  0.00  0.00    +0.000 A 
ATOM     12  C   UNL     1       5.243   5.858  16.456  0.00  0.00    +0.000 A 
BRANCH   3  14
ATOM     13  C   UNL     1       7.673   6.146  18.443  0.00  0.00    +0.000 C 
ATOM     14  O   UNL     1       7.168   6.946  17.369  0.00  0.00    +0.000 OA
ENDBRANCH   3  14
ENDBRANCH   2  12
ENDBRANCH   1   2
BRANCH   1  15
ATOM     15  C   UNL     1       3.440   6.206  19.731  0.00  0.00    +0.000 C 
BRANCH  15  16
ATOM     16  C   UNL     1       2.326   7.240  19.727  0.00  0.00    +0.000 A 
ATOM     17  C   UNL     1       2.229   8.164  18.678  0.00  0.00    +0.000 A 
ATOM     18  C   UNL     1       1.417   9.292  18.804  0.00  0.00    +0.000 A 
ATOM     19  C   UNL     1       0.677   9.502  19.972  0.00  0.00    +0.000 A 
ATOM     20  C   UNL     1      -0.056  10.792  20.198  0.00  0.00    +0.000 C 
ATOM     21  C   UNL     1       0.677   8.517  20.967  0.00  0.00    +0.000 A 
ATOM     22  C   UNL     1       1.493   7.391  20.845  0.00  0.00    +0.000 A 
ENDBRANCH  15  16
ENDBRANCH   1  15
BRANCH   1  23
ATOM     23  C   UNL     1       2.318   5.143  17.802  0.00  0.00    +0.000 C 
BRANCH  23  24
ATOM     24  C   UNL     1       2.102   3.605  17.750  0.00  0.00    +0.000 C 
BRANCH  24  25
ATOM     25  O   UNL     1       2.217   3.121  16.399  0.00  0.00    +0.000 OA
ATOM     26  H   UNL     1       1.528   2.444  16.278  0.00  0.00    +0.000 HD
ENDBRANCH  24  25
BRANCH  24  27
ATOM     27  C   UNL     1       3.106   2.804  18.621  0.00  0.00    +0.000 C 
BRANCH  27  28
ATOM     28  N   UNL     1       2.554   2.076  19.781  0.00  0.00    +0.000 NA
ATOM     29  C   UNL     1       1.111   2.359  19.937  0.00  0.00    +0.000 C 
ATOM     30  C   UNL     1       1.051   3.624  20.771  0.00  0.00    +0.000 C 
ATOM     31  C   UNL     1       2.178   3.424  21.763  0.00  0.00    +0.000 C 
ATOM     32  C   UNL     1       3.156   2.485  21.063  0.00  0.00    +0.000 C 
ENDBRANCH  27  28
ENDBRANCH  24  27
ENDBRANCH  23  24
ENDBRANCH   1  23
TORSDOF 10
ENDMDL
MODEL 8
REMARK VINA RESULT:      -7.8      0.770      1.071
REMARK  Name = 
REMARK  12 active torsions:
REMARK  status: ('A' for Active; 'I' for Inactive)
REMARK    1  A    between atoms: C_1  and  O_2
REMARK    2  A    between atoms: O_2  and  C_3
REMARK    3  A    between atoms: C_12  and  C_13
REMARK    4  A    between atoms: C_13  and  N_14
REMARK    5  A    between atoms: N_14  and  C_15
REMARK    6  A    between atoms: N_14  and  C_23
REMARK    7  A    between atoms: C_15  and  C_16
REMARK    8  A    between atoms: C_19  and  C_20
REMARK    9  A    between atoms: C_23  and  C_24
REMARK   10  A    between atoms: C_24  and  O_25
REMARK   11  A    between atoms: C_24  and  C_26
REMARK   12  A    between atoms: C_26  and  N_27
REMARK                            x       y       z     vdW  Elec       q    Type
REMARK                         _______ _______ _______ _____ _____    ______ ____
ROOT
ATOM      1  N   UNL     1       3.836   5.161  18.024  0.00  0.00    +0.000 NA
ENDROOT
BRANCH   1   2
ATOM      2  C   UNL     1       5.163   4.495  17.999  0.00  0.00    +0.000 C 
BRANCH   2  12
ATOM      3  C   UNL     1       7.012   5.400  16.510  0.00  0.00    +0.000 A 
ATOM      4  N   UNL     1       7.610   5.619  15.315  0.00  0.00    +0.000 NA
ATOM      5  C   UNL     1       7.157   4.968  14.242  0.00  0.00    +0.000 A 
ATOM      6  C   UNL     1       7.777   5.230  13.026  0.00  0.00    +0.000 A 
ATOM      7  C   UNL     1       7.377   4.578  11.860  0.00  0.00    +0.000 A 
ATOM      8  C   UNL     1       6.348   3.645  11.914  0.00  0.00    +0.000 A 
ATOM      9  C   UNL     1       5.701   3.386  13.127  0.00  0.00    +0.000 A 
ATOM     10  C   UNL     1       6.102   4.046  14.309  0.00  0.00    +0.000 A 
ATOM     11  C   UNL     1       5.480   3.855  15.560  0.00  0.00    +0.000 A 
ATOM     12  C   UNL     1       5.924   4.555  16.693  0.00  0.00    +0.000 A 
BRANCH   3  14
ATOM     13  C   UNL     1       7.534   7.511  17.324  0.00  0.00    +0.000 C 
ATOM     14  O   UNL     1       7.512   6.104  17.589  0.00  0.00    +0.000 OA
ENDBRANCH   3  14
ENDBRANCH   2  12
ENDBRANCH   1   2
BRANCH   1  15
ATOM     15  C   UNL     1       4.005   6.623  17.792  0.00  0.00    +0.000 C 
BRANCH  15  16
ATOM     16  C   UNL     1       2.839   7.442  18.321  0.00  0.00    +0.000 A 
ATOM     17  C   UNL     1       2.348   8.525  17.579  0.00  0.00    +0.000 A 
ATOM     18  C   UNL     1       1.498   9.459  18.173  0.00  0.00    +0.000 A 
ATOM     19  C   UNL     1       1.114   9.314  19.511  0.00  0.00    +0.000 A 
ATOM     20  C   UNL     1       0.352  10.399  20.215  0.00  0.00    +0.000 C 
ATOM     21  C   UNL     1       1.504   8.168  20.213  0.00  0.00    +0.000 A 
ATOM     22  C   UNL     1       2.358   7.235  19.622  0.00  0.00    +0.000 A 
ENDBRANCH  15  16
ENDBRANCH   1  15
BRANCH   1  23
ATOM     23  C   UNL     1       2.941   4.540  16.991  0.00  0.00    +0.000 C 
BRANCH  23  24
ATOM     24  C   UNL     1       2.200   3.265  17.483  0.00  0.00    +0.000 C 
BRANCH  24  25
ATOM     25  O   UNL     1       2.576   2.122  16.691  0.00  0.00    +0.000 OA
ATOM     26  H   UNL     1       3.098   2.453  15.940  0.00  0.00    +0.000 HD
ENDBRANCH  24  25
BRANCH  24  27
ATOM     27  C   UNL     1       2.478   2.917  18.969  0.00  0.00    +0.000 C 
BRANCH  27  28
ATOM     28  N   UNL     1       1.709   3.661  19.986  0.00  0.00    +0.000 NA
ATOM     29  C   UNL     1       2.563   3.996  21.146  0.00  0.00    +0.000 C 
ATOM     30  C   UNL     1       2.483   2.781  22.052  0.00  0.00    +0.000 C 
ATOM     31  C   UNL     1       1.033   2.365  21.922  0.00  0.00    +0.000 C 
ATOM     32  C   UNL     1       0.595   2.882  20.555  0.00  0.00    +0.000 C 
ENDBRANCH  27  28
ENDBRANCH  24  27
ENDBRANCH  23  24
ENDBRANCH   1  23
TORSDOF 10
ENDMDL
MODEL 9
REMARK VINA RESULT:      -7.7      2.563      7.796
REMARK  Name = 
REMARK  12 active torsions:
REMARK  status: ('A' for Active; 'I' for Inactive)
REMARK    1  A    between atoms: C_1  and  O_2
REMARK    2  A    between atoms: O_2  and  C_3
REMARK    3  A    between atoms: C_12  and  C_13
REMARK    4  A    between atoms: C_13  and  N_14
REMARK    5  A    between atoms: N_14  and  C_15
REMARK    6  A    between atoms: N_14  and  C_23
REMARK    7  A    between atoms: C_15  and  C_16
REMARK    8  A    between atoms: C_19  and  C_20
REMARK    9  A    between atoms: C_23  and  C_24
REMARK   10  A    between atoms: C_24  and  O_25
REMARK   11  A    between atoms: C_24  and  C_26
REMARK   12  A    between atoms: C_26  and  N_27
REMARK                            x       y       z     vdW  Elec       q    Type
REMARK                         _______ _______ _______ _____ _____    ______ ____
ROOT
ATOM      1  N   UNL     1       2.500   7.356  18.212  0.00  0.00    +0.000 NA
ENDROOT
BRANCH   1   2
ATOM      2  C   UNL     1       1.392   8.317  17.977  0.00  0.00    +0.000 C 
BRANCH   2  12
ATOM      3  C   UNL     1       1.042   9.674  20.095  0.00  0.00    +0.000 A 
ATOM      4  N   UNL     1       0.896  10.830  20.787  0.00  0.00    +0.000 NA
ATOM      5  C   UNL     1       1.175  11.982  20.176  0.00  0.00    +0.000 A 
ATOM      6  C   UNL     1       0.996  13.152  20.904  0.00  0.00    +0.000 A 
ATOM      7  C   UNL     1       1.283  14.397  20.346  0.00  0.00    +0.000 A 
ATOM      8  C   UNL     1       1.764  14.471  19.043  0.00  0.00    +0.000 A 
ATOM      9  C   UNL     1       1.931  13.304  18.291  0.00  0.00    +0.000 A 
ATOM     10  C   UNL     1       1.639  12.041  18.853  0.00  0.00    +0.000 A 
ATOM     11  C   UNL     1       1.758  10.826  18.147  0.00  0.00    +0.000 A 
ATOM     12  C   UNL     1       1.438   9.607  18.765  0.00  0.00    +0.000 A 
BRANCH   3  14
ATOM     13  C   UNL     1      -0.335   8.716  21.701  0.00  0.00    +0.000 C 
ATOM     14  O   UNL     1       0.732   8.509  20.769  0.00  0.00    +0.000 OA
ENDBRANCH   3  14
ENDBRANCH   2  12
ENDBRANCH   1   2
BRANCH   1  15
ATOM     15  C   UNL     1       2.102   6.006  17.725  0.00  0.00    +0.000 C 
BRANCH  15  16
ATOM     16  C   UNL     1       2.136   4.951  18.819  0.00  0.00    +0.000 A 
ATOM     17  C   UNL     1       1.595   3.679  18.585  0.00  0.00    +0.000 A 
ATOM     18  C   UNL     1       1.345   2.813  19.650  0.00  0.00    +0.000 A 
ATOM     19  C   UNL     1       1.649   3.198  20.961  0.00  0.00    +0.000 A 
ATOM     20  C   UNL     1       1.222   2.358  22.129  0.00  0.00    +0.000 C 
ATOM     21  C   UNL     1       2.303   4.416  21.180  0.00  0.00    +0.000 A 
ATOM     22  C   UNL     1       2.549   5.286  20.116  0.00  0.00    +0.000 A 
ENDBRANCH  15  16
ENDBRANCH   1  15
BRANCH   1  23
ATOM     23  C   UNL     1       3.744   7.844  17.529  0.00  0.00    +0.000 C 
BRANCH  23  24
ATOM     24  C   UNL     1       4.576   6.717  16.855  0.00  0.00    +0.000 C 
BRANCH  24  25
ATOM     25  O   UNL     1       5.098   7.159  15.588  0.00  0.00    +0.000 OA
ATOM     26  H   UNL     1       5.651   6.437  15.239  0.00  0.00    +0.000 HD
ENDBRANCH  24  25
BRANCH  24  27
ATOM     27  C   UNL     1       5.775   6.230  17.711  0.00  0.00    +0.000 C 
BRANCH  27  28
ATOM     28  N   UNL     1       6.059   4.781  17.704  0.00  0.00    +0.000 NA
ATOM     29  C   UNL     1       7.402   4.515  17.144  0.00  0.00    +0.000 C 
ATOM     30  C   UNL     1       7.188   4.426  15.645  0.00  0.00    +0.000 C 
ATOM     31  C   UNL     1       5.861   3.702  15.540  0.00  0.00    +0.000 C 
ATOM     32  C   UNL     1       5.138   4.014  16.846  0.00  0.00    +0.000 C 
ENDBRANCH  27  28
ENDBRANCH  24  27
ENDBRANCH  23  24
ENDBRANCH   1  23
TORSDOF 10
ENDMDL
