MODEL 1
REMARK VINA RESULT:      -6.9      0.000      0.000
REMARK  Name = 
REMARK  2 active torsions:
REMARK  status: ('A' for Active; 'I' for Inactive)
REMARK    1  A    between atoms: C_2  and  C_4
REMARK    2  A    between atoms: C_7  and  C_8
REMARK                            x       y       z     vdW  Elec       q    Type
REMARK                         _______ _______ _______ _____ _____    ______ ____
ROOT
ATOM      1  C   UNL     1       2.673   3.785  20.164  0.00  0.00    +0.000 A 
ATOM      2  N   UNL     1       3.031   5.101  20.368  0.00  0.00    +0.000 N 
ATOM      3  C   UNL     1       4.023   5.469  19.500  0.00  0.00    +0.000 A 
ATOM      4  C   UNL     1       4.330   4.383  18.700  0.00  0.00    +0.000 A 
ATOM      5  C   UNL     1       3.490   3.310  19.147  0.00  0.00    +0.000 A 
ATOM      6 CL   UNL     1       3.517   1.715  18.531  0.00  0.00    +0.000 Cl
ATOM      7  H   UNL     1       2.597   5.693  21.067  0.00  0.00    +0.000 HD
ENDROOT
BRANCH   4   8
ATOM      8  C   UNL     1       5.327   4.453  17.634  0.00  0.00    +0.000 A 
ATOM      9  C   UNL     1       4.967   4.271  16.295  0.00  0.00    +0.000 A 
ATOM     10  C   UNL     1       5.954   4.332  15.323  0.00  0.00    +0.000 A 
ATOM     11  N   UNL     1       7.255   4.568  15.586  0.00  0.00    +0.000 NA
ATOM     12  C   UNL     1       7.585   4.740  16.882  0.00  0.00    +0.000 A 
ATOM     13  C   UNL     1       6.675   4.680  17.925  0.00  0.00    +0.000 A 
ENDBRANCH   4   8
BRANCH   1  15
ATOM     14  N   UNL     1       0.414   3.032  20.359  0.00  0.00    +0.000 N 
ATOM     15  C   UNL     1       1.628   3.187  20.954  0.00  0.00    +0.000 C 
ATOM     16  O   UNL     1       1.791   2.833  22.118  0.00  0.00    +0.000 OA
ATOM     17  H   UNL     1      -0.334   2.619  20.899  0.00  0.00    +0.000 HD
ATOM     18  H   UNL     1       0.241   3.307  19.404  0.00  0.00    +0.000 HD
ENDBRANCH   1  15
TORSDOF 2
ENDMDL
MODEL 2
REMARK VINA RESULT:      -6.8      0.057      1.212
REMARK  Name = 
REMARK  2 active torsions:
REMARK  status: ('A' for Active; 'I' for Inactive)
REMARK    1  A    between atoms: C_2  and  C_4
REMARK    2  A    between atoms: C_7  and  C_8
REMARK                            x       y       z     vdW  Elec       q    Type
REMARK                         _______ _______ _______ _____ _____    ______ ____
ROOT
ATOM      1  C   UNL     1       2.646   3.771  20.187  0.00  0.00    +0.000 A 
ATOM      2  N   UNL     1       3.032   5.078  20.397  0.00  0.00    +0.000 N 
ATOM      3  C   UNL     1       4.032   5.429  19.532  0.00  0.00    +0.000 A 
ATOM      4  C   UNL     1       4.316   4.341  18.727  0.00  0.00    +0.000 A 
ATOM      5  C   UNL     1       3.453   3.284  19.168  0.00  0.00    +0.000 A 
ATOM      6 CL   UNL     1       3.447   1.692  18.543  0.00  0.00    +0.000 Cl
ATOM      7  H   UNL     1       2.610   5.676  21.099  0.00  0.00    +0.000 HD
ENDROOT
BRANCH   4   8
ATOM      8  C   UNL     1       5.316   4.396  17.661  0.00  0.00    +0.000 A 
ATOM      9  C   UNL     1       6.656   4.679  17.942  0.00  0.00    +0.000 A 
ATOM     10  C   UNL     1       7.561   4.734  16.893  0.00  0.00    +0.000 A 
ATOM     11  N   UNL     1       7.231   4.520  15.603  0.00  0.00    +0.000 NA
ATOM     12  C   UNL     1       5.935   4.250  15.351  0.00  0.00    +0.000 A 
ATOM     13  C   UNL     1       4.955   4.190  16.327  0.00  0.00    +0.000 A 
ENDBRANCH   4   8
BRANCH   1  15
ATOM     14  N   UNL     1       0.381   3.031  20.365  0.00  0.00    +0.000 N 
ATOM     15  C   UNL     1       1.588   3.191  20.973  0.00  0.00    +0.000 C 
ATOM     16  O   UNL     1       1.734   2.856  22.145  0.00  0.00    +0.000 OA
ATOM     17  H   UNL     1      -0.375   2.630  20.902  0.00  0.00    +0.000 HD
ATOM     18  H   UNL     1       0.222   3.290  19.403  0.00  0.00    +0.000 HD
ENDBRANCH   1  15
TORSDOF 2
ENDMDL
MODEL 3
REMARK VINA RESULT:      -6.8      1.422      1.845
REMARK  Name = 
REMARK  2 active torsions:
REMARK  status: ('A' for Active; 'I' for Inactive)
REMARK    1  A    between atoms: C_2  and  C_4
REMARK    2  A    between atoms: C_7  and  C_8
REMARK                            x       y       z     vdW  Elec       q    Type
REMARK                         _______ _______ _______ _____ _____    ______ ____
ROOT
ATOM      1  C   UNL     1       1.998   3.554  18.814  0.00  0.00    +0.000 A 
ATOM      2  N   UNL     1       2.002   4.930  18.713  0.00  0.00    +0.000 N 
ATOM      3  C   UNL     1       3.159   5.365  18.127  0.00  0.00    +0.000 A 
ATOM      4  C   UNL     1       3.939   4.263  17.826  0.00  0.00    +0.000 A 
ATOM      5  C   UNL     1       3.208   3.120  18.291  0.00  0.00    +0.000 A 
ATOM      6 CL   UNL     1       3.760   1.503  18.222  0.00  0.00    +0.000 Cl
ATOM      7  H   UNL     1       1.236   5.513  19.032  0.00  0.00    +0.000 HD
ENDROOT
BRANCH   4   8
ATOM      8  C   UNL     1       5.231   4.378  17.152  0.00  0.00    +0.000 A 
ATOM      9  C   UNL     1       6.412   4.552  17.879  0.00  0.00    +0.000 A 
ATOM     10  C   UNL     1       7.609   4.672  17.190  0.00  0.00    +0.000 A 
ATOM     11  N   UNL     1       7.712   4.621  15.847  0.00  0.00    +0.000 NA
ATOM     12  C   UNL     1       6.564   4.454  15.162  0.00  0.00    +0.000 A 
ATOM     13  C   UNL     1       5.319   4.342  15.758  0.00  0.00    +0.000 A 
ENDBRANCH   4   8
BRANCH   1  15
ATOM     14  N   UNL     1       0.608   3.087  20.701  0.00  0.00    +0.000 N 
ATOM     15  C   UNL     1       0.863   2.872  19.382  0.00  0.00    +0.000 C 
ATOM     16  O   UNL     1       0.146   2.116  18.733  0.00  0.00    +0.000 OA
ATOM     17  H   UNL     1      -0.181   2.613  21.119  0.00  0.00    +0.000 HD
ATOM     18  H   UNL     1       1.171   3.704  21.267  0.00  0.00    +0.000 HD
ENDBRANCH   1  15
TORSDOF 2
ENDMDL
MODEL 4
REMARK VINA RESULT:      -6.7      1.645      1.645
REMARK  Name = 
REMARK  2 active torsions:
REMARK  status: ('A' for Active; 'I' for Inactive)
REMARK    1  A    between atoms: C_2  and  C_4
REMARK    2  A    between atoms: C_7  and  C_8
REMARK                            x       y       z     vdW  Elec       q    Type
REMARK                         _______ _______ _______ _____ _____    ______ ____
ROOT
ATOM      1  C   UNL     1       1.920   3.738  18.610  0.00  0.00    +0.000 A 
ATOM      2  N   UNL     1       1.825   5.114  18.607  0.00  0.00    +0.000 N 
ATOM      3  C   UNL     1       2.921   5.670  18.005  0.00  0.00    +0.000 A 
ATOM      4  C   UNL     1       3.760   4.650  17.595  0.00  0.00    +0.000 A 
ATOM      5  C   UNL     1       3.132   3.428  18.008  0.00  0.00    +0.000 A 
ATOM      6 CL   UNL     1       3.790   1.863  17.801  0.00  0.00    +0.000 Cl
ATOM      7  H   UNL     1       1.037   5.617  18.998  0.00  0.00    +0.000 HD
ENDROOT
BRANCH   4   8
ATOM      8  C   UNL     1       5.008   4.903  16.876  0.00  0.00    +0.000 A 
ATOM      9  C   UNL     1       5.274   4.283  15.652  0.00  0.00    +0.000 A 
ATOM     10  C   UNL     1       6.480   4.545  15.019  0.00  0.00    +0.000 A 
ATOM     11  N   UNL     1       7.420   5.379  15.508  0.00  0.00    +0.000 NA
ATOM     12  C   UNL     1       7.147   5.966  16.690  0.00  0.00    +0.000 A 
ATOM     13  C   UNL     1       5.980   5.755  17.406  0.00  0.00    +0.000 A 
ENDBRANCH   4   8
BRANCH   1  15
ATOM     14  N   UNL     1       0.585   3.123  20.494  0.00  0.00    +0.000 N 
ATOM     15  C   UNL     1       0.863   2.939  19.175  0.00  0.00    +0.000 C 
ATOM     16  O   UNL     1       0.230   2.113  18.524  0.00  0.00    +0.000 OA
ATOM     17  H   UNL     1      -0.150   2.568  20.910  0.00  0.00    +0.000 HD
ATOM     18  H   UNL     1       1.080   3.795  21.063  0.00  0.00    +0.000 HD
ENDBRANCH   1  15
TORSDOF 2
ENDMDL
MODEL 5
REMARK VINA RESULT:      -6.6      1.526      2.146
REMARK  Name = 
REMARK  2 active torsions:
REMARK  status: ('A' for Active; 'I' for Inactive)
REMARK    1  A    between atoms: C_2  and  C_4
REMARK    2  A    between atoms: C_7  and  C_8
REMARK                            x       y       z     vdW  Elec       q    Type
REMARK                         _______ _______ _______ _____ _____    ______ ____
ROOT
ATOM      1  C   UNL     1       2.758   3.011  19.708  0.00  0.00    +0.000 A 
ATOM      2  N   UNL     1       2.980   1.919  18.896  0.00  0.00    +0.000 N 
ATOM      3  C   UNL     1       3.879   2.227  17.912  0.00  0.00    +0.000 A 
ATOM      4  C   UNL     1       4.269   3.544  18.072  0.00  0.00    +0.000 A 
ATOM      5  C   UNL     1       3.531   4.043  19.196  0.00  0.00    +0.000 A 
ATOM      6 CL   UNL     1       3.593   5.649  19.780  0.00  0.00    +0.000 Cl
ATOM      7  H   UNL     1       2.530   1.021  19.036  0.00  0.00    +0.000 HD
ENDROOT
BRANCH   4   8
ATOM      8  C   UNL     1       5.258   4.179  17.203  0.00  0.00    +0.000 A 
ATOM      9  C   UNL     1       6.425   4.742  17.728  0.00  0.00    +0.000 A 
ATOM     10  C   UNL     1       7.324   5.346  16.863  0.00  0.00    +0.000 A 
ATOM     11  N   UNL     1       7.150   5.418  15.528  0.00  0.00    +0.000 NA
ATOM     12  C   UNL     1       6.019   4.872  15.038  0.00  0.00    +0.000 A 
ATOM     13  C   UNL     1       5.054   4.263  15.823  0.00  0.00    +0.000 A 
ENDBRANCH   4   8
BRANCH   1  15
ATOM     14  N   UNL     1       0.538   3.114  20.585  0.00  0.00    +0.000 N 
ATOM     15  C   UNL     1       1.860   2.910  20.830  0.00  0.00    +0.000 C 
ATOM     16  O   UNL     1       2.243   2.662  21.970  0.00  0.00    +0.000 OA
ATOM     17  H   UNL     1      -0.107   3.052  21.361  0.00  0.00    +0.000 HD
ATOM     18  H   UNL     1       0.184   3.316  19.662  0.00  0.00    +0.000 HD
ENDBRANCH   1  15
TORSDOF 2
ENDMDL
MODEL 6
REMARK VINA RESULT:      -6.6      1.535      1.779
REMARK  Name = 
REMARK  2 active torsions:
REMARK  status: ('A' for Active; 'I' for Inactive)
REMARK    1  A    between atoms: C_2  and  C_4
REMARK    2  A    between atoms: C_7  and  C_8
REMARK                            x       y       z     vdW  Elec       q    Type
REMARK                         _______ _______ _______ _____ _____    ______ ____
ROOT
ATOM      1  C   UNL     1       2.675   3.056  19.647  0.00  0.00    +0.000 A 
ATOM      2  N   UNL     1       2.917   1.966  18.838  0.00  0.00    +0.000 N 
ATOM      3  C   UNL     1       3.842   2.276  17.878  0.00  0.00    +0.000 A 
ATOM      4  C   UNL     1       4.228   3.592  18.051  0.00  0.00    +0.000 A 
ATOM      5  C   UNL     1       3.462   4.089  19.157  0.00  0.00    +0.000 A 
ATOM      6 CL   UNL     1       3.510   5.693  19.747  0.00  0.00    +0.000 Cl
ATOM      7  H   UNL     1       2.463   1.068  18.964  0.00  0.00    +0.000 HD
ENDROOT
BRANCH   4   8
ATOM      8  C   UNL     1       5.241   4.228  17.210  0.00  0.00    +0.000 A 
ATOM      9  C   UNL     1       5.144   4.198  15.815  0.00  0.00    +0.000 A 
ATOM     10  C   UNL     1       6.139   4.802  15.063  0.00  0.00    +0.000 A 
ATOM     11  N   UNL     1       7.204   5.435  15.595  0.00  0.00    +0.000 NA
ATOM     12  C   UNL     1       7.282   5.453  16.941  0.00  0.00    +0.000 A 
ATOM     13  C   UNL     1       6.348   4.864  17.776  0.00  0.00    +0.000 A 
ENDBRANCH   4   8
BRANCH   1  15
ATOM     14  N   UNL     1       0.430   3.139  20.462  0.00  0.00    +0.000 N 
ATOM     15  C   UNL     1       1.748   2.953  20.744  0.00  0.00    +0.000 C 
ATOM     16  O   UNL     1       2.101   2.720  21.897  0.00  0.00    +0.000 OA
ATOM     17  H   UNL     1      -0.235   3.076  21.220  0.00  0.00    +0.000 HD
ATOM     18  H   UNL     1       0.099   3.329  19.527  0.00  0.00    +0.000 HD
ENDBRANCH   1  15
TORSDOF 2
ENDMDL
MODEL 7
REMARK VINA RESULT:      -6.6      2.075      2.311
REMARK  Name = 
REMARK  2 active torsions:
REMARK  status: ('A' for Active; 'I' for Inactive)
REMARK    1  A    between atoms: C_2  and  C_4
REMARK    2  A    between atoms: C_7  and  C_8
REMARK                            x       y       z     vdW  Elec       q    Type
REMARK                         _______ _______ _______ _____ _____    ______ ____
ROOT
ATOM      1  C   UNL     1       2.168   2.952  18.534  0.00  0.00    +0.000 A 
ATOM      2  N   UNL     1       2.946   1.843  18.274  0.00  0.00    +0.000 N 
ATOM      3  C   UNL     1       4.107   2.206  17.648  0.00  0.00    +0.000 A 
ATOM      4  C   UNL     1       4.107   3.580  17.489  0.00  0.00    +0.000 A 
ATOM      5  C   UNL     1       2.862   4.042  18.028  0.00  0.00    +0.000 A 
ATOM      6 CL   UNL     1       2.329   5.668  18.022  0.00  0.00    +0.000 Cl
ATOM      7  H   UNL     1       2.673   0.900  18.530  0.00  0.00    +0.000 HD
ENDROOT
BRANCH   4   8
ATOM      8  C   UNL     1       5.229   4.298  16.887  0.00  0.00    +0.000 A 
ATOM      9  C   UNL     1       5.706   3.958  15.617  0.00  0.00    +0.000 A 
ATOM     10  C   UNL     1       6.783   4.660  15.098  0.00  0.00    +0.000 A 
ATOM     11  N   UNL     1       7.403   5.670  15.741  0.00  0.00    +0.000 NA
ATOM     12  C   UNL     1       6.931   5.983  16.964  0.00  0.00    +0.000 A 
ATOM     13  C   UNL     1       5.873   5.330  17.574  0.00  0.00    +0.000 A 
ENDBRANCH   4   8
BRANCH   1  15
ATOM     14  N   UNL     1       0.742   3.505  20.369  0.00  0.00    +0.000 N 
ATOM     15  C   UNL     1       0.905   2.809  19.211  0.00  0.00    +0.000 C 
ATOM     16  O   UNL     1       0.001   2.092  18.793  0.00  0.00    +0.000 OA
ATOM     17  H   UNL     1      -0.136   3.414  20.862  0.00  0.00    +0.000 HD
ATOM     18  H   UNL     1       1.459   4.108  20.744  0.00  0.00    +0.000 HD
ENDBRANCH   1  15
TORSDOF 2
ENDMDL
MODEL 8
REMARK VINA RESULT:      -6.5      1.799      2.135
REMARK  Name = 
REMARK  2 active torsions:
REMARK  status: ('A' for Active; 'I' for Inactive)
REMARK    1  A    between atoms: C_2  and  C_4
REMARK    2  A    between atoms: C_7  and  C_8
REMARK                            x       y       z     vdW  Elec       q    Type
REMARK                         _______ _______ _______ _____ _____    ______ ____
ROOT
ATOM      1  C   UNL     1       2.822   2.948  19.770  0.00  0.00    +0.000 A 
ATOM      2  N   UNL     1       2.964   1.887  18.900  0.00  0.00    +0.000 N 
ATOM      3  C   UNL     1       3.641   2.276  17.776  0.00  0.00    +0.000 A 
ATOM      4  C   UNL     1       3.960   3.615  17.898  0.00  0.00    +0.000 A 
ATOM      5  C   UNL     1       3.412   4.042  19.153  0.00  0.00    +0.000 A 
ATOM      6 CL   UNL     1       3.470   5.639  19.761  0.00  0.00    +0.000 Cl
ATOM      7  H   UNL     1       2.612   0.957  19.096  0.00  0.00    +0.000 HD
ENDROOT
BRANCH   4   8
ATOM      8  C   UNL     1       4.724   4.334  16.880  0.00  0.00    +0.000 A 
ATOM      9  C   UNL     1       5.628   3.665  16.049  0.00  0.00    +0.000 A 
ATOM     10  C   UNL     1       6.340   4.395  15.110  0.00  0.00    +0.000 A 
ATOM     11  N   UNL     1       6.208   5.726  14.936  0.00  0.00    +0.000 NA
ATOM     12  C   UNL     1       5.335   6.355  15.746  0.00  0.00    +0.000 A 
ATOM     13  C   UNL     1       4.591   5.716  16.725  0.00  0.00    +0.000 A 
ENDBRANCH   4   8
BRANCH   1  15
ATOM     14  N   UNL     1       0.808   2.932  21.056  0.00  0.00    +0.000 N 
ATOM     15  C   UNL     1       2.157   2.764  21.035  0.00  0.00    +0.000 C 
ATOM     16  O   UNL     1       2.757   2.479  22.068  0.00  0.00    +0.000 OA
ATOM     17  H   UNL     1       0.324   2.813  21.935  0.00  0.00    +0.000 HD
ATOM     18  H   UNL     1       0.278   3.163  20.228  0.00  0.00    +0.000 HD
ENDBRANCH   1  15
TORSDOF 2
ENDMDL
MODEL 9
REMARK VINA RESULT:      -6.5      2.088      2.487
REMARK  Name = 
REMARK  2 active torsions:
REMARK  status: ('A' for Active; 'I' for Inactive)
REMARK    1  A    between atoms: C_2  and  C_4
REMARK    2  A    between atoms: C_7  and  C_8
REMARK                            x       y       z     vdW  Elec       q    Type
REMARK                         _______ _______ _______ _____ _____    ______ ____
ROOT
ATOM      1  C   UNL     1       2.178   3.086  18.577  0.00  0.00    +0.000 A 
ATOM      2  N   UNL     1       2.952   1.973  18.321  0.00  0.00    +0.000 N 
ATOM      3  C   UNL     1       4.117   2.331  17.699  0.00  0.00    +0.000 A 
ATOM      4  C   UNL     1       4.124   3.705  17.540  0.00  0.00    +0.000 A 
ATOM      5  C   UNL     1       2.878   4.173  18.074  0.00  0.00    +0.000 A 
ATOM      6 CL   UNL     1       2.352   5.801  18.065  0.00  0.00    +0.000 Cl
ATOM      7  H   UNL     1       2.674   1.032  18.576  0.00  0.00    +0.000 HD
ENDROOT
BRANCH   4   8
ATOM      8  C   UNL     1       5.251   4.418  16.942  0.00  0.00    +0.000 A 
ATOM      9  C   UNL     1       5.766   5.578  17.530  0.00  0.00    +0.000 A 
ATOM     10  C   UNL     1       6.826   6.225  16.914  0.00  0.00    +0.000 A 
ATOM     11  N   UNL     1       7.408   5.799  15.775  0.00  0.00    +0.000 NA
ATOM     12  C   UNL     1       6.899   4.681  15.221  0.00  0.00    +0.000 A 
ATOM     13  C   UNL     1       5.832   3.974  15.751  0.00  0.00    +0.000 A 
ENDBRANCH   4   8
BRANCH   1  15
ATOM     14  N   UNL     1       0.715   3.708  20.361  0.00  0.00    +0.000 N 
ATOM     15  C   UNL     1       0.911   2.949  19.249  0.00  0.00    +0.000 C 
ATOM     16  O   UNL     1       0.032   2.183  18.866  0.00  0.00    +0.000 OA
ATOM     17  H   UNL     1      -0.165   3.623  20.849  0.00  0.00    +0.000 HD
ATOM     18  H   UNL     1       1.411   4.353  20.705  0.00  0.00    +0.000 HD
ENDBRANCH   1  15
TORSDOF 2
ENDMDL
