MODEL 1
REMARK VINA RESULT:      -6.9      0.000      0.000
REMARK  Name = 
REMARK  9 active torsions:
REMARK  status: ('A' for Active; 'I' for Inactive)
REMARK    1  A    between atoms: C_1  and  C_2
REMARK    2  A    between atoms: C_2  and  C_3
REMARK    3  A    between atoms: C_2  and  C_4
REMARK    4  A    between atoms: C_2  and  O_5
REMARK    5  A    between atoms: O_5  and  C_6
REMARK    6  A    between atoms: C_6  and  C_8
REMARK    7  A    between atoms: C_8  and  N_9
REMARK    8  A    between atoms: C_12  and  N_13
REMARK    9  A    between atoms: C_14  and  C_16
REMARK                            x       y       z     vdW  Elec       q    Type
REMARK                         _______ _______ _______ _____ _____    ______ ____
ROOT
ATOM      1  N   UNL     1      -1.471  14.367  21.319  0.00  0.00    +0.000 N 
ATOM      2  C   UNL     1      -0.821  13.771  22.397  0.00  0.00    +0.000 C 
ATOM      3  O   UNL     1       0.326  14.127  22.706  0.00  0.00    +0.000 OA
ATOM      4  C   UNL     1      -1.363  12.507  23.019  0.00  0.00    +0.000 C 
ATOM      5  C   UNL     1      -2.756  12.618  23.607  0.00  0.00    +0.000 C 
ATOM      6  C   UNL     1      -3.843  12.711  22.568  0.00  0.00    +0.000 C 
ATOM      7  C   UNL     1      -3.937  14.045  21.883  0.00  0.00    +0.000 A 
ATOM      8  C   UNL     1      -5.269  14.522  21.718  0.00  0.00    +0.000 A 
ATOM      9  C   UNL     1      -5.556  15.735  21.105  0.00  0.00    +0.000 A 
ATOM     10  C   UNL     1      -4.512  16.505  20.636  0.00  0.00    +0.000 A 
ATOM     11  C   UNL     1      -3.201  16.027  20.733  0.00  0.00    +0.000 A 
ATOM     12  C   UNL     1      -2.866  14.787  21.329  0.00  0.00    +0.000 A 
ENDROOT
BRANCH   4  13
ATOM     13  N   UNL     1      -1.149  11.387  22.098  0.00  0.00    +0.000 N 
ATOM     14  C   UNL     1      -0.340  10.346  22.499  0.00  0.00    +0.000 C 
ATOM     15  O   UNL     1      -0.092  10.174  23.690  0.00  0.00    +0.000 OA
ATOM     16  H   UNL     1      -1.312  11.532  21.108  0.00  0.00    +0.000 HD
BRANCH  14  17
ATOM     17  C   UNL     1       0.209   9.518  21.477  0.00  0.00    +0.000 A 
ATOM     18  C   UNL     1       0.545   8.187  21.336  0.00  0.00    +0.000 A 
ATOM     19  C   UNL     1       1.371   8.108  20.171  0.00  0.00    +0.000 A 
ATOM     20  C   UNL     1       2.383   7.268  19.676  0.00  0.00    +0.000 A 
ATOM     21  C   UNL     1       2.930   7.561  18.415  0.00  0.00    +0.000 A 
ATOM     22  C   UNL     1       2.347   8.515  17.577  0.00  0.00    +0.000 A 
ATOM     23  C   UNL     1       1.334   9.347  18.046  0.00  0.00    +0.000 A 
ATOM     24  C   UNL     1       1.029   9.207  19.396  0.00  0.00    +0.000 A 
ATOM     25  N   UNL     1       0.602  10.132  20.304  0.00  0.00    +0.000 N 
ATOM     26  H   UNL     1       0.736  11.130  20.210  0.00  0.00    +0.000 HD
ENDBRANCH  14  17
ENDBRANCH   4  13
BRANCH   1  27
ATOM     27  C   UNL     1      -0.572  14.920  20.303  0.00  0.00    +0.000 C 
BRANCH  27  28
ATOM     28  C   UNL     1       0.048  13.919  19.339  0.00  0.00    +0.000 C 
ATOM     29  O   UNL     1      -0.300  12.744  19.325  0.00  0.00    +0.000 OA
BRANCH  28  30
ATOM     30  O   UNL     1       1.025  14.449  18.554  0.00  0.00    +0.000 OA
BRANCH  30  32
ATOM     31  C   UNL     1       2.628  12.588  18.063  0.00  0.00    +0.000 C 
ATOM     32  C   UNL     1       2.389  13.964  18.697  0.00  0.00    +0.000 C 
ATOM     33  C   UNL     1       2.760  13.969  20.187  0.00  0.00    +0.000 C 
ATOM     34  C   UNL     1       3.273  14.979  17.954  0.00  0.00    +0.000 C 
ENDBRANCH  30  32
ENDBRANCH  28  30
ENDBRANCH  27  28
ENDBRANCH   1  27
TORSDOF 6
ENDMDL
MODEL 2
REMARK VINA RESULT:      -6.7      3.235      5.517
REMARK  Name = 
REMARK  9 active torsions:
REMARK  status: ('A' for Active; 'I' for Inactive)
REMARK    1  A    between atoms: C_1  and  C_2
REMARK    2  A    between atoms: C_2  and  C_3
REMARK    3  A    between atoms: C_2  and  C_4
REMARK    4  A    between atoms: C_2  and  O_5
REMARK    5  A    between atoms: O_5  and  C_6
REMARK    6  A    between atoms: C_6  and  C_8
REMARK    7  A    between atoms: C_8  and  N_9
REMARK    8  A    between atoms: C_12  and  N_13
REMARK    9  A    between atoms: C_14  and  C_16
REMARK                            x       y       z     vdW  Elec       q    Type
REMARK                         _______ _______ _______ _____ _____    ______ ____
ROOT
ATOM      1  N   UNL     1      -6.082  13.489  21.691  0.00  0.00    +0.000 N 
ATOM      2  C   UNL     1      -6.584  12.531  20.812  0.00  0.00    +0.000 C 
ATOM      3  O   UNL     1      -6.778  11.370  21.203  0.00  0.00    +0.000 OA
ATOM      4  C   UNL     1      -6.626  12.797  19.327  0.00  0.00    +0.000 C 
ATOM      5  C   UNL     1      -7.472  13.980  18.902  0.00  0.00    +0.000 C 
ATOM      6  C   UNL     1      -6.856  15.313  19.240  0.00  0.00    +0.000 C 
ATOM      7  C   UNL     1      -6.925  15.680  20.696  0.00  0.00    +0.000 A 
ATOM      8  C   UNL     1      -7.290  17.037  20.937  0.00  0.00    +0.000 A 
ATOM      9  C   UNL     1      -7.404  17.561  22.218  0.00  0.00    +0.000 A 
ATOM     10  C   UNL     1      -7.152  16.739  23.297  0.00  0.00    +0.000 A 
ATOM     11  C   UNL     1      -6.733  15.422  23.081  0.00  0.00    +0.000 A 
ATOM     12  C   UNL     1      -6.582  14.854  21.793  0.00  0.00    +0.000 A 
ENDROOT
BRANCH   4  13
ATOM     13  N   UNL     1      -5.261  12.766  18.793  0.00  0.00    +0.000 N 
ATOM     14  C   UNL     1      -4.823  11.620  18.165  0.00  0.00    +0.000 C 
ATOM     15  O   UNL     1      -5.628  10.792  17.747  0.00  0.00    +0.000 OA
ATOM     16  H   UNL     1      -4.579  13.419  19.162  0.00  0.00    +0.000 HD
BRANCH  14  17
ATOM     17  C   UNL     1      -3.413  11.436  18.058  0.00  0.00    +0.000 A 
ATOM     18  C   UNL     1      -2.561  10.455  17.593  0.00  0.00    +0.000 A 
ATOM     19  C   UNL     1      -1.267  10.777  18.110  0.00  0.00    +0.000 A 
ATOM     20  C   UNL     1      -0.085  10.092  18.437  0.00  0.00    +0.000 A 
ATOM     21  C   UNL     1       1.004  10.840  18.916  0.00  0.00    +0.000 A 
ATOM     22  C   UNL     1       1.002  12.236  18.865  0.00  0.00    +0.000 A 
ATOM     23  C   UNL     1      -0.156  12.932  18.529  0.00  0.00    +0.000 A 
ATOM     24  C   UNL     1      -1.288  12.145  18.345  0.00  0.00    +0.000 A 
ATOM     25  N   UNL     1      -2.602  12.417  18.594  0.00  0.00    +0.000 N 
ATOM     26  H   UNL     1      -2.926  13.123  19.242  0.00  0.00    +0.000 HD
ENDBRANCH  14  17
ENDBRANCH   4  13
BRANCH   1  27
ATOM     27  C   UNL     1      -5.291  12.940  22.794  0.00  0.00    +0.000 C 
BRANCH  27  28
ATOM     28  C   UNL     1      -3.782  12.918  22.592  0.00  0.00    +0.000 C 
ATOM     29  O   UNL     1      -3.283  12.531  21.542  0.00  0.00    +0.000 OA
BRANCH  28  30
ATOM     30  O   UNL     1      -3.078  13.321  23.684  0.00  0.00    +0.000 OA
BRANCH  30  32
ATOM     31  C   UNL     1      -3.019  15.556  22.553  0.00  0.00    +0.000 C 
ATOM     32  C   UNL     1      -2.629  14.702  23.766  0.00  0.00    +0.000 C 
ATOM     33  C   UNL     1      -1.111  14.715  23.999  0.00  0.00    +0.000 C 
ATOM     34  C   UNL     1      -3.331  15.297  24.999  0.00  0.00    +0.000 C 
ENDBRANCH  30  32
ENDBRANCH  28  30
ENDBRANCH  27  28
ENDBRANCH   1  27
TORSDOF 6
ENDMDL
MODEL 3
REMARK VINA RESULT:      -6.3      2.429      3.439
REMARK  Name = 
REMARK  9 active torsions:
REMARK  status: ('A' for Active; 'I' for Inactive)
REMARK    1  A    between atoms: C_1  and  C_2
REMARK    2  A    between atoms: C_2  and  C_3
REMARK    3  A    between atoms: C_2  and  C_4
REMARK    4  A    between atoms: C_2  and  O_5
REMARK    5  A    between atoms: O_5  and  C_6
REMARK    6  A    between atoms: C_6  and  C_8
REMARK    7  A    between atoms: C_8  and  N_9
REMARK    8  A    between atoms: C_12  and  N_13
REMARK    9  A    between atoms: C_14  and  C_16
REMARK                            x       y       z     vdW  Elec       q    Type
REMARK                         _______ _______ _______ _____ _____    ______ ____
ROOT
ATOM      1  N   UNL     1      -2.893  13.129  20.670  0.00  0.00    +0.000 N 
ATOM      2  C   UNL     1      -1.645  13.624  21.040  0.00  0.00    +0.000 C 
ATOM      3  O   UNL     1      -0.972  14.281  20.231  0.00  0.00    +0.000 OA
ATOM      4  C   UNL     1      -0.967  13.139  22.298  0.00  0.00    +0.000 C 
ATOM      5  C   UNL     1      -1.723  13.403  23.586  0.00  0.00    +0.000 C 
ATOM      6  C   UNL     1      -2.935  12.526  23.763  0.00  0.00    +0.000 C 
ATOM      7  C   UNL     1      -4.107  12.903  22.900  0.00  0.00    +0.000 A 
ATOM      8  C   UNL     1      -5.361  12.875  23.578  0.00  0.00    +0.000 A 
ATOM      9  C   UNL     1      -6.556  13.190  22.945  0.00  0.00    +0.000 A 
ATOM     10  C   UNL     1      -6.530  13.541  21.612  0.00  0.00    +0.000 A 
ATOM     11  C   UNL     1      -5.318  13.516  20.914  0.00  0.00    +0.000 A 
ATOM     12  C   UNL     1      -4.080  13.178  21.512  0.00  0.00    +0.000 A 
ENDROOT
BRANCH   4  13
ATOM     13  N   UNL     1      -0.510  11.761  22.100  0.00  0.00    +0.000 N 
ATOM     14  C   UNL     1       0.700  11.549  21.477  0.00  0.00    +0.000 C 
ATOM     15  O   UNL     1       1.531  12.451  21.407  0.00  0.00    +0.000 OA
ATOM     16  H   UNL     1      -1.196  11.014  22.115  0.00  0.00    +0.000 HD
BRANCH  14  17
ATOM     17  C   UNL     1       0.919  10.264  20.901  0.00  0.00    +0.000 A 
ATOM     18  C   UNL     1       0.824   8.949  21.312  0.00  0.00    +0.000 A 
ATOM     19  C   UNL     1       1.529   8.176  20.336  0.00  0.00    +0.000 A 
ATOM     20  C   UNL     1       2.210   6.949  20.285  0.00  0.00    +0.000 A 
ATOM     21  C   UNL     1       2.758   6.546  19.055  0.00  0.00    +0.000 A 
ATOM     22  C   UNL     1       2.456   7.223  17.871  0.00  0.00    +0.000 A 
ATOM     23  C   UNL     1       1.770   8.434  17.901  0.00  0.00    +0.000 A 
ATOM     24  C   UNL     1       1.503   8.932  19.172  0.00  0.00    +0.000 A 
ATOM     25  N   UNL     1       1.424  10.221  19.616  0.00  0.00    +0.000 N 
ATOM     26  H   UNL     1       1.852  11.011  19.153  0.00  0.00    +0.000 HD
ENDBRANCH  14  17
ENDBRANCH   4  13
BRANCH   1  27
ATOM     27  C   UNL     1      -3.055  12.914  19.230  0.00  0.00    +0.000 C 
BRANCH  27  28
ATOM     28  C   UNL     1      -2.300  11.732  18.638  0.00  0.00    +0.000 C 
ATOM     29  O   UNL     1      -1.675  10.952  19.348  0.00  0.00    +0.000 OA
BRANCH  28  30
ATOM     30  O   UNL     1      -2.361  11.668  17.281  0.00  0.00    +0.000 OA
BRANCH  30  32
ATOM     31  C   UNL     1      -4.769  11.595  16.593  0.00  0.00    +0.000 C 
ATOM     32  C   UNL     1      -3.412  10.881  16.656  0.00  0.00    +0.000 C 
ATOM     33  C   UNL     1      -3.519   9.534  17.385  0.00  0.00    +0.000 C 
ATOM     34  C   UNL     1      -2.948  10.635  15.211  0.00  0.00    +0.000 C 
ENDBRANCH  30  32
ENDBRANCH  28  30
ENDBRANCH  27  28
ENDBRANCH   1  27
TORSDOF 6
ENDMDL
MODEL 4
REMARK VINA RESULT:      -6.3      2.611      6.339
REMARK  Name = 
REMARK  9 active torsions:
REMARK  status: ('A' for Active; 'I' for Inactive)
REMARK    1  A    between atoms: C_1  and  C_2
REMARK    2  A    between atoms: C_2  and  C_3
REMARK    3  A    between atoms: C_2  and  C_4
REMARK    4  A    between atoms: C_2  and  O_5
REMARK    5  A    between atoms: O_5  and  C_6
REMARK    6  A    between atoms: C_6  and  C_8
REMARK    7  A    between atoms: C_8  and  N_9
REMARK    8  A    between atoms: C_12  and  N_13
REMARK    9  A    between atoms: C_14  and  C_16
REMARK                            x       y       z     vdW  Elec       q    Type
REMARK                         _______ _______ _______ _____ _____    ______ ____
ROOT
ATOM      1  N   UNL     1       0.473  13.159  20.931  0.00  0.00    +0.000 N 
ATOM      2  C   UNL     1      -0.292  13.712  21.956  0.00  0.00    +0.000 C 
ATOM      3  O   UNL     1      -0.326  13.167  23.070  0.00  0.00    +0.000 OA
ATOM      4  C   UNL     1      -1.304  14.793  21.663  0.00  0.00    +0.000 C 
ATOM      5  C   UNL     1      -0.739  16.068  21.068  0.00  0.00    +0.000 C 
ATOM      6  C   UNL     1      -0.307  15.922  19.632  0.00  0.00    +0.000 C 
ATOM      7  C   UNL     1       0.978  15.165  19.441  0.00  0.00    +0.000 A 
ATOM      8  C   UNL     1       1.862  15.751  18.489  0.00  0.00    +0.000 A 
ATOM      9  C   UNL     1       3.096  15.194  18.178  0.00  0.00    +0.000 A 
ATOM     10  C   UNL     1       3.478  14.030  18.812  0.00  0.00    +0.000 A 
ATOM     11  C   UNL     1       2.600  13.407  19.704  0.00  0.00    +0.000 A 
ATOM     12  C   UNL     1       1.324  13.927  20.033  0.00  0.00    +0.000 A 
ENDROOT
BRANCH   4  13
ATOM     13  N   UNL     1      -2.442  14.207  20.949  0.00  0.00    +0.000 N 
ATOM     14  C   UNL     1      -3.717  14.563  21.331  0.00  0.00    +0.000 C 
ATOM     15  O   UNL     1      -3.908  15.583  21.989  0.00  0.00    +0.000 OA
ATOM     16  H   UNL     1      -2.303  13.343  20.436  0.00  0.00    +0.000 HD
BRANCH  14  17
ATOM     17  C   UNL     1      -4.776  13.686  20.958  0.00  0.00    +0.000 A 
ATOM     18  C   UNL     1      -6.088  13.478  21.335  0.00  0.00    +0.000 A 
ATOM     19  C   UNL     1      -6.459  12.206  20.796  0.00  0.00    +0.000 A 
ATOM     20  C   UNL     1      -7.375  11.185  21.095  0.00  0.00    +0.000 A 
ATOM     21  C   UNL     1      -7.421  10.066  20.245  0.00  0.00    +0.000 A 
ATOM     22  C   UNL     1      -6.742  10.055  19.025  0.00  0.00    +0.000 A 
ATOM     23  C   UNL     1      -5.839  11.066  18.706  0.00  0.00    +0.000 A 
ATOM     24  C   UNL     1      -5.617  12.001  19.712  0.00  0.00    +0.000 A 
ATOM     25  N   UNL     1      -4.492  12.706  20.027  0.00  0.00    +0.000 N 
ATOM     26  H   UNL     1      -3.554  12.430  19.770  0.00  0.00    +0.000 HD
ENDBRANCH  14  17
ENDBRANCH   4  13
BRANCH   1  27
ATOM     27  C   UNL     1       0.692  11.716  21.053  0.00  0.00    +0.000 C 
BRANCH  27  28
ATOM     28  C   UNL     1      -0.539  10.834  20.898  0.00  0.00    +0.000 C 
ATOM     29  O   UNL     1      -0.667   9.795  21.536  0.00  0.00    +0.000 OA
BRANCH  28  30
ATOM     30  O   UNL     1      -1.426  11.292  19.973  0.00  0.00    +0.000 OA
BRANCH  30  32
ATOM     31  C   UNL     1       0.087  10.204  18.299  0.00  0.00    +0.000 C 
ATOM     32  C   UNL     1      -1.174  11.037  18.564  0.00  0.00    +0.000 C 
ATOM     33  C   UNL     1      -1.127  12.380  17.820  0.00  0.00    +0.000 C 
ATOM     34  C   UNL     1      -2.381  10.227  18.063  0.00  0.00    +0.000 C 
ENDBRANCH  30  32
ENDBRANCH  28  30
ENDBRANCH  27  28
ENDBRANCH   1  27
TORSDOF 6
ENDMDL
MODEL 5
REMARK VINA RESULT:      -6.3      2.618      3.638
REMARK  Name = 
REMARK  9 active torsions:
REMARK  status: ('A' for Active; 'I' for Inactive)
REMARK    1  A    between atoms: C_1  and  C_2
REMARK    2  A    between atoms: C_2  and  C_3
REMARK    3  A    between atoms: C_2  and  C_4
REMARK    4  A    between atoms: C_2  and  O_5
REMARK    5  A    between atoms: O_5  and  C_6
REMARK    6  A    between atoms: C_6  and  C_8
REMARK    7  A    between atoms: C_8  and  N_9
REMARK    8  A    between atoms: C_12  and  N_13
REMARK    9  A    between atoms: C_14  and  C_16
REMARK                            x       y       z     vdW  Elec       q    Type
REMARK                         _______ _______ _______ _____ _____    ______ ____
ROOT
ATOM      1  N   UNL     1      -4.297  13.396  20.921  0.00  0.00    +0.000 N 
ATOM      2  C   UNL     1      -2.978  13.821  21.061  0.00  0.00    +0.000 C 
ATOM      3  O   UNL     1      -2.484  14.601  20.231  0.00  0.00    +0.000 OA
ATOM      4  C   UNL     1      -2.046  13.135  22.030  0.00  0.00    +0.000 C 
ATOM      5  C   UNL     1      -2.471  13.184  23.484  0.00  0.00    +0.000 C 
ATOM      6  C   UNL     1      -3.644  12.293  23.800  0.00  0.00    +0.000 C 
ATOM      7  C   UNL     1      -4.968  12.809  23.309  0.00  0.00    +0.000 A 
ATOM      8  C   UNL     1      -6.030  12.672  24.250  0.00  0.00    +0.000 A 
ATOM      9  C   UNL     1      -7.326  13.090  23.975  0.00  0.00    +0.000 A 
ATOM     10  C   UNL     1      -7.595  13.655  22.747  0.00  0.00    +0.000 A 
ATOM     11  C   UNL     1      -6.581  13.742  21.788  0.00  0.00    +0.000 A 
ATOM     12  C   UNL     1      -5.253  13.309  22.016  0.00  0.00    +0.000 A 
ENDROOT
BRANCH   4  13
ATOM     13  N   UNL     1      -1.705  11.807  21.512  0.00  0.00    +0.000 N 
ATOM     14  C   UNL     1      -0.556  11.195  21.965  0.00  0.00    +0.000 C 
ATOM     15  O   UNL     1      -0.025  11.565  23.010  0.00  0.00    +0.000 OA
ATOM     16  H   UNL     1      -2.107  11.510  20.630  0.00  0.00    +0.000 HD
BRANCH  14  17
ATOM     17  C   UNL     1      -0.011  10.155  21.159  0.00  0.00    +0.000 A 
ATOM     18  C   UNL     1       0.145   8.787  21.254  0.00  0.00    +0.000 A 
ATOM     19  C   UNL     1       1.087   8.423  20.241  0.00  0.00    +0.000 A 
ATOM     20  C   UNL     1       2.020   7.398  20.018  0.00  0.00    +0.000 A 
ATOM     21  C   UNL     1       2.754   7.418  18.819  0.00  0.00    +0.000 A 
ATOM     22  C   UNL     1       2.422   8.292  17.782  0.00  0.00    +0.000 A 
ATOM     23  C   UNL     1       1.489   9.307  17.981  0.00  0.00    +0.000 A 
ATOM     24  C   UNL     1       1.005   9.421  19.280  0.00  0.00    +0.000 A 
ATOM     25  N   UNL     1       0.607  10.523  19.979  0.00  0.00    +0.000 N 
ATOM     26  H   UNL     1       0.894  11.469  19.766  0.00  0.00    +0.000 HD
ENDBRANCH  14  17
ENDBRANCH   4  13
BRANCH   1  27
ATOM     27  C   UNL     1      -4.797  13.422  19.544  0.00  0.00    +0.000 C 
BRANCH  27  28
ATOM     28  C   UNL     1      -5.002  12.068  18.879  0.00  0.00    +0.000 C 
ATOM     29  O   UNL     1      -5.538  11.138  19.472  0.00  0.00    +0.000 OA
BRANCH  28  30
ATOM     30  O   UNL     1      -4.504  11.999  17.615  0.00  0.00    +0.000 OA
BRANCH  30  32
ATOM     31  C   UNL     1      -3.573   9.679  17.791  0.00  0.00    +0.000 C 
ATOM     32  C   UNL     1      -3.365  11.134  17.350  0.00  0.00    +0.000 C 
ATOM     33  C   UNL     1      -2.118  11.746  18.004  0.00  0.00    +0.000 C 
ATOM     34  C   UNL     1      -3.185  11.137  15.823  0.00  0.00    +0.000 C 
ENDBRANCH  30  32
ENDBRANCH  28  30
ENDBRANCH  27  28
ENDBRANCH   1  27
TORSDOF 6
ENDMDL
MODEL 6
REMARK VINA RESULT:      -6.3      2.564      3.656
REMARK  Name = 
REMARK  9 active torsions:
REMARK  status: ('A' for Active; 'I' for Inactive)
REMARK    1  A    between atoms: C_1  and  C_2
REMARK    2  A    between atoms: C_2  and  C_3
REMARK    3  A    between atoms: C_2  and  C_4
REMARK    4  A    between atoms: C_2  and  O_5
REMARK    5  A    between atoms: O_5  and  C_6
REMARK    6  A    between atoms: C_6  and  C_8
REMARK    7  A    between atoms: C_8  and  N_9
REMARK    8  A    between atoms: C_12  and  N_13
REMARK    9  A    between atoms: C_14  and  C_16
REMARK                            x       y       z     vdW  Elec       q    Type
REMARK                         _______ _______ _______ _____ _____    ______ ____
ROOT
ATOM      1  N   UNL     1      -1.688  12.509  20.097  0.00  0.00    +0.000 N 
ATOM      2  C   UNL     1      -0.396  12.503  20.618  0.00  0.00    +0.000 C 
ATOM      3  O   UNL     1       0.535  13.014  19.977  0.00  0.00    +0.000 OA
ATOM      4  C   UNL     1      -0.049  11.640  21.807  0.00  0.00    +0.000 C 
ATOM      5  C   UNL     1      -0.820  11.944  23.076  0.00  0.00    +0.000 C 
ATOM      6  C   UNL     1      -2.259  11.500  23.027  0.00  0.00    +0.000 C 
ATOM      7  C   UNL     1      -3.150  12.366  22.181  0.00  0.00    +0.000 A 
ATOM      8  C   UNL     1      -4.415  12.652  22.771  0.00  0.00    +0.000 A 
ATOM      9  C   UNL     1      -5.372  13.435  22.139  0.00  0.00    +0.000 A 
ATOM     10  C   UNL     1      -5.089  13.952  20.892  0.00  0.00    +0.000 A 
ATOM     11  C   UNL     1      -3.878  13.633  20.269  0.00  0.00    +0.000 A 
ATOM     12  C   UNL     1      -2.884  12.821  20.867  0.00  0.00    +0.000 A 
ENDROOT
BRANCH   4  13
ATOM     13  N   UNL     1      -0.032  10.234  21.393  0.00  0.00    +0.000 N 
ATOM     14  C   UNL     1       1.006   9.433  21.816  0.00  0.00    +0.000 C 
ATOM     15  O   UNL     1       1.696   9.763  22.778  0.00  0.00    +0.000 OA
ATOM     16  H   UNL     1      -0.566   9.960  20.576  0.00  0.00    +0.000 HD
BRANCH  14  17
ATOM     17  C   UNL     1       1.253   8.242  21.073  0.00  0.00    +0.000 A 
ATOM     18  C   UNL     1       0.999   6.894  21.223  0.00  0.00    +0.000 A 
ATOM     19  C   UNL     1       1.830   6.225  20.271  0.00  0.00    +0.000 A 
ATOM     20  C   UNL     1       2.431   4.963  20.130  0.00  0.00    +0.000 A 
ATOM     21  C   UNL     1       3.182   4.713  18.968  0.00  0.00    +0.000 A 
ATOM     22  C   UNL     1       3.159   5.596  17.887  0.00  0.00    +0.000 A 
ATOM     23  C   UNL     1       2.556   6.846  18.004  0.00  0.00    +0.000 A 
ATOM     24  C   UNL     1       2.079   7.157  19.273  0.00  0.00    +0.000 A 
ATOM     25  N   UNL     1       1.995   8.359  19.913  0.00  0.00    +0.000 N 
ATOM     26  H   UNL     1       2.553   9.169  19.682  0.00  0.00    +0.000 HD
ENDBRANCH  14  17
ENDBRANCH   4  13
BRANCH   1  27
ATOM     27  C   UNL     1      -1.749  12.576  18.635  0.00  0.00    +0.000 C 
BRANCH  27  28
ATOM     28  C   UNL     1      -1.508  11.270  17.891  0.00  0.00    +0.000 C 
ATOM     29  O   UNL     1      -0.824  10.375  18.375  0.00  0.00    +0.000 OA
BRANCH  28  30
ATOM     30  O   UNL     1      -2.083  11.228  16.659  0.00  0.00    +0.000 OA
BRANCH  30  32
ATOM     31  C   UNL     1      -3.600   9.443  17.546  0.00  0.00    +0.000 C 
ATOM     32  C   UNL     1      -3.345  10.525  16.490  0.00  0.00    +0.000 C 
ATOM     33  C   UNL     1      -3.401   9.947  15.068  0.00  0.00    +0.000 C 
ATOM     34  C   UNL     1      -4.441  11.592  16.641  0.00  0.00    +0.000 C 
ENDBRANCH  30  32
ENDBRANCH  28  30
ENDBRANCH  27  28
ENDBRANCH   1  27
TORSDOF 6
ENDMDL
MODEL 7
REMARK VINA RESULT:      -6.3      3.539      5.483
REMARK  Name = 
REMARK  9 active torsions:
REMARK  status: ('A' for Active; 'I' for Inactive)
REMARK    1  A    between atoms: C_1  and  C_2
REMARK    2  A    between atoms: C_2  and  C_3
REMARK    3  A    between atoms: C_2  and  C_4
REMARK    4  A    between atoms: C_2  and  O_5
REMARK    5  A    between atoms: O_5  and  C_6
REMARK    6  A    between atoms: C_6  and  C_8
REMARK    7  A    between atoms: C_8  and  N_9
REMARK    8  A    between atoms: C_12  and  N_13
REMARK    9  A    between atoms: C_14  and  C_16
REMARK                            x       y       z     vdW  Elec       q    Type
REMARK                         _______ _______ _______ _____ _____    ______ ____
ROOT
ATOM      1  N   UNL     1      -6.074  14.600  19.860  0.00  0.00    +0.000 N 
ATOM      2  C   UNL     1      -6.582  13.338  19.559  0.00  0.00    +0.000 C 
ATOM      3  O   UNL     1      -6.785  12.517  20.467  0.00  0.00    +0.000 OA
ATOM      4  C   UNL     1      -6.619  12.843  18.134  0.00  0.00    +0.000 C 
ATOM      5  C   UNL     1      -7.455  13.673  17.180  0.00  0.00    +0.000 C 
ATOM      6  C   UNL     1      -6.829  14.997  16.826  0.00  0.00    +0.000 C 
ATOM      7  C   UNL     1      -6.898  16.029  17.916  0.00  0.00    +0.000 A 
ATOM      8  C   UNL     1      -7.253  17.333  17.461  0.00  0.00    +0.000 A 
ATOM      9  C   UNL     1      -7.364  18.417  18.322  0.00  0.00    +0.000 A 
ATOM     10  C   UNL     1      -7.121  18.226  19.666  0.00  0.00    +0.000 A 
ATOM     11  C   UNL     1      -6.712  16.969  20.123  0.00  0.00    +0.000 A 
ATOM     12  C   UNL     1      -6.563  15.843  19.279  0.00  0.00    +0.000 A 
ENDROOT
BRANCH   4  13
ATOM     13  N   UNL     1      -5.254  12.547  17.690  0.00  0.00    +0.000 N 
ATOM     14  C   UNL     1      -4.722  11.307  17.972  0.00  0.00    +0.000 C 
ATOM     15  O   UNL     1      -5.456  10.365  18.259  0.00  0.00    +0.000 OA
ATOM     16  H   UNL     1      -4.628  13.319  17.490  0.00  0.00    +0.000 HD
BRANCH  14  17
ATOM     17  C   UNL     1      -3.302  11.188  17.945  0.00  0.00    +0.000 A 
ATOM     18  C   UNL     1      -2.382  10.213  17.617  0.00  0.00    +0.000 A 
ATOM     19  C   UNL     1      -1.131  10.650  18.155  0.00  0.00    +0.000 A 
ATOM     20  C   UNL     1       0.065  10.062  18.600  0.00  0.00    +0.000 A 
ATOM     21  C   UNL     1       1.093  10.910  19.049  0.00  0.00    +0.000 A 
ATOM     22  C   UNL     1       1.026  12.291  18.859  0.00  0.00    +0.000 A 
ATOM     23  C   UNL     1      -0.146  12.891  18.406  0.00  0.00    +0.000 A 
ATOM     24  C   UNL     1      -1.229  12.031  18.252  0.00  0.00    +0.000 A 
ATOM     25  N   UNL     1      -2.565  12.257  18.416  0.00  0.00    +0.000 N 
ATOM     26  H   UNL     1      -2.953  13.004  18.975  0.00  0.00    +0.000 HD
ENDBRANCH  14  17
ENDBRANCH   4  13
BRANCH   1  27
ATOM     27  C   UNL     1      -5.289  14.656  21.095  0.00  0.00    +0.000 C 
BRANCH  27  28
ATOM     28  C   UNL     1      -3.776  14.689  20.927  0.00  0.00    +0.000 C 
ATOM     29  O   UNL     1      -3.174  15.742  20.755  0.00  0.00    +0.000 OA
BRANCH  28  30
ATOM     30  O   UNL     1      -3.197  13.458  20.948  0.00  0.00    +0.000 OA
BRANCH  30  32
ATOM     31  C   UNL     1      -1.525  11.874  21.935  0.00  0.00    +0.000 C 
ATOM     32  C   UNL     1      -2.533  13.008  22.161  0.00  0.00    +0.000 C 
ATOM     33  C   UNL     1      -3.602  12.614  23.191  0.00  0.00    +0.000 C 
ATOM     34  C   UNL     1      -1.754  14.226  22.687  0.00  0.00    +0.000 C 
ENDBRANCH  30  32
ENDBRANCH  28  30
ENDBRANCH  27  28
ENDBRANCH   1  27
TORSDOF 6
ENDMDL
MODEL 8
REMARK VINA RESULT:      -6.3      1.629      2.459
REMARK  Name = 
REMARK  9 active torsions:
REMARK  status: ('A' for Active; 'I' for Inactive)
REMARK    1  A    between atoms: C_1  and  C_2
REMARK    2  A    between atoms: C_2  and  C_3
REMARK    3  A    between atoms: C_2  and  C_4
REMARK    4  A    between atoms: C_2  and  O_5
REMARK    5  A    between atoms: O_5  and  C_6
REMARK    6  A    between atoms: C_6  and  C_8
REMARK    7  A    between atoms: C_8  and  N_9
REMARK    8  A    between atoms: C_12  and  N_13
REMARK    9  A    between atoms: C_14  and  C_16
REMARK                            x       y       z     vdW  Elec       q    Type
REMARK                         _______ _______ _______ _____ _____    ______ ____
ROOT
ATOM      1  N   UNL     1      -1.381  13.563  20.917  0.00  0.00    +0.000 N 
ATOM      2  C   UNL     1      -0.464  13.194  21.900  0.00  0.00    +0.000 C 
ATOM      3  O   UNL     1       0.677  13.679  21.899  0.00  0.00    +0.000 OA
ATOM      4  C   UNL     1      -0.730  12.007  22.794  0.00  0.00    +0.000 C 
ATOM      5  C   UNL     1      -1.977  12.105  23.650  0.00  0.00    +0.000 C 
ATOM      6  C   UNL     1      -3.257  11.951  22.870  0.00  0.00    +0.000 C 
ATOM      7  C   UNL     1      -3.630  13.150  22.044  0.00  0.00    +0.000 A 
ATOM      8  C   UNL     1      -5.012  13.494  22.109  0.00  0.00    +0.000 A 
ATOM      9  C   UNL     1      -5.545  14.570  21.411  0.00  0.00    +0.000 A 
ATOM     10  C   UNL     1      -4.707  15.332  20.624  0.00  0.00    +0.000 A 
ATOM     11  C   UNL     1      -3.361  14.974  20.498  0.00  0.00    +0.000 A 
ATOM     12  C   UNL     1      -2.781  13.873  21.173  0.00  0.00    +0.000 A 
ENDROOT
BRANCH   4  13
ATOM     13  N   UNL     1      -0.590  10.775  22.012  0.00  0.00    +0.000 N 
ATOM     14  C   UNL     1       0.346   9.844  22.408  0.00  0.00    +0.000 C 
ATOM     15  O   UNL     1       0.796   9.860  23.551  0.00  0.00    +0.000 OA
ATOM     16  H   UNL     1      -0.922  10.765  21.054  0.00  0.00    +0.000 HD
BRANCH  14  17
ATOM     17  C   UNL     1       0.778   8.901  21.431  0.00  0.00    +0.000 A 
ATOM     18  C   UNL     1       0.845   7.526  21.322  0.00  0.00    +0.000 A 
ATOM     19  C   UNL     1       1.709   7.258  20.214  0.00  0.00    +0.000 A 
ATOM     20  C   UNL     1       2.558   6.221  19.793  0.00  0.00    +0.000 A 
ATOM     21  C   UNL     1       3.231   6.372  18.568  0.00  0.00    +0.000 A 
ATOM     22  C   UNL     1       2.909   7.406  17.687  0.00  0.00    +0.000 A 
ATOM     23  C   UNL     1       2.058   8.435  18.082  0.00  0.00    +0.000 A 
ATOM     24  C   UNL     1       1.647   8.388  19.410  0.00  0.00    +0.000 A 
ATOM     25  N   UNL     1       1.361   9.399  20.281  0.00  0.00    +0.000 N 
ATOM     26  H   UNL     1       1.700  10.346  20.188  0.00  0.00    +0.000 HD
ENDBRANCH  14  17
ENDBRANCH   4  13
BRANCH   1  27
ATOM     27  C   UNL     1      -0.772  14.014  19.664  0.00  0.00    +0.000 C 
BRANCH  27  28
ATOM     28  C   UNL     1      -0.404  12.925  18.666  0.00  0.00    +0.000 C 
ATOM     29  O   UNL     1       0.682  12.356  18.710  0.00  0.00    +0.000 OA
BRANCH  28  30
ATOM     30  O   UNL     1      -1.363  12.694  17.729  0.00  0.00    +0.000 OA
BRANCH  30  32
ATOM     31  C   UNL     1      -1.454  10.354  18.619  0.00  0.00    +0.000 C 
ATOM     32  C   UNL     1      -2.121  11.454  17.783  0.00  0.00    +0.000 C 
ATOM     33  C   UNL     1      -2.396  10.981  16.348  0.00  0.00    +0.000 C 
ATOM     34  C   UNL     1      -3.455  11.808  18.460  0.00  0.00    +0.000 C 
ENDBRANCH  30  32
ENDBRANCH  28  30
ENDBRANCH  27  28
ENDBRANCH   1  27
TORSDOF 6
ENDMDL
MODEL 9
REMARK VINA RESULT:      -6.2      3.571      5.388
REMARK  Name = 
REMARK  9 active torsions:
REMARK  status: ('A' for Active; 'I' for Inactive)
REMARK    1  A    between atoms: C_1  and  C_2
REMARK    2  A    between atoms: C_2  and  C_3
REMARK    3  A    between atoms: C_2  and  C_4
REMARK    4  A    between atoms: C_2  and  O_5
REMARK    5  A    between atoms: O_5  and  C_6
REMARK    6  A    between atoms: C_6  and  C_8
REMARK    7  A    between atoms: C_8  and  N_9
REMARK    8  A    between atoms: C_12  and  N_13
REMARK    9  A    between atoms: C_14  and  C_16
REMARK                            x       y       z     vdW  Elec       q    Type
REMARK                         _______ _______ _______ _____ _____    ______ ____
ROOT
ATOM      1  N   UNL     1      -4.197  13.745  23.511  0.00  0.00    +0.000 N 
ATOM      2  C   UNL     1      -5.484  13.384  23.121  0.00  0.00    +0.000 C 
ATOM      3  O   UNL     1      -5.941  12.274  23.435  0.00  0.00    +0.000 OA
ATOM      4  C   UNL     1      -6.229  14.191  22.085  0.00  0.00    +0.000 C 
ATOM      5  C   UNL     1      -6.485  15.639  22.450  0.00  0.00    +0.000 C 
ATOM      6  C   UNL     1      -5.249  16.500  22.400  0.00  0.00    +0.000 C 
ATOM      7  C   UNL     1      -4.299  16.293  23.546  0.00  0.00    +0.000 A 
ATOM      8  C   UNL     1      -3.770  17.500  24.089  0.00  0.00    +0.000 A 
ATOM      9  C   UNL     1      -2.875  17.509  25.151  0.00  0.00    +0.000 A 
ATOM     10  C   UNL     1      -2.481  16.306  25.698  0.00  0.00    +0.000 A 
ATOM     11  C   UNL     1      -2.940  15.109  25.140  0.00  0.00    +0.000 A 
ATOM     12  C   UNL     1      -3.834  15.052  24.044  0.00  0.00    +0.000 A 
ENDROOT
BRANCH   4  13
ATOM     13  N   UNL     1      -5.623  13.963  20.770  0.00  0.00    +0.000 N 
ATOM     14  C   UNL     1      -6.122  12.953  19.977  0.00  0.00    +0.000 C 
ATOM     15  O   UNL     1      -7.242  12.493  20.187  0.00  0.00    +0.000 OA
ATOM     16  H   UNL     1      -4.683  14.304  20.601  0.00  0.00    +0.000 HD
BRANCH  14  17
ATOM     17  C   UNL     1      -5.276  12.459  18.942  0.00  0.00    +0.000 A 
ATOM     18  C   UNL     1      -5.344  12.315  17.571  0.00  0.00    +0.000 A 
ATOM     19  C   UNL     1      -4.282  11.426  17.212  0.00  0.00    +0.000 A 
ATOM     20  C   UNL     1      -4.001  10.517  16.180  0.00  0.00    +0.000 A 
ATOM     21  C   UNL     1      -2.769   9.840  16.210  0.00  0.00    +0.000 A 
ATOM     22  C   UNL     1      -1.762  10.210  17.103  0.00  0.00    +0.000 A 
ATOM     23  C   UNL     1      -2.018  11.121  18.125  0.00  0.00    +0.000 A 
ATOM     24  C   UNL     1      -3.340  11.542  18.225  0.00  0.00    +0.000 A 
ATOM     25  N   UNL     1      -4.073  11.893  19.321  0.00  0.00    +0.000 N 
ATOM     26  H   UNL     1      -3.861  11.605  20.267  0.00  0.00    +0.000 HD
ENDBRANCH  14  17
ENDBRANCH   4  13
BRANCH   1  27
ATOM     27  C   UNL     1      -3.295  12.614  23.736  0.00  0.00    +0.000 C 
BRANCH  27  28
ATOM     28  C   UNL     1      -2.168  12.442  22.727  0.00  0.00    +0.000 C 
ATOM     29  O   UNL     1      -2.271  11.676  21.776  0.00  0.00    +0.000 OA
BRANCH  28  30
ATOM     30  O   UNL     1      -1.059  13.176  23.015  0.00  0.00    +0.000 OA
BRANCH  30  32
ATOM     31  C   UNL     1      -1.683  14.679  21.111  0.00  0.00    +0.000 C 
ATOM     32  C   UNL     1      -0.588  14.156  22.049  0.00  0.00    +0.000 C 
ATOM     33  C   UNL     1       0.583  13.549  21.262  0.00  0.00    +0.000 C 
ATOM     34  C   UNL     1      -0.075  15.346  22.876  0.00  0.00    +0.000 C 
ENDBRANCH  30  32
ENDBRANCH  28  30
ENDBRANCH  27  28
ENDBRANCH   1  27
TORSDOF 6
ENDMDL
