MODEL 1
REMARK VINA RESULT:      -7.8      0.000      0.000
REMARK  Name = 
REMARK  5 active torsions:
REMARK  status: ('A' for Active; 'I' for Inactive)
REMARK    1  A    between atoms: C_1  and  C_2
REMARK    2  A    between atoms: C_4  and  O_5
REMARK    3  A    between atoms: N_9  and  C_10
REMARK    4  A    between atoms: C_10  and  C_11
REMARK    5  A    between atoms: C_16  and  C_18
REMARK                            x       y       z     vdW  Elec       q    Type
REMARK                         _______ _______ _______ _____ _____    ______ ____
ROOT
ATOM      1  C   UNL     1       2.771   3.941  19.318  0.00  0.00    +0.000 C 
ATOM      2  C   UNL     1       2.027   2.613  19.537  0.00  0.00    +0.000 C 
ATOM      3  C   UNL     1       2.105   2.421  21.045  0.00  0.00    +0.000 C 
ATOM      4  C   UNL     1       1.944   3.840  21.581  0.00  0.00    +0.000 C 
ATOM      5  N   UNL     1       2.354   4.729  20.492  0.00  0.00    +0.000 N 
ATOM      6  C   UNL     1       1.950   6.065  20.564  0.00  0.00    +0.000 C 
ATOM      7  O   UNL     1       1.376   6.499  21.565  0.00  0.00    +0.000 OA
ENDROOT
BRANCH   6   8
ATOM      8  C   UNL     1       2.164   7.028  19.444  0.00  0.00    +0.000 A 
ATOM      9  C   UNL     1       1.498   8.266  19.486  0.00  0.00    +0.000 A 
ATOM     10  C   UNL     1       1.713   9.234  18.494  0.00  0.00    +0.000 A 
ATOM     11  C   UNL     1       2.594   8.971  17.447  0.00  0.00    +0.000 A 
ATOM     12  C   UNL     1       3.263   7.759  17.417  0.00  0.00    +0.000 A 
ATOM     13  F   UNL     1       4.129   7.500  16.430  0.00  0.00    +0.000 F 
ATOM     14  C   UNL     1       3.072   6.806  18.412  0.00  0.00    +0.000 A 
ENDBRANCH   6   8
BRANCH   1  15
ATOM     15  C   UNL     1       4.299   3.707  19.285  0.00  0.00    +0.000 C 
BRANCH  15  23
ATOM     16  C   UNL     1       8.103   7.528  18.472  0.00  0.00    +0.000 C 
ATOM     17  C   UNL     1       7.384   6.445  17.722  0.00  0.00    +0.000 A 
ATOM     18  N   UNL     1       7.710   6.287  16.414  0.00  0.00    +0.000 NA
ATOM     19  C   UNL     1       7.047   5.349  15.713  0.00  0.00    +0.000 A 
ATOM     20  C   UNL     1       6.062   4.576  16.302  0.00  0.00    +0.000 A 
ATOM     21  N   UNL     1       5.221   3.583  15.878  0.00  0.00    +0.000 NA
ATOM     22  N   UNL     1       4.477   3.205  16.914  0.00  0.00    +0.000 NA
ATOM     23  N   UNL     1       4.869   3.933  17.978  0.00  0.00    +0.000 N 
ATOM     24  C   UNL     1       5.844   4.830  17.643  0.00  0.00    +0.000 A 
ATOM     25  N   UNL     1       6.465   5.736  18.417  0.00  0.00    +0.000 NA
BRANCH  19  26
ATOM     26  O   UNL     1       7.433   5.229  14.407  0.00  0.00    +0.000 OA
ATOM     27  H   UNL     1       8.383   5.050  14.510  0.00  0.00    +0.000 HD
ENDBRANCH  19  26
ENDBRANCH  15  23
ENDBRANCH   1  15
TORSDOF 4
ENDMDL
MODEL 2
REMARK VINA RESULT:      -7.7      1.793      2.787
REMARK  Name = 
REMARK  5 active torsions:
REMARK  status: ('A' for Active; 'I' for Inactive)
REMARK    1  A    between atoms: C_1  and  C_2
REMARK    2  A    between atoms: C_4  and  O_5
REMARK    3  A    between atoms: N_9  and  C_10
REMARK    4  A    between atoms: C_10  and  C_11
REMARK    5  A    between atoms: C_16  and  C_18
REMARK                            x       y       z     vdW  Elec       q    Type
REMARK                         _______ _______ _______ _____ _____    ______ ____
ROOT
ATOM      1  C   UNL     1       3.421   3.282  18.558  0.00  0.00    +0.000 C 
ATOM      2  C   UNL     1       3.136   1.990  17.776  0.00  0.00    +0.000 C 
ATOM      3  C   UNL     1       2.630   1.042  18.855  0.00  0.00    +0.000 C 
ATOM      4  C   UNL     1       1.804   1.954  19.755  0.00  0.00    +0.000 C 
ATOM      5  N   UNL     1       2.316   3.307  19.534  0.00  0.00    +0.000 N 
ATOM      6  C   UNL     1       1.507   4.376  19.928  0.00  0.00    +0.000 C 
ATOM      7  O   UNL     1       0.458   4.181  20.545  0.00  0.00    +0.000 OA
ENDROOT
BRANCH   6   8
ATOM      8  C   UNL     1       1.843   5.795  19.611  0.00  0.00    +0.000 A 
ATOM      9  C   UNL     1       2.421   6.085  18.362  0.00  0.00    +0.000 A 
ATOM     10  C   UNL     1       2.697   7.408  17.985  0.00  0.00    +0.000 A 
ATOM     11  C   UNL     1       2.401   8.454  18.856  0.00  0.00    +0.000 A 
ATOM     12  C   UNL     1       1.813   8.168  20.078  0.00  0.00    +0.000 A 
ATOM     13  F   UNL     1       1.502   9.164  20.916  0.00  0.00    +0.000 F 
ATOM     14  C   UNL     1       1.516   6.860  20.445  0.00  0.00    +0.000 A 
ENDBRANCH   6   8
BRANCH   1  15
ATOM     15  C   UNL     1       4.805   3.206  19.245  0.00  0.00    +0.000 C 
BRANCH  15  23
ATOM     16  C   UNL     1       6.238   4.038  14.051  0.00  0.00    +0.000 C 
ATOM     17  C   UNL     1       6.409   4.664  15.404  0.00  0.00    +0.000 A 
ATOM     18  N   UNL     1       7.144   5.803  15.462  0.00  0.00    +0.000 NA
ATOM     19  C   UNL     1       7.345   6.358  16.672  0.00  0.00    +0.000 A 
ATOM     20  C   UNL     1       6.826   5.783  17.819  0.00  0.00    +0.000 A 
ATOM     21  N   UNL     1       6.859   6.078  19.156  0.00  0.00    +0.000 NA
ATOM     22  N   UNL     1       6.160   5.146  19.798  0.00  0.00    +0.000 NA
ATOM     23  N   UNL     1       5.673   4.296  18.872  0.00  0.00    +0.000 N 
ATOM     24  C   UNL     1       6.084   4.635  17.613  0.00  0.00    +0.000 A 
ATOM     25  N   UNL     1       5.828   4.023  16.444  0.00  0.00    +0.000 NA
BRANCH  19  26
ATOM     26  O   UNL     1       8.077   7.511  16.661  0.00  0.00    +0.000 OA
ATOM     27  H   UNL     1       8.415   7.525  17.572  0.00  0.00    +0.000 HD
ENDBRANCH  19  26
ENDBRANCH  15  23
ENDBRANCH   1  15
TORSDOF 4
ENDMDL
MODEL 3
REMARK VINA RESULT:      -7.7      3.305      6.816
REMARK  Name = 
REMARK  5 active torsions:
REMARK  status: ('A' for Active; 'I' for Inactive)
REMARK    1  A    between atoms: C_1  and  C_2
REMARK    2  A    between atoms: C_4  and  O_5
REMARK    3  A    between atoms: N_9  and  C_10
REMARK    4  A    between atoms: C_10  and  C_11
REMARK    5  A    between atoms: C_16  and  C_18
REMARK                            x       y       z     vdW  Elec       q    Type
REMARK                         _______ _______ _______ _____ _____    ______ ____
ROOT
ATOM      1  C   UNL     1       2.745   5.999  19.771  0.00  0.00    +0.000 C 
ATOM      2  C   UNL     1       1.855   5.306  20.815  0.00  0.00    +0.000 C 
ATOM      3  C   UNL     1       0.880   4.510  19.959  0.00  0.00    +0.000 C 
ATOM      4  C   UNL     1       1.750   4.028  18.803  0.00  0.00    +0.000 C 
ATOM      5  N   UNL     1       2.876   4.961  18.733  0.00  0.00    +0.000 N 
ATOM      6  C   UNL     1       4.012   4.549  18.030  0.00  0.00    +0.000 C 
ATOM      7  O   UNL     1       4.014   3.491  17.397  0.00  0.00    +0.000 OA
ENDROOT
BRANCH   6   8
ATOM      8  C   UNL     1       5.280   5.337  18.024  0.00  0.00    +0.000 A 
ATOM      9  C   UNL     1       5.371   6.455  17.175  0.00  0.00    +0.000 A 
ATOM     10  C   UNL     1       6.513   7.269  17.177  0.00  0.00    +0.000 A 
ATOM     11  C   UNL     1       7.577   6.971  18.024  0.00  0.00    +0.000 A 
ATOM     12  C   UNL     1       7.478   5.881  18.874  0.00  0.00    +0.000 A 
ATOM     13  F   UNL     1       8.482   5.595  19.710  0.00  0.00    +0.000 F 
ATOM     14  C   UNL     1       6.337   5.086  18.894  0.00  0.00    +0.000 A 
ENDBRANCH   6   8
BRANCH   1  15
ATOM     15  C   UNL     1       2.058   7.276  19.235  0.00  0.00    +0.000 C 
BRANCH  15  23
ATOM     16  C   UNL     1      -1.175  11.550  18.226  0.00  0.00    +0.000 C 
ATOM     17  C   UNL     1      -0.521  10.852  19.382  0.00  0.00    +0.000 A 
ATOM     18  N   UNL     1      -0.737  11.378  20.614  0.00  0.00    +0.000 NA
ATOM     19  C   UNL     1      -0.125  10.792  21.661  0.00  0.00    +0.000 A 
ATOM     20  C   UNL     1       0.701   9.696  21.486  0.00  0.00    +0.000 A 
ATOM     21  N   UNL     1       1.456   8.906  22.311  0.00  0.00    +0.000 NA
ATOM     22  N   UNL     1       2.048   7.980  21.562  0.00  0.00    +0.000 NA
ATOM     23  N   UNL     1       1.645   8.172  20.290  0.00  0.00    +0.000 N 
ATOM     24  C   UNL     1       0.819   9.255  20.181  0.00  0.00    +0.000 A 
ATOM     25  N   UNL     1       0.239   9.772  19.086  0.00  0.00    +0.000 NA
BRANCH  19  26
ATOM     26  O   UNL     1      -0.396  11.359  22.875  0.00  0.00    +0.000 OA
ATOM     27  H   UNL     1      -1.293  11.702  22.723  0.00  0.00    +0.000 HD
ENDBRANCH  19  26
ENDBRANCH  15  23
ENDBRANCH   1  15
TORSDOF 4
ENDMDL
MODEL 4
REMARK VINA RESULT:      -7.6      2.797      6.426
REMARK  Name = 
REMARK  5 active torsions:
REMARK  status: ('A' for Active; 'I' for Inactive)
REMARK    1  A    between atoms: C_1  and  C_2
REMARK    2  A    between atoms: C_4  and  O_5
REMARK    3  A    between atoms: N_9  and  C_10
REMARK    4  A    between atoms: C_10  and  C_11
REMARK    5  A    between atoms: C_16  and  C_18
REMARK                            x       y       z     vdW  Elec       q    Type
REMARK                         _______ _______ _______ _____ _____    ______ ____
ROOT
ATOM      1  C   UNL     1       3.061   5.638  18.752  0.00  0.00    +0.000 C 
ATOM      2  C   UNL     1       2.036   4.630  19.296  0.00  0.00    +0.000 C 
ATOM      3  C   UNL     1       1.426   4.044  18.030  0.00  0.00    +0.000 C 
ATOM      4  C   UNL     1       2.619   3.954  17.084  0.00  0.00    +0.000 C 
ATOM      5  N   UNL     1       3.590   4.936  17.568  0.00  0.00    +0.000 N 
ATOM      6  C   UNL     1       4.913   4.803  17.134  0.00  0.00    +0.000 C 
ATOM      7  O   UNL     1       5.218   3.964  16.285  0.00  0.00    +0.000 OA
ENDROOT
BRANCH   6   8
ATOM      8  C   UNL     1       6.022   5.638  17.681  0.00  0.00    +0.000 A 
ATOM      9  C   UNL     1       6.830   5.099  18.698  0.00  0.00    +0.000 A 
ATOM     10  C   UNL     1       7.927   5.814  19.202  0.00  0.00    +0.000 A 
ATOM     11  C   UNL     1       8.224   7.077  18.697  0.00  0.00    +0.000 A 
ATOM     12  C   UNL     1       7.439   7.599  17.681  0.00  0.00    +0.000 A 
ATOM     13  F   UNL     1       7.725   8.802  17.170  0.00  0.00    +0.000 F 
ATOM     14  C   UNL     1       6.366   6.883  17.162  0.00  0.00    +0.000 A 
ENDBRANCH   6   8
BRANCH   1  15
ATOM     15  C   UNL     1       2.368   6.969  18.379  0.00  0.00    +0.000 C 
BRANCH  15  23
ATOM     16  C   UNL     1       1.346  12.321  18.164  0.00  0.00    +0.000 C 
ATOM     17  C   UNL     1       1.231  11.167  19.117  0.00  0.00    +0.000 A 
ATOM     18  N   UNL     1       0.729  11.438  20.348  0.00  0.00    +0.000 NA
ATOM     19  C   UNL     1       0.657  10.425  21.232  0.00  0.00    +0.000 A 
ATOM     20  C   UNL     1       1.088   9.152  20.900  0.00  0.00    +0.000 A 
ATOM     21  N   UNL     1       1.161   7.949  21.550  0.00  0.00    +0.000 NA
ATOM     22  N   UNL     1       1.670   7.057  20.705  0.00  0.00    +0.000 NA
ATOM     23  N   UNL     1       1.884   7.688  19.533  0.00  0.00    +0.000 N 
ATOM     24  C   UNL     1       1.561   9.014  19.608  0.00  0.00    +0.000 A 
ATOM     25  N   UNL     1       1.657   9.965  18.664  0.00  0.00    +0.000 NA
BRANCH  19  26
ATOM     26  O   UNL     1       0.127  10.759  22.446  0.00  0.00    +0.000 OA
ATOM     27  H   UNL     1       0.766  11.425  22.750  0.00  0.00    +0.000 HD
ENDBRANCH  19  26
ENDBRANCH  15  23
ENDBRANCH   1  15
TORSDOF 4
ENDMDL
MODEL 5
REMARK VINA RESULT:      -7.6      3.292      6.037
REMARK  Name = 
REMARK  5 active torsions:
REMARK  status: ('A' for Active; 'I' for Inactive)
REMARK    1  A    between atoms: C_1  and  C_2
REMARK    2  A    between atoms: C_4  and  O_5
REMARK    3  A    between atoms: N_9  and  C_10
REMARK    4  A    between atoms: C_10  and  C_11
REMARK    5  A    between atoms: C_16  and  C_18
REMARK                            x       y       z     vdW  Elec       q    Type
REMARK                         _______ _______ _______ _____ _____    ______ ____
ROOT
ATOM      1  C   UNL     1       2.731   5.987  19.564  0.00  0.00    +0.000 C 
ATOM      2  C   UNL     1       1.938   5.746  20.859  0.00  0.00    +0.000 C 
ATOM      3  C   UNL     1       1.278   4.397  20.610  0.00  0.00    +0.000 C 
ATOM      4  C   UNL     1       2.352   3.624  19.851  0.00  0.00    +0.000 C 
ATOM      5  N   UNL     1       3.216   4.633  19.238  0.00  0.00    +0.000 N 
ATOM      6  C   UNL     1       4.483   4.226  18.811  0.00  0.00    +0.000 C 
ATOM      7  O   UNL     1       4.808   3.037  18.843  0.00  0.00    +0.000 OA
ENDROOT
BRANCH   6   8
ATOM      8  C   UNL     1       5.512   5.189  18.322  0.00  0.00    +0.000 A 
ATOM      9  C   UNL     1       5.249   5.914  17.146  0.00  0.00    +0.000 A 
ATOM     10  C   UNL     1       6.152   6.880  16.678  0.00  0.00    +0.000 A 
ATOM     11  C   UNL     1       7.329   7.127  17.379  0.00  0.00    +0.000 A 
ATOM     12  C   UNL     1       7.578   6.427  18.548  0.00  0.00    +0.000 A 
ATOM     13  F   UNL     1       8.694   6.669  19.245  0.00  0.00    +0.000 F 
ATOM     14  C   UNL     1       6.674   5.486  19.029  0.00  0.00    +0.000 A 
ENDBRANCH   6   8
BRANCH   1  15
ATOM     15  C   UNL     1       1.808   6.557  18.461  0.00  0.00    +0.000 C 
BRANCH  15  23
ATOM     16  C   UNL     1      -0.358   9.557  22.467  0.00  0.00    +0.000 C 
ATOM     17  C   UNL     1       0.402   9.730  21.184  0.00  0.00    +0.000 A 
ATOM     18  N   UNL     1       0.686  11.003  20.809  0.00  0.00    +0.000 NA
ATOM     19  C   UNL     1       1.330  11.182  19.640  0.00  0.00    +0.000 A 
ATOM     20  C   UNL     1       1.684  10.107  18.845  0.00  0.00    +0.000 A 
ATOM     21  N   UNL     1       2.310   9.955  17.636  0.00  0.00    +0.000 NA
ATOM     22  N   UNL     1       2.377   8.653  17.371  0.00  0.00    +0.000 NA
ATOM     23  N   UNL     1       1.825   8.000  18.412  0.00  0.00    +0.000 N 
ATOM     24  C   UNL     1       1.348   8.867  19.355  0.00  0.00    +0.000 A 
ATOM     25  N   UNL     1       0.717   8.600  20.511  0.00  0.00    +0.000 NA
BRANCH  19  26
ATOM     26  O   UNL     1       1.602  12.485  19.328  0.00  0.00    +0.000 OA
ATOM     27  H   UNL     1       1.353  12.506  18.389  0.00  0.00    +0.000 HD
ENDBRANCH  19  26
ENDBRANCH  15  23
ENDBRANCH   1  15
TORSDOF 4
ENDMDL
MODEL 6
REMARK VINA RESULT:      -7.6      1.372      2.309
REMARK  Name = 
REMARK  5 active torsions:
REMARK  status: ('A' for Active; 'I' for Inactive)
REMARK    1  A    between atoms: C_1  and  C_2
REMARK    2  A    between atoms: C_4  and  O_5
REMARK    3  A    between atoms: N_9  and  C_10
REMARK    4  A    between atoms: C_10  and  C_11
REMARK    5  A    between atoms: C_16  and  C_18
REMARK                            x       y       z     vdW  Elec       q    Type
REMARK                         _______ _______ _______ _____ _____    ______ ____
ROOT
ATOM      1  C   UNL     1       3.394   3.125  18.534  0.00  0.00    +0.000 C 
ATOM      2  C   UNL     1       2.947   1.738  18.047  0.00  0.00    +0.000 C 
ATOM      3  C   UNL     1       2.408   1.087  19.314  0.00  0.00    +0.000 C 
ATOM      4  C   UNL     1       1.720   2.244  20.029  0.00  0.00    +0.000 C 
ATOM      5  N   UNL     1       2.347   3.463  19.516  0.00  0.00    +0.000 N 
ATOM      6  C   UNL     1       1.665   4.668  19.704  0.00  0.00    +0.000 C 
ATOM      7  O   UNL     1       0.634   4.713  20.379  0.00  0.00    +0.000 OA
ENDROOT
BRANCH   6   8
ATOM      8  C   UNL     1       2.118   5.950  19.089  0.00  0.00    +0.000 A 
ATOM      9  C   UNL     1       1.760   7.159  19.713  0.00  0.00    +0.000 A 
ATOM     10  C   UNL     1       2.215   8.389  19.215  0.00  0.00    +0.000 A 
ATOM     11  C   UNL     1       3.028   8.423  18.085  0.00  0.00    +0.000 A 
ATOM     12  C   UNL     1       3.396   7.230  17.482  0.00  0.00    +0.000 A 
ATOM     13  F   UNL     1       4.195   7.245  16.409  0.00  0.00    +0.000 F 
ATOM     14  C   UNL     1       2.968   6.007  17.988  0.00  0.00    +0.000 A 
ENDBRANCH   6   8
BRANCH   1  15
ATOM     15  C   UNL     1       4.796   3.047  19.181  0.00  0.00    +0.000 C 
BRANCH  15  23
ATOM     16  C   UNL     1       6.264   3.956  14.008  0.00  0.00    +0.000 C 
ATOM     17  C   UNL     1       6.402   4.578  15.368  0.00  0.00    +0.000 A 
ATOM     18  N   UNL     1       7.102   5.737  15.442  0.00  0.00    +0.000 NA
ATOM     19  C   UNL     1       7.273   6.289  16.657  0.00  0.00    +0.000 A 
ATOM     20  C   UNL     1       6.758   5.691  17.794  0.00  0.00    +0.000 A 
ATOM     21  N   UNL     1       6.767   5.978  19.134  0.00  0.00    +0.000 NA
ATOM     22  N   UNL     1       6.089   5.022  19.761  0.00  0.00    +0.000 NA
ATOM     23  N   UNL     1       5.637   4.165  18.824  0.00  0.00    +0.000 N 
ATOM     24  C   UNL     1       6.052   4.524  17.572  0.00  0.00    +0.000 A 
ATOM     25  N   UNL     1       5.828   3.913  16.397  0.00  0.00    +0.000 NA
BRANCH  19  26
ATOM     26  O   UNL     1       7.972   7.463  16.662  0.00  0.00    +0.000 OA
ATOM     27  H   UNL     1       8.737   7.221  17.211  0.00  0.00    +0.000 HD
ENDBRANCH  19  26
ENDBRANCH  15  23
ENDBRANCH   1  15
TORSDOF 4
ENDMDL
MODEL 7
REMARK VINA RESULT:      -7.6      0.985      1.362
REMARK  Name = 
REMARK  5 active torsions:
REMARK  status: ('A' for Active; 'I' for Inactive)
REMARK    1  A    between atoms: C_1  and  C_2
REMARK    2  A    between atoms: C_4  and  O_5
REMARK    3  A    between atoms: N_9  and  C_10
REMARK    4  A    between atoms: C_10  and  C_11
REMARK    5  A    between atoms: C_16  and  C_18
REMARK                            x       y       z     vdW  Elec       q    Type
REMARK                         _______ _______ _______ _____ _____    ______ ____
ROOT
ATOM      1  C   UNL     1       2.760   4.192  19.160  0.00  0.00    +0.000 C 
ATOM      2  C   UNL     1       2.035   2.838  19.221  0.00  0.00    +0.000 C 
ATOM      3  C   UNL     1       2.036   2.516  20.709  0.00  0.00    +0.000 C 
ATOM      4  C   UNL     1       1.816   3.879  21.356  0.00  0.00    +0.000 C 
ATOM      5  N   UNL     1       2.263   4.867  20.373  0.00  0.00    +0.000 N 
ATOM      6  C   UNL     1       1.827   6.185  20.538  0.00  0.00    +0.000 C 
ATOM      7  O   UNL     1       1.190   6.519  21.540  0.00  0.00    +0.000 OA
ENDROOT
BRANCH   6   8
ATOM      8  C   UNL     1       2.079   7.246  19.519  0.00  0.00    +0.000 A 
ATOM      9  C   UNL     1       2.957   6.962  18.458  0.00  0.00    +0.000 A 
ATOM     10  C   UNL     1       3.178   7.898  17.437  0.00  0.00    +0.000 A 
ATOM     11  C   UNL     1       2.528   9.129  17.470  0.00  0.00    +0.000 A 
ATOM     12  C   UNL     1       1.648   9.399  18.506  0.00  0.00    +0.000 A 
ATOM     13  F   UNL     1       0.999  10.569  18.540  0.00  0.00    +0.000 F 
ATOM     14  C   UNL     1       1.406   8.464  19.507  0.00  0.00    +0.000 A 
ENDBRANCH   6   8
BRANCH   1  15
ATOM     15  C   UNL     1       4.292   3.990  19.192  0.00  0.00    +0.000 C 
BRANCH  15  23
ATOM     16  C   UNL     1       8.012   7.844  18.170  0.00  0.00    +0.000 C 
ATOM     17  C   UNL     1       7.349   6.679  17.494  0.00  0.00    +0.000 A 
ATOM     18  N   UNL     1       7.722   6.422  16.215  0.00  0.00    +0.000 NA
ATOM     19  C   UNL     1       7.109   5.407  15.577  0.00  0.00    +0.000 A 
ATOM     20  C   UNL     1       6.128   4.657  16.200  0.00  0.00    +0.000 A 
ATOM     21  N   UNL     1       5.329   3.605  15.837  0.00  0.00    +0.000 NA
ATOM     22  N   UNL     1       4.563   3.294  16.879  0.00  0.00    +0.000 NA
ATOM     23  N   UNL     1       4.899   4.121  17.888  0.00  0.00    +0.000 N 
ATOM     24  C   UNL     1       5.859   5.017  17.508  0.00  0.00    +0.000 A 
ATOM     25  N   UNL     1       6.427   6.004  18.219  0.00  0.00    +0.000 NA
BRANCH  19  26
ATOM     26  O   UNL     1       7.541   5.189  14.299  0.00  0.00    +0.000 OA
ATOM     27  H   UNL     1       8.407   5.631  14.318  0.00  0.00    +0.000 HD
ENDBRANCH  19  26
ENDBRANCH  15  23
ENDBRANCH   1  15
TORSDOF 4
ENDMDL
MODEL 8
REMARK VINA RESULT:      -7.6      2.932      6.400
REMARK  Name = 
REMARK  5 active torsions:
REMARK  status: ('A' for Active; 'I' for Inactive)
REMARK    1  A    between atoms: C_1  and  C_2
REMARK    2  A    between atoms: C_4  and  O_5
REMARK    3  A    between atoms: N_9  and  C_10
REMARK    4  A    between atoms: C_10  and  C_11
REMARK    5  A    between atoms: C_16  and  C_18
REMARK                            x       y       z     vdW  Elec       q    Type
REMARK                         _______ _______ _______ _____ _____    ______ ____
ROOT
ATOM      1  C   UNL     1       3.056   5.571  18.712  0.00  0.00    +0.000 C 
ATOM      2  C   UNL     1       2.023   4.605  19.314  0.00  0.00    +0.000 C 
ATOM      3  C   UNL     1       1.355   4.007  18.083  0.00  0.00    +0.000 C 
ATOM      4  C   UNL     1       2.512   3.863  17.100  0.00  0.00    +0.000 C 
ATOM      5  N   UNL     1       3.525   4.828  17.528  0.00  0.00    +0.000 N 
ATOM      6  C   UNL     1       4.828   4.650  17.053  0.00  0.00    +0.000 C 
ATOM      7  O   UNL     1       5.082   3.784  16.214  0.00  0.00    +0.000 OA
ENDROOT
BRANCH   6   8
ATOM      8  C   UNL     1       5.977   5.467  17.543  0.00  0.00    +0.000 A 
ATOM      9  C   UNL     1       6.192   6.734  16.972  0.00  0.00    +0.000 A 
ATOM     10  C   UNL     1       7.216   7.571  17.440  0.00  0.00    +0.000 A 
ATOM     11  C   UNL     1       8.040   7.145  18.479  0.00  0.00    +0.000 A 
ATOM     12  C   UNL     1       7.815   5.904  19.053  0.00  0.00    +0.000 A 
ATOM     13  F   UNL     1       8.584   5.490  20.067  0.00  0.00    +0.000 F 
ATOM     14  C   UNL     1       6.785   5.083  18.609  0.00  0.00    +0.000 A 
ENDBRANCH   6   8
BRANCH   1  15
ATOM     15  C   UNL     1       2.386   6.912  18.331  0.00  0.00    +0.000 C 
BRANCH  15  23
ATOM     16  C   UNL     1       1.479  12.283  18.077  0.00  0.00    +0.000 C 
ATOM     17  C   UNL     1       1.345  11.140  19.040  0.00  0.00    +0.000 A 
ATOM     18  N   UNL     1       0.855  11.432  20.271  0.00  0.00    +0.000 NA
ATOM     19  C   UNL     1       0.766  10.428  21.164  0.00  0.00    +0.000 A 
ATOM     20  C   UNL     1       1.167   9.144  20.840  0.00  0.00    +0.000 A 
ATOM     21  N   UNL     1       1.217   7.945  21.500  0.00  0.00    +0.000 NA
ATOM     22  N   UNL     1       1.702   7.035  20.660  0.00  0.00    +0.000 NA
ATOM     23  N   UNL     1       1.924   7.651  19.482  0.00  0.00    +0.000 N 
ATOM     24  C   UNL     1       1.630   8.984  19.548  0.00  0.00    +0.000 A 
ATOM     25  N   UNL     1       1.742   9.925  18.595  0.00  0.00    +0.000 NA
BRANCH  19  26
ATOM     26  O   UNL     1       0.250  10.784  22.378  0.00  0.00    +0.000 OA
ATOM     27  H   UNL     1      -0.347  11.507  22.121  0.00  0.00    +0.000 HD
ENDBRANCH  19  26
ENDBRANCH  15  23
ENDBRANCH   1  15
TORSDOF 4
ENDMDL
MODEL 9
REMARK VINA RESULT:      -7.6      3.462      6.763
REMARK  Name = 
REMARK  5 active torsions:
REMARK  status: ('A' for Active; 'I' for Inactive)
REMARK    1  A    between atoms: C_1  and  C_2
REMARK    2  A    between atoms: C_4  and  O_5
REMARK    3  A    between atoms: N_9  and  C_10
REMARK    4  A    between atoms: C_10  and  C_11
REMARK    5  A    between atoms: C_16  and  C_18
REMARK                            x       y       z     vdW  Elec       q    Type
REMARK                         _______ _______ _______ _____ _____    ______ ____
ROOT
ATOM      1  C   UNL     1       3.743   6.248  18.105  0.00  0.00    +0.000 C 
ATOM      2  C   UNL     1       4.481   6.807  16.878  0.00  0.00    +0.000 C 
ATOM      3  C   UNL     1       5.932   6.841  17.337  0.00  0.00    +0.000 C 
ATOM      4  C   UNL     1       6.057   5.574  18.177  0.00  0.00    +0.000 C 
ATOM      5  N   UNL     1       4.699   5.247  18.614  0.00  0.00    +0.000 N 
ATOM      6  C   UNL     1       4.463   3.946  19.067  0.00  0.00    +0.000 C 
ATOM      7  O   UNL     1       5.390   3.146  19.203  0.00  0.00    +0.000 OA
ENDROOT
BRANCH   6   8
ATOM      8  C   UNL     1       3.093   3.446  19.386  0.00  0.00    +0.000 A 
ATOM      9  C   UNL     1       2.261   3.045  18.325  0.00  0.00    +0.000 A 
ATOM     10  C   UNL     1       0.990   2.505  18.571  0.00  0.00    +0.000 A 
ATOM     11  C   UNL     1       0.537   2.365  19.880  0.00  0.00    +0.000 A 
ATOM     12  C   UNL     1       1.365   2.742  20.925  0.00  0.00    +0.000 A 
ATOM     13  F   UNL     1       0.953   2.593  22.189  0.00  0.00    +0.000 F 
ATOM     14  C   UNL     1       2.636   3.254  20.686  0.00  0.00    +0.000 A 
ENDBRANCH   6   8
BRANCH   1  15
ATOM     15  C   UNL     1       3.471   7.370  19.133  0.00  0.00    +0.000 C 
BRANCH  15  23
ATOM     16  C   UNL     1      -0.159   9.265  22.734  0.00  0.00    +0.000 C 
ATOM     17  C   UNL     1       0.197   9.400  21.282  0.00  0.00    +0.000 A 
ATOM     18  N   UNL     1      -0.574  10.233  20.539  0.00  0.00    +0.000 NA
ATOM     19  C   UNL     1      -0.298  10.336  19.226  0.00  0.00    +0.000 A 
ATOM     20  C   UNL     1       0.731   9.612  18.651  0.00  0.00    +0.000 A 
ATOM     21  N   UNL     1       1.244   9.485  17.387  0.00  0.00    +0.000 NA
ATOM     22  N   UNL     1       2.260   8.628  17.442  0.00  0.00    +0.000 NA
ATOM     23  N   UNL     1       2.399   8.248  18.728  0.00  0.00    +0.000 N 
ATOM     24  C   UNL     1       1.446   8.816  19.526  0.00  0.00    +0.000 A 
ATOM     25  N   UNL     1       1.245   8.663  20.846  0.00  0.00    +0.000 NA
BRANCH  19  26
ATOM     26  O   UNL     1      -1.099  11.203  18.537  0.00  0.00    +0.000 OA
ATOM     27  H   UNL     1      -1.905  11.183  19.082  0.00  0.00    +0.000 HD
ENDBRANCH  19  26
ENDBRANCH  15  23
ENDBRANCH   1  15
TORSDOF 4
ENDMDL
