MODEL 1
REMARK VINA RESULT:      -7.5      0.000      0.000
REMARK  Name = 
REMARK  6 active torsions:
REMARK  status: ('A' for Active; 'I' for Inactive)
REMARK    1  A    between atoms: C_1  and  C_2
REMARK    2  A    between atoms: C_2  and  N_3
REMARK    3  A    between atoms: C_5  and  C_6
REMARK    4  A    between atoms: N_8  and  C_9
REMARK    5  A    between atoms: C_9  and  C_10
REMARK    6  A    between atoms: C_20  and  O_21
REMARK                            x       y       z     vdW  Elec       q    Type
REMARK                         _______ _______ _______ _____ _____    ______ ____
ROOT
ATOM      1  N   UNL     1       3.049   4.580  19.046  0.00  0.00    +0.000 N 
ATOM      2  N   UNL     1       2.208   5.641  19.082  0.00  0.00    +0.000 NA
ATOM      3  C   UNL     1       2.881   6.631  18.450  0.00  0.00    +0.000 A 
ATOM      4  C   UNL     1       4.144   6.169  18.001  0.00  0.00    +0.000 A 
ATOM      5  C   UNL     1       4.239   4.868  18.444  0.00  0.00    +0.000 A 
ATOM      6  C   UNL     1       5.406   3.962  18.252  0.00  0.00    +0.000 C 
ATOM      7  C   UNL     1       6.634   4.787  17.823  0.00  0.00    +0.000 C 
ATOM      8  C   UNL     1       6.284   5.839  16.750  0.00  0.00    +0.000 C 
ATOM      9  C   UNL     1       5.227   6.854  17.248  0.00  0.00    +0.000 C 
ENDROOT
BRANCH   3  10
ATOM     10  C   UNL     1       2.323   7.989  18.302  0.00  0.00    +0.000 C 
ATOM     11  O   UNL     1       2.434   8.645  17.272  0.00  0.00    +0.000 OA
ATOM     12  N   UNL     1       1.682   8.452  19.429  0.00  0.00    +0.000 N 
ATOM     13  H   UNL     1       1.538   7.768  20.166  0.00  0.00    +0.000 HD
BRANCH  12  14
ATOM     14  C   UNL     1       1.045   9.744  19.472  0.00  0.00    +0.000 C 
BRANCH  14  15
ATOM     15  C   UNL     1       0.437  10.058  20.815  0.00  0.00    +0.000 A 
ATOM     16  C   UNL     1       0.513   9.167  21.891  0.00  0.00    +0.000 A 
ATOM     17  C   UNL     1      -0.030   9.541  23.111  0.00  0.00    +0.000 A 
ATOM     18  N   UNL     1      -0.622  10.733  23.337  0.00  0.00    +0.000 NA
ATOM     19  C   UNL     1      -0.663  11.592  22.299  0.00  0.00    +0.000 A 
ATOM     20  C   UNL     1      -0.152  11.308  21.040  0.00  0.00    +0.000 A 
ENDBRANCH  14  15
ENDBRANCH  12  14
ENDBRANCH   3  10
BRANCH   1  22
ATOM     21  C   UNL     1       1.178   3.332  20.082  0.00  0.00    +0.000 C 
ATOM     22  C   UNL     1       2.603   3.297  19.558  0.00  0.00    +0.000 C 
ENDBRANCH   1  22
BRANCH   8  23
ATOM     23  O   UNL     1       7.473   6.516  16.347  0.00  0.00    +0.000 OA
ATOM     24  H   UNL     1       8.162   5.848  16.187  0.00  0.00    +0.000 HD
ENDBRANCH   8  23
TORSDOF 5
ENDMDL
MODEL 2
REMARK VINA RESULT:      -7.5      0.122      1.005
REMARK  Name = 
REMARK  6 active torsions:
REMARK  status: ('A' for Active; 'I' for Inactive)
REMARK    1  A    between atoms: C_1  and  C_2
REMARK    2  A    between atoms: C_2  and  N_3
REMARK    3  A    between atoms: C_5  and  C_6
REMARK    4  A    between atoms: N_8  and  C_9
REMARK    5  A    between atoms: C_9  and  C_10
REMARK    6  A    between atoms: C_20  and  O_21
REMARK                            x       y       z     vdW  Elec       q    Type
REMARK                         _______ _______ _______ _____ _____    ______ ____
ROOT
ATOM      1  N   UNL     1       3.092   4.549  19.031  0.00  0.00    +0.000 N 
ATOM      2  N   UNL     1       2.243   5.603  19.069  0.00  0.00    +0.000 NA
ATOM      3  C   UNL     1       2.904   6.597  18.431  0.00  0.00    +0.000 A 
ATOM      4  C   UNL     1       4.169   6.144  17.976  0.00  0.00    +0.000 A 
ATOM      5  C   UNL     1       4.277   4.844  18.422  0.00  0.00    +0.000 A 
ATOM      6  C   UNL     1       5.449   3.947  18.225  0.00  0.00    +0.000 C 
ATOM      7  C   UNL     1       6.669   4.781  17.787  0.00  0.00    +0.000 C 
ATOM      8  C   UNL     1       6.304   5.826  16.714  0.00  0.00    +0.000 C 
ATOM      9  C   UNL     1       5.242   6.835  17.215  0.00  0.00    +0.000 C 
ENDROOT
BRANCH   3  10
ATOM     10  C   UNL     1       2.335   7.950  18.283  0.00  0.00    +0.000 C 
ATOM     11  O   UNL     1       2.455   8.613  17.258  0.00  0.00    +0.000 OA
ATOM     12  N   UNL     1       1.674   8.401  19.403  0.00  0.00    +0.000 N 
ATOM     13  H   UNL     1       1.526   7.711  20.134  0.00  0.00    +0.000 HD
BRANCH  12  14
ATOM     14  C   UNL     1       1.024   9.685  19.445  0.00  0.00    +0.000 C 
BRANCH  14  15
ATOM     15  C   UNL     1       0.502  10.040  20.813  0.00  0.00    +0.000 A 
ATOM     16  C   UNL     1      -0.233  11.207  21.047  0.00  0.00    +0.000 A 
ATOM     17  C   UNL     1      -0.721  11.448  22.322  0.00  0.00    +0.000 A 
ATOM     18  N   UNL     1      -0.546  10.610  23.366  0.00  0.00    +0.000 NA
ATOM     19  C   UNL     1       0.140   9.476  23.119  0.00  0.00    +0.000 A 
ATOM     20  C   UNL     1       0.671   9.149  21.879  0.00  0.00    +0.000 A 
ENDBRANCH  14  15
ENDBRANCH  12  14
ENDBRANCH   3  10
BRANCH   1  22
ATOM     21  C   UNL     1       1.152   3.171  19.717  0.00  0.00    +0.000 C 
ATOM     22  C   UNL     1       2.658   3.264  19.549  0.00  0.00    +0.000 C 
ENDBRANCH   1  22
BRANCH   8  23
ATOM     23  O   UNL     1       7.486   6.512  16.302  0.00  0.00    +0.000 OA
ATOM     24  H   UNL     1       7.773   6.136  15.453  0.00  0.00    +0.000 HD
ENDBRANCH   8  23
TORSDOF 5
ENDMDL
MODEL 3
REMARK VINA RESULT:      -7.4      1.840      3.408
REMARK  Name = 
REMARK  6 active torsions:
REMARK  status: ('A' for Active; 'I' for Inactive)
REMARK    1  A    between atoms: C_1  and  C_2
REMARK    2  A    between atoms: C_2  and  N_3
REMARK    3  A    between atoms: C_5  and  C_6
REMARK    4  A    between atoms: N_8  and  C_9
REMARK    5  A    between atoms: C_9  and  C_10
REMARK    6  A    between atoms: C_20  and  O_21
REMARK                            x       y       z     vdW  Elec       q    Type
REMARK                         _______ _______ _______ _____ _____    ______ ____
ROOT
ATOM      1  N   UNL     1       5.125   5.173  18.461  0.00  0.00    +0.000 N 
ATOM      2  N   UNL     1       4.726   6.415  18.097  0.00  0.00    +0.000 NA
ATOM      3  C   UNL     1       3.439   6.494  18.509  0.00  0.00    +0.000 A 
ATOM      4  C   UNL     1       3.046   5.292  19.153  0.00  0.00    +0.000 A 
ATOM      5  C   UNL     1       4.134   4.451  19.059  0.00  0.00    +0.000 A 
ATOM      6  C   UNL     1       4.201   3.050  19.558  0.00  0.00    +0.000 C 
ATOM      7  C   UNL     1       2.778   2.540  19.858  0.00  0.00    +0.000 C 
ATOM      8  C   UNL     1       1.928   3.589  20.603  0.00  0.00    +0.000 C 
ATOM      9  C   UNL     1       1.763   4.896  19.788  0.00  0.00    +0.000 C 
ENDROOT
BRANCH   3  10
ATOM     10  C   UNL     1       2.609   7.690  18.270  0.00  0.00    +0.000 C 
ATOM     11  O   UNL     1       2.495   8.210  17.165  0.00  0.00    +0.000 OA
ATOM     12  N   UNL     1       1.990   8.172  19.401  0.00  0.00    +0.000 N 
ATOM     13  H   UNL     1       2.052   7.579  20.224  0.00  0.00    +0.000 HD
BRANCH  12  14
ATOM     14  C   UNL     1       1.114   9.314  19.368  0.00  0.00    +0.000 C 
BRANCH  14  15
ATOM     15  C   UNL     1       0.579   9.690  20.726  0.00  0.00    +0.000 A 
ATOM     16  C   UNL     1       0.812   8.902  21.859  0.00  0.00    +0.000 A 
ATOM     17  C   UNL     1       0.328   9.332  23.085  0.00  0.00    +0.000 A 
ATOM     18  N   UNL     1      -0.348  10.486  23.265  0.00  0.00    +0.000 NA
ATOM     19  C   UNL     1      -0.540  11.249  22.170  0.00  0.00    +0.000 A 
ATOM     20  C   UNL     1      -0.099  10.902  20.900  0.00  0.00    +0.000 A 
ENDBRANCH  14  15
ENDBRANCH  12  14
ENDBRANCH   3  10
BRANCH   1  22
ATOM     21  C   UNL     1       7.491   5.902  18.532  0.00  0.00    +0.000 C 
ATOM     22  C   UNL     1       6.507   4.779  18.255  0.00  0.00    +0.000 C 
ENDBRANCH   1  22
BRANCH   8  23
ATOM     23  O   UNL     1       0.652   3.030  20.911  0.00  0.00    +0.000 OA
ATOM     24  H   UNL     1       0.349   2.524  20.138  0.00  0.00    +0.000 HD
ENDBRANCH   8  23
TORSDOF 5
ENDMDL
MODEL 4
REMARK VINA RESULT:      -7.3      1.853      3.522
REMARK  Name = 
REMARK  6 active torsions:
REMARK  status: ('A' for Active; 'I' for Inactive)
REMARK    1  A    between atoms: C_1  and  C_2
REMARK    2  A    between atoms: C_2  and  N_3
REMARK    3  A    between atoms: C_5  and  C_6
REMARK    4  A    between atoms: N_8  and  C_9
REMARK    5  A    between atoms: C_9  and  C_10
REMARK    6  A    between atoms: C_20  and  O_21
REMARK                            x       y       z     vdW  Elec       q    Type
REMARK                         _______ _______ _______ _____ _____    ______ ____
ROOT
ATOM      1  N   UNL     1       5.154   5.296  18.451  0.00  0.00    +0.000 N 
ATOM      2  N   UNL     1       4.732   6.525  18.070  0.00  0.00    +0.000 NA
ATOM      3  C   UNL     1       3.454   6.598  18.511  0.00  0.00    +0.000 A 
ATOM      4  C   UNL     1       3.090   5.406  19.188  0.00  0.00    +0.000 A 
ATOM      5  C   UNL     1       4.185   4.576  19.086  0.00  0.00    +0.000 A 
ATOM      6  C   UNL     1       4.280   3.186  19.613  0.00  0.00    +0.000 C 
ATOM      7  C   UNL     1       2.871   2.667  19.957  0.00  0.00    +0.000 C 
ATOM      8  C   UNL     1       2.026   3.722  20.699  0.00  0.00    +0.000 C 
ATOM      9  C   UNL     1       1.827   5.009  19.862  0.00  0.00    +0.000 C 
ENDROOT
BRANCH   3  10
ATOM     10  C   UNL     1       2.605   7.779  18.266  0.00  0.00    +0.000 C 
ATOM     11  O   UNL     1       2.521   8.323  17.170  0.00  0.00    +0.000 OA
ATOM     12  N   UNL     1       1.930   8.220  19.382  0.00  0.00    +0.000 N 
ATOM     13  H   UNL     1       1.975   7.609  20.193  0.00  0.00    +0.000 HD
BRANCH  12  14
ATOM     14  C   UNL     1       1.028   9.341  19.340  0.00  0.00    +0.000 C 
BRANCH  14  15
ATOM     15  C   UNL     1       0.555   9.772  20.704  0.00  0.00    +0.000 A 
ATOM     16  C   UNL     1       0.111  11.075  20.959  0.00  0.00    +0.000 A 
ATOM     17  C   UNL     1      -0.352  11.390  22.227  0.00  0.00    +0.000 A 
ATOM     18  N   UNL     1      -0.421  10.505  23.244  0.00  0.00    +0.000 NA
ATOM     19  C   UNL     1      -0.016   9.247  22.976  0.00  0.00    +0.000 A 
ATOM     20  C   UNL     1       0.468   8.837  21.742  0.00  0.00    +0.000 A 
ENDBRANCH  14  15
ENDBRANCH  12  14
ENDBRANCH   3  10
BRANCH   1  22
ATOM     21  C   UNL     1       7.522   5.750  19.016  0.00  0.00    +0.000 C 
ATOM     22  C   UNL     1       6.536   4.913  18.221  0.00  0.00    +0.000 C 
ENDBRANCH   1  22
BRANCH   8  23
ATOM     23  O   UNL     1       0.764   3.155  21.049  0.00  0.00    +0.000 OA
ATOM     24  H   UNL     1       0.450   3.593  21.858  0.00  0.00    +0.000 HD
ENDBRANCH   8  23
TORSDOF 5
ENDMDL
MODEL 5
REMARK VINA RESULT:      -7.1      2.822      4.330
REMARK  Name = 
REMARK  6 active torsions:
REMARK  status: ('A' for Active; 'I' for Inactive)
REMARK    1  A    between atoms: C_1  and  C_2
REMARK    2  A    between atoms: C_2  and  N_3
REMARK    3  A    between atoms: C_5  and  C_6
REMARK    4  A    between atoms: N_8  and  C_9
REMARK    5  A    between atoms: C_9  and  C_10
REMARK    6  A    between atoms: C_20  and  O_21
REMARK                            x       y       z     vdW  Elec       q    Type
REMARK                         _______ _______ _______ _____ _____    ______ ____
ROOT
ATOM      1  N   UNL     1       3.603   5.721  18.032  0.00  0.00    +0.000 N 
ATOM      2  N   UNL     1       3.153   6.960  18.340  0.00  0.00    +0.000 NA
ATOM      3  C   UNL     1       2.432   6.790  19.473  0.00  0.00    +0.000 A 
ATOM      4  C   UNL     1       2.453   5.431  19.879  0.00  0.00    +0.000 A 
ATOM      5  C   UNL     1       3.169   4.767  18.907  0.00  0.00    +0.000 A 
ATOM      6  C   UNL     1       3.439   3.304  18.867  0.00  0.00    +0.000 C 
ATOM      7  C   UNL     1       2.499   2.578  19.850  0.00  0.00    +0.000 C 
ATOM      8  C   UNL     1       2.395   3.311  21.203  0.00  0.00    +0.000 C 
ATOM      9  C   UNL     1       1.843   4.749  21.050  0.00  0.00    +0.000 C 
ENDROOT
BRANCH   3  10
ATOM     10  C   UNL     1       1.727   7.907  20.130  0.00  0.00    +0.000 C 
ATOM     11  O   UNL     1       1.413   7.889  21.316  0.00  0.00    +0.000 OA
ATOM     12  N   UNL     1       1.446   8.959  19.289  0.00  0.00    +0.000 N 
ATOM     13  H   UNL     1       1.875   8.915  18.369  0.00  0.00    +0.000 HD
BRANCH  12  14
ATOM     14  C   UNL     1       0.790  10.156  19.750  0.00  0.00    +0.000 C 
BRANCH  14  15
ATOM     15  C   UNL     1      -0.482  10.460  19.000  0.00  0.00    +0.000 A 
ATOM     16  C   UNL     1      -1.372  11.454  19.421  0.00  0.00    +0.000 A 
ATOM     17  C   UNL     1      -2.500  11.712  18.658  0.00  0.00    +0.000 A 
ATOM     18  N   UNL     1      -2.794  11.068  17.509  0.00  0.00    +0.000 NA
ATOM     19  C   UNL     1      -1.913  10.132  17.100  0.00  0.00    +0.000 A 
ATOM     20  C   UNL     1      -0.759   9.800  17.797  0.00  0.00    +0.000 A 
ENDBRANCH  14  15
ENDBRANCH  12  14
ENDBRANCH   3  10
BRANCH   1  22
ATOM     21  C   UNL     1       5.600   6.599  16.861  0.00  0.00    +0.000 C 
ATOM     22  C   UNL     1       4.506   5.547  16.909  0.00  0.00    +0.000 C 
ENDBRANCH   1  22
BRANCH   8  23
ATOM     23  O   UNL     1       1.570   2.553  22.087  0.00  0.00    +0.000 OA
ATOM     24  H   UNL     1       0.948   2.034  21.550  0.00  0.00    +0.000 HD
ENDBRANCH   8  23
TORSDOF 5
ENDMDL
MODEL 6
REMARK VINA RESULT:      -7.0      2.245      2.726
REMARK  Name = 
REMARK  6 active torsions:
REMARK  status: ('A' for Active; 'I' for Inactive)
REMARK    1  A    between atoms: C_1  and  C_2
REMARK    2  A    between atoms: C_2  and  N_3
REMARK    3  A    between atoms: C_5  and  C_6
REMARK    4  A    between atoms: N_8  and  C_9
REMARK    5  A    between atoms: C_9  and  C_10
REMARK    6  A    between atoms: C_20  and  O_21
REMARK                            x       y       z     vdW  Elec       q    Type
REMARK                         _______ _______ _______ _____ _____    ______ ____
ROOT
ATOM      1  N   UNL     1       2.552   5.797  19.922  0.00  0.00    +0.000 N 
ATOM      2  N   UNL     1       1.871   6.963  19.826  0.00  0.00    +0.000 NA
ATOM      3  C   UNL     1       2.418   7.590  18.759  0.00  0.00    +0.000 A 
ATOM      4  C   UNL     1       3.435   6.791  18.177  0.00  0.00    +0.000 A 
ATOM      5  C   UNL     1       3.528   5.674  18.977  0.00  0.00    +0.000 A 
ATOM      6  C   UNL     1       4.486   4.548  18.798  0.00  0.00    +0.000 C 
ATOM      7  C   UNL     1       5.605   4.972  17.827  0.00  0.00    +0.000 C 
ATOM      8  C   UNL     1       5.055   5.725  16.599  0.00  0.00    +0.000 C 
ATOM      9  C   UNL     1       4.304   7.020  16.993  0.00  0.00    +0.000 C 
ENDROOT
BRANCH   3  10
ATOM     10  C   UNL     1       1.980   8.931  18.326  0.00  0.00    +0.000 C 
ATOM     11  O   UNL     1       2.336   9.438  17.268  0.00  0.00    +0.000 OA
ATOM     12  N   UNL     1       1.151   9.562  19.226  0.00  0.00    +0.000 N 
ATOM     13  H   UNL     1       0.820   8.989  19.997  0.00  0.00    +0.000 HD
BRANCH  12  14
ATOM     14  C   UNL     1       0.593  10.866  18.971  0.00  0.00    +0.000 C 
BRANCH  14  15
ATOM     15  C   UNL     1      -0.837  10.815  18.498  0.00  0.00    +0.000 A 
ATOM     16  C   UNL     1      -1.279   9.867  17.569  0.00  0.00    +0.000 A 
ATOM     17  C   UNL     1      -2.619   9.850  17.213  0.00  0.00    +0.000 A 
ATOM     18  N   UNL     1      -3.543  10.690  17.723  0.00  0.00    +0.000 NA
ATOM     19  C   UNL     1      -3.108  11.581  18.638  0.00  0.00    +0.000 A 
ATOM     20  C   UNL     1      -1.788  11.678  19.055  0.00  0.00    +0.000 A 
ENDBRANCH  14  15
ENDBRANCH  12  14
ENDBRANCH   3  10
BRANCH   1  22
ATOM     21  C   UNL     1       1.043   3.902  20.436  0.00  0.00    +0.000 C 
ATOM     22  C   UNL     1       2.154   4.818  20.918  0.00  0.00    +0.000 C 
ENDBRANCH   1  22
BRANCH   8  23
ATOM     23  O   UNL     1       6.130   6.025  15.709  0.00  0.00    +0.000 OA
ATOM     24  H   UNL     1       5.776   6.047  14.804  0.00  0.00    +0.000 HD
ENDBRANCH   8  23
TORSDOF 5
ENDMDL
MODEL 7
REMARK VINA RESULT:      -7.0      2.741      4.151
REMARK  Name = 
REMARK  6 active torsions:
REMARK  status: ('A' for Active; 'I' for Inactive)
REMARK    1  A    between atoms: C_1  and  C_2
REMARK    2  A    between atoms: C_2  and  N_3
REMARK    3  A    between atoms: C_5  and  C_6
REMARK    4  A    between atoms: N_8  and  C_9
REMARK    5  A    between atoms: C_9  and  C_10
REMARK    6  A    between atoms: C_20  and  O_21
REMARK                            x       y       z     vdW  Elec       q    Type
REMARK                         _______ _______ _______ _____ _____    ______ ____
ROOT
ATOM      1  N   UNL     1       4.196   6.287  17.181  0.00  0.00    +0.000 N 
ATOM      2  N   UNL     1       3.729   7.382  17.826  0.00  0.00    +0.000 NA
ATOM      3  C   UNL     1       2.763   6.907  18.648  0.00  0.00    +0.000 A 
ATOM      4  C   UNL     1       2.648   5.499  18.522  0.00  0.00    +0.000 A 
ATOM      5  C   UNL     1       3.544   5.143  17.538  0.00  0.00    +0.000 A 
ATOM      6  C   UNL     1       3.768   3.766  17.017  0.00  0.00    +0.000 C 
ATOM      7  C   UNL     1       2.607   2.853  17.456  0.00  0.00    +0.000 C 
ATOM      8  C   UNL     1       2.222   3.070  18.933  0.00  0.00    +0.000 C 
ATOM      9  C   UNL     1       1.765   4.523  19.213  0.00  0.00    +0.000 C 
ENDROOT
BRANCH   3  10
ATOM     10  C   UNL     1       1.964   7.794  19.515  0.00  0.00    +0.000 C 
ATOM     11  O   UNL     1       1.674   7.508  20.672  0.00  0.00    +0.000 OA
ATOM     12  N   UNL     1       1.566   8.960  18.901  0.00  0.00    +0.000 N 
ATOM     13  H   UNL     1       1.981   9.144  17.992  0.00  0.00    +0.000 HD
BRANCH  12  14
ATOM     14  C   UNL     1       0.804   9.968  19.592  0.00  0.00    +0.000 C 
BRANCH  14  15
ATOM     15  C   UNL     1      -0.425  10.404  18.835  0.00  0.00    +0.000 A 
ATOM     16  C   UNL     1      -0.857   9.744  17.679  0.00  0.00    +0.000 A 
ATOM     17  C   UNL     1      -2.021  10.171  17.059  0.00  0.00    +0.000 A 
ATOM     18  N   UNL     1      -2.786  11.186  17.511  0.00  0.00    +0.000 NA
ATOM     19  C   UNL     1      -2.372  11.795  18.641  0.00  0.00    +0.000 A 
ATOM     20  C   UNL     1      -1.219  11.444  19.331  0.00  0.00    +0.000 A 
ENDBRANCH  14  15
ENDBRANCH  12  14
ENDBRANCH   3  10
BRANCH   1  22
ATOM     21  C   UNL     1       6.654   6.528  17.003  0.00  0.00    +0.000 C 
ATOM     22  C   UNL     1       5.325   6.418  16.278  0.00  0.00    +0.000 C 
ENDBRANCH   1  22
BRANCH   8  23
ATOM     23  O   UNL     1       1.193   2.148  19.293  0.00  0.00    +0.000 OA
ATOM     24  H   UNL     1       0.353   2.477  18.931  0.00  0.00    +0.000 HD
ENDBRANCH   8  23
TORSDOF 5
ENDMDL
MODEL 8
REMARK VINA RESULT:      -6.9      3.293      7.864
REMARK  Name = 
REMARK  6 active torsions:
REMARK  status: ('A' for Active; 'I' for Inactive)
REMARK    1  A    between atoms: C_1  and  C_2
REMARK    2  A    between atoms: C_2  and  N_3
REMARK    3  A    between atoms: C_5  and  C_6
REMARK    4  A    between atoms: N_8  and  C_9
REMARK    5  A    between atoms: C_9  and  C_10
REMARK    6  A    between atoms: C_20  and  O_21
REMARK                            x       y       z     vdW  Elec       q    Type
REMARK                         _______ _______ _______ _____ _____    ______ ____
ROOT
ATOM      1  N   UNL     1       2.628   6.901  19.001  0.00  0.00    +0.000 N 
ATOM      2  N   UNL     1       3.577   7.362  18.152  0.00  0.00    +0.000 NA
ATOM      3  C   UNL     1       3.979   6.269  17.463  0.00  0.00    +0.000 A 
ATOM      4  C   UNL     1       3.255   5.122  17.878  0.00  0.00    +0.000 A 
ATOM      5  C   UNL     1       2.435   5.554  18.898  0.00  0.00    +0.000 A 
ATOM      6  C   UNL     1       1.501   4.705  19.688  0.00  0.00    +0.000 C 
ATOM      7  C   UNL     1       1.843   3.218  19.467  0.00  0.00    +0.000 C 
ATOM      8  C   UNL     1       2.117   2.898  17.984  0.00  0.00    +0.000 C 
ATOM      9  C   UNL     1       3.308   3.710  17.419  0.00  0.00    +0.000 C 
ENDROOT
BRANCH   3  10
ATOM     10  C   UNL     1       5.046   6.329  16.446  0.00  0.00    +0.000 C 
ATOM     11  O   UNL     1       5.012   7.098  15.491  0.00  0.00    +0.000 OA
ATOM     12  N   UNL     1       6.072   5.437  16.662  0.00  0.00    +0.000 N 
ATOM     13  H   UNL     1       6.054   4.953  17.556  0.00  0.00    +0.000 HD
BRANCH  12  14
ATOM     14  C   UNL     1       7.221   5.365  15.797  0.00  0.00    +0.000 C 
BRANCH  14  15
ATOM     15  C   UNL     1       6.904   4.794  14.439  0.00  0.00    +0.000 A 
ATOM     16  C   UNL     1       7.670   5.098  13.308  0.00  0.00    +0.000 A 
ATOM     17  C   UNL     1       7.348   4.502  12.099  0.00  0.00    +0.000 A 
ATOM     18  N   UNL     1       6.339   3.620  11.940  0.00  0.00    +0.000 NA
ATOM     19  C   UNL     1       5.627   3.315  13.044  0.00  0.00    +0.000 A 
ATOM     20  C   UNL     1       5.869   3.862  14.296  0.00  0.00    +0.000 A 
ENDBRANCH  14  15
ENDBRANCH  12  14
ENDBRANCH   3  10
BRANCH   1  22
ATOM     21  C   UNL     1       1.414   9.057  19.076  0.00  0.00    +0.000 C 
ATOM     22  C   UNL     1       1.902   7.838  19.838  0.00  0.00    +0.000 C 
ENDBRANCH   1  22
BRANCH   8  23
ATOM     23  O   UNL     1       2.356   1.499  17.840  0.00  0.00    +0.000 OA
ATOM     24  H   UNL     1       1.837   1.180  17.082  0.00  0.00    +0.000 HD
ENDBRANCH   8  23
TORSDOF 5
ENDMDL
MODEL 9
REMARK VINA RESULT:      -6.9      2.112      2.478
REMARK  Name = 
REMARK  6 active torsions:
REMARK  status: ('A' for Active; 'I' for Inactive)
REMARK    1  A    between atoms: C_1  and  C_2
REMARK    2  A    between atoms: C_2  and  N_3
REMARK    3  A    between atoms: C_5  and  C_6
REMARK    4  A    between atoms: N_8  and  C_9
REMARK    5  A    between atoms: C_9  and  C_10
REMARK    6  A    between atoms: C_20  and  O_21
REMARK                            x       y       z     vdW  Elec       q    Type
REMARK                         _______ _______ _______ _____ _____    ______ ____
ROOT
ATOM      1  N   UNL     1       2.571   4.198  17.915  0.00  0.00    +0.000 N 
ATOM      2  N   UNL     1       1.878   5.221  18.468  0.00  0.00    +0.000 NA
ATOM      3  C   UNL     1       2.697   6.292  18.346  0.00  0.00    +0.000 A 
ATOM      4  C   UNL     1       3.902   5.929  17.693  0.00  0.00    +0.000 A 
ATOM      5  C   UNL     1       3.809   4.571  17.477  0.00  0.00    +0.000 A 
ATOM      6  C   UNL     1       4.850   3.712  16.849  0.00  0.00    +0.000 C 
ATOM      7  C   UNL     1       6.191   4.471  16.811  0.00  0.00    +0.000 C 
ATOM      8  C   UNL     1       6.019   5.936  16.362  0.00  0.00    +0.000 C 
ATOM      9  C   UNL     1       5.091   6.734  17.310  0.00  0.00    +0.000 C 
ENDROOT
BRANCH   3  10
ATOM     10  C   UNL     1       2.330   7.624  18.865  0.00  0.00    +0.000 C 
ATOM     11  O   UNL     1       2.171   7.853  20.059  0.00  0.00    +0.000 OA
ATOM     12  N   UNL     1       2.171   8.577  17.884  0.00  0.00    +0.000 N 
ATOM     13  H   UNL     1       2.462   8.302  16.951  0.00  0.00    +0.000 HD
BRANCH  12  14
ATOM     14  C   UNL     1       1.843   9.946  18.191  0.00  0.00    +0.000 C 
BRANCH  14  15
ATOM     15  C   UNL     1       0.360  10.186  18.314  0.00  0.00    +0.000 A 
ATOM     16  C   UNL     1      -0.176  11.033  19.291  0.00  0.00    +0.000 A 
ATOM     17  C   UNL     1      -1.546  11.243  19.317  0.00  0.00    +0.000 A 
ATOM     18  N   UNL     1      -2.409  10.690  18.440  0.00  0.00    +0.000 NA
ATOM     19  C   UNL     1      -1.875   9.898  17.487  0.00  0.00    +0.000 A 
ATOM     20  C   UNL     1      -0.519   9.624  17.382  0.00  0.00    +0.000 A 
ENDBRANCH  14  15
ENDBRANCH  12  14
ENDBRANCH   3  10
BRANCH   1  22
ATOM     21  C   UNL     1       0.955   2.603  18.903  0.00  0.00    +0.000 C 
ATOM     22  C   UNL     1       1.942   2.896  17.787  0.00  0.00    +0.000 C 
ENDBRANCH   1  22
BRANCH   8  23
ATOM     23  O   UNL     1       7.300   6.558  16.281  0.00  0.00    +0.000 OA
ATOM     24  H   UNL     1       7.333   7.077  15.460  0.00  0.00    +0.000 HD
ENDBRANCH   8  23
TORSDOF 5
ENDMDL
