MODEL 1
REMARK VINA RESULT:      -8.9      0.000      0.000
REMARK  Name = 
REMARK  5 active torsions:
REMARK  status: ('A' for Active; 'I' for Inactive)
REMARK    1  A    between atoms: C_1  and  C_2
REMARK    2  A    between atoms: C_8  and  C_9
REMARK    3  A    between atoms: N_11  and  C_12
REMARK    4  A    between atoms: N_20  and  C_21
REMARK    5  A    between atoms: C_28  and  C_29
REMARK                            x       y       z     vdW  Elec       q    Type
REMARK                         _______ _______ _______ _____ _____    ______ ____
ROOT
ATOM      1  C   UNL     1       3.540  13.837  18.583  0.00  0.00    +0.000 C 
ATOM      2  C   UNL     1       2.396  14.844  18.584  0.00  0.00    +0.000 C 
ATOM      3  C   UNL     1       1.010  14.185  18.660  0.00  0.00    +0.000 C 
ATOM      4  N   UNL     1       0.651  13.864  20.036  0.00  0.00    +0.000 N 
ATOM      5  C   UNL     1       0.667  12.592  20.472  0.00  0.00    +0.000 A 
ATOM      6  N   UNL     1       1.085  11.508  19.846  0.00  0.00    +0.000 NA
ATOM      7  C   UNL     1       0.734  10.480  20.697  0.00  0.00    +0.000 A 
ATOM      8  C   UNL     1       0.894   9.087  20.625  0.00  0.00    +0.000 A 
ATOM      9  C   UNL     1       0.310   8.308  21.649  0.00  0.00    +0.000 A 
ATOM     10  C   UNL     1      -0.351   8.895  22.738  0.00  0.00    +0.000 A 
ATOM     11  C   UNL     1      -0.444  10.282  22.858  0.00  0.00    +0.000 A 
ATOM     12  C   UNL     1       0.102  11.012  21.810  0.00  0.00    +0.000 A 
ATOM     13  O   UNL     1       0.096  12.362  21.685  0.00  0.00    +0.000 OA
ATOM     14  C   UNL     1       0.748  14.981  20.965  0.00  0.00    +0.000 C 
ATOM     15  C   UNL     1       2.140  15.643  20.889  0.00  0.00    +0.000 C 
ATOM     16  C   UNL     1       3.198  14.922  21.720  0.00  0.00    +0.000 C 
ATOM     17  O   UNL     1       2.589  15.898  19.546  0.00  0.00    +0.000 OA
ENDROOT
BRANCH   8  18
ATOM     18  C   UNL     1       1.679   8.425  19.553  0.00  0.00    +0.000 C 
ATOM     19  O   UNL     1       1.786   8.977  18.460  0.00  0.00    +0.000 OA
ATOM     20  N   UNL     1       2.236   7.196  19.835  0.00  0.00    +0.000 N 
ATOM     21  H   UNL     1       2.247   6.887  20.806  0.00  0.00    +0.000 HD
BRANCH  20  22
ATOM     22  C   UNL     1       3.051   6.443  18.876  0.00  0.00    +0.000 C 
ATOM     23  C   UNL     1       4.043   5.501  19.577  0.00  0.00    +0.000 C 
ATOM     24  C   UNL     1       3.405   4.174  20.052  0.00  0.00    +0.000 C 
ATOM     25  C   UNL     1       4.078   2.970  19.360  0.00  0.00    +0.000 C 
ATOM     26  C   UNL     1       3.768   2.918  17.865  0.00  0.00    +0.000 C 
ATOM     27  C   UNL     1       2.276   3.108  17.602  0.00  0.00    +0.000 C 
ATOM     28  C   UNL     1       1.671   4.296  18.387  0.00  0.00    +0.000 C 
ATOM     29  C   UNL     1       2.174   5.669  17.867  0.00  0.00    +0.000 C 
ATOM     30  N   UNL     1       1.951   4.207  19.823  0.00  0.00    +0.000 NA
ATOM     31  C   UNL     1       1.219   3.159  20.518  0.00  0.00    +0.000 C 
ENDBRANCH  20  22
ENDBRANCH   8  18
TORSDOF 2
ENDMDL
MODEL 2
REMARK VINA RESULT:      -8.3      5.183      9.132
REMARK  Name = 
REMARK  5 active torsions:
REMARK  status: ('A' for Active; 'I' for Inactive)
REMARK    1  A    between atoms: C_1  and  C_2
REMARK    2  A    between atoms: C_8  and  C_9
REMARK    3  A    between atoms: N_11  and  C_12
REMARK    4  A    between atoms: N_20  and  C_21
REMARK    5  A    between atoms: C_28  and  C_29
REMARK                            x       y       z     vdW  Elec       q    Type
REMARK                         _______ _______ _______ _____ _____    ______ ____
ROOT
ATOM      1  C   UNL     1      -1.039  14.995  21.661  0.00  0.00    +0.000 C 
ATOM      2  C   UNL     1      -0.132  13.984  22.352  0.00  0.00    +0.000 C 
ATOM      3  C   UNL     1      -0.630  12.536  22.221  0.00  0.00    +0.000 C 
ATOM      4  N   UNL     1      -0.221  11.948  20.952  0.00  0.00    +0.000 N 
ATOM      5  C   UNL     1      -1.113  11.756  19.964  0.00  0.00    +0.000 A 
ATOM      6  N   UNL     1      -2.375  12.136  19.903  0.00  0.00    +0.000 NA
ATOM      7  C   UNL     1      -2.840  11.552  18.743  0.00  0.00    +0.000 A 
ATOM      8  C   UNL     1      -4.091  11.562  18.106  0.00  0.00    +0.000 A 
ATOM      9  C   UNL     1      -4.248  10.751  16.959  0.00  0.00    +0.000 A 
ATOM     10  C   UNL     1      -3.183  10.010  16.428  0.00  0.00    +0.000 A 
ATOM     11  C   UNL     1      -1.915  10.058  17.008  0.00  0.00    +0.000 A 
ATOM     12  C   UNL     1      -1.812  10.828  18.159  0.00  0.00    +0.000 A 
ATOM     13  O   UNL     1      -0.699  10.993  18.917  0.00  0.00    +0.000 OA
ATOM     14  C   UNL     1       1.206  12.034  20.675  0.00  0.00    +0.000 C 
ATOM     15  C   UNL     1       1.706  13.488  20.805  0.00  0.00    +0.000 C 
ATOM     16  C   UNL     1       1.461  14.326  19.554  0.00  0.00    +0.000 C 
ATOM     17  O   UNL     1       1.254  14.153  21.998  0.00  0.00    +0.000 OA
ENDROOT
BRANCH   8  18
ATOM     18  C   UNL     1      -5.217  12.415  18.565  0.00  0.00    +0.000 C 
ATOM     19  O   UNL     1      -6.039  12.815  17.744  0.00  0.00    +0.000 OA
ATOM     20  N   UNL     1      -5.269  12.738  19.904  0.00  0.00    +0.000 N 
ATOM     21  H   UNL     1      -4.656  12.234  20.543  0.00  0.00    +0.000 HD
BRANCH  20  22
ATOM     22  C   UNL     1      -6.336  13.554  20.493  0.00  0.00    +0.000 C 
ATOM     23  C   UNL     1      -7.190  12.754  21.490  0.00  0.00    +0.000 C 
ATOM     24  C   UNL     1      -6.542  12.619  22.889  0.00  0.00    +0.000 C 
ATOM     25  C   UNL     1      -7.436  13.270  23.966  0.00  0.00    +0.000 C 
ATOM     26  C   UNL     1      -7.498  14.790  23.823  0.00  0.00    +0.000 C 
ATOM     27  C   UNL     1      -6.103  15.385  23.645  0.00  0.00    +0.000 C 
ATOM     28  C   UNL     1      -5.253  14.631  22.595  0.00  0.00    +0.000 C 
ATOM     29  C   UNL     1      -5.777  14.836  21.150  0.00  0.00    +0.000 C 
ATOM     30  N   UNL     1      -5.186  13.193  22.871  0.00  0.00    +0.000 NA
ATOM     31  C   UNL     1      -4.377  12.835  24.026  0.00  0.00    +0.000 C 
ENDBRANCH  20  22
ENDBRANCH   8  18
TORSDOF 2
ENDMDL
MODEL 3
REMARK VINA RESULT:      -8.0      5.022      7.216
REMARK  Name = 
REMARK  5 active torsions:
REMARK  status: ('A' for Active; 'I' for Inactive)
REMARK    1  A    between atoms: C_1  and  C_2
REMARK    2  A    between atoms: C_8  and  C_9
REMARK    3  A    between atoms: N_11  and  C_12
REMARK    4  A    between atoms: N_20  and  C_21
REMARK    5  A    between atoms: C_28  and  C_29
REMARK                            x       y       z     vdW  Elec       q    Type
REMARK                         _______ _______ _______ _____ _____    ______ ____
ROOT
ATOM      1  C   UNL     1      -1.733  15.201  22.103  0.00  0.00    +0.000 C 
ATOM      2  C   UNL     1      -2.655  16.334  22.537  0.00  0.00    +0.000 C 
ATOM      3  C   UNL     1      -3.962  16.393  21.731  0.00  0.00    +0.000 C 
ATOM      4  N   UNL     1      -4.952  15.463  22.258  0.00  0.00    +0.000 N 
ATOM      5  C   UNL     1      -5.249  14.328  21.600  0.00  0.00    +0.000 A 
ATOM      6  N   UNL     1      -4.675  13.820  20.525  0.00  0.00    +0.000 NA
ATOM      7  C   UNL     1      -5.469  12.737  20.208  0.00  0.00    +0.000 A 
ATOM      8  C   UNL     1      -5.409  11.781  19.183  0.00  0.00    +0.000 A 
ATOM      9  C   UNL     1      -6.469  10.850  19.094  0.00  0.00    +0.000 A 
ATOM     10  C   UNL     1      -7.515  10.831  20.028  0.00  0.00    +0.000 A 
ATOM     11  C   UNL     1      -7.540  11.727  21.097  0.00  0.00    +0.000 A 
ATOM     12  C   UNL     1      -6.506  12.655  21.124  0.00  0.00    +0.000 A 
ATOM     13  O   UNL     1      -6.342  13.645  22.036  0.00  0.00    +0.000 OA
ATOM     14  C   UNL     1      -5.215  15.599  23.684  0.00  0.00    +0.000 C 
ATOM     15  C   UNL     1      -3.902  15.538  24.494  0.00  0.00    +0.000 C 
ATOM     16  C   UNL     1      -3.426  14.115  24.766  0.00  0.00    +0.000 C 
ATOM     17  O   UNL     1      -2.854  16.368  23.963  0.00  0.00    +0.000 OA
ENDROOT
BRANCH   8  18
ATOM     18  C   UNL     1      -4.269  11.689  18.238  0.00  0.00    +0.000 C 
ATOM     19  O   UNL     1      -4.488  11.426  17.057  0.00  0.00    +0.000 OA
ATOM     20  N   UNL     1      -3.001  11.885  18.744  0.00  0.00    +0.000 N 
ATOM     21  H   UNL     1      -2.915  12.264  19.685  0.00  0.00    +0.000 HD
BRANCH  20  22
ATOM     22  C   UNL     1      -1.790  11.843  17.918  0.00  0.00    +0.000 C 
ATOM     23  C   UNL     1      -0.760  12.898  18.352  0.00  0.00    +0.000 C 
ATOM     24  C   UNL     1       0.081  12.473  19.579  0.00  0.00    +0.000 C 
ATOM     25  C   UNL     1       1.579  12.408  19.214  0.00  0.00    +0.000 C 
ATOM     26  C   UNL     1       1.888  11.268  18.245  0.00  0.00    +0.000 C 
ATOM     27  C   UNL     1       1.242   9.963  18.704  0.00  0.00    +0.000 C 
ATOM     28  C   UNL     1      -0.240  10.133  19.113  0.00  0.00    +0.000 C 
ATOM     29  C   UNL     1      -1.160  10.433  17.900  0.00  0.00    +0.000 C 
ATOM     30  N   UNL     1      -0.418  11.194  20.110  0.00  0.00    +0.000 NA
ATOM     31  C   UNL     1       0.083  10.867  21.436  0.00  0.00    +0.000 C 
ENDBRANCH  20  22
ENDBRANCH   8  18
TORSDOF 2
ENDMDL
MODEL 4
REMARK VINA RESULT:      -7.9      4.271      7.646
REMARK  Name = 
REMARK  5 active torsions:
REMARK  status: ('A' for Active; 'I' for Inactive)
REMARK    1  A    between atoms: C_1  and  C_2
REMARK    2  A    between atoms: C_8  and  C_9
REMARK    3  A    between atoms: N_11  and  C_12
REMARK    4  A    between atoms: N_20  and  C_21
REMARK    5  A    between atoms: C_28  and  C_29
REMARK                            x       y       z     vdW  Elec       q    Type
REMARK                         _______ _______ _______ _____ _____    ______ ____
ROOT
ATOM      1  C   UNL     1      -2.607  15.745  21.715  0.00  0.00    +0.000 C 
ATOM      2  C   UNL     1      -3.930  15.227  22.268  0.00  0.00    +0.000 C 
ATOM      3  C   UNL     1      -4.169  13.739  21.971  0.00  0.00    +0.000 C 
ATOM      4  N   UNL     1      -3.496  12.890  22.946  0.00  0.00    +0.000 N 
ATOM      5  C   UNL     1      -2.387  12.207  22.613  0.00  0.00    +0.000 A 
ATOM      6  N   UNL     1      -1.687  12.258  21.496  0.00  0.00    +0.000 NA
ATOM      7  C   UNL     1      -0.753  11.253  21.645  0.00  0.00    +0.000 A 
ATOM      8  C   UNL     1       0.283  10.786  20.822  0.00  0.00    +0.000 A 
ATOM      9  C   UNL     1       0.996   9.645  21.252  0.00  0.00    +0.000 A 
ATOM     10  C   UNL     1       0.733   9.030  22.484  0.00  0.00    +0.000 A 
ATOM     11  C   UNL     1      -0.242   9.537  23.345  0.00  0.00    +0.000 A 
ATOM     12  C   UNL     1      -0.952  10.631  22.868  0.00  0.00    +0.000 A 
ATOM     13  O   UNL     1      -1.967  11.266  23.503  0.00  0.00    +0.000 OA
ATOM     14  C   UNL     1      -3.804  13.199  24.335  0.00  0.00    +0.000 C 
ATOM     15  C   UNL     1      -3.563  14.694  24.634  0.00  0.00    +0.000 C 
ATOM     16  C   UNL     1      -2.104  15.023  24.933  0.00  0.00    +0.000 C 
ATOM     17  O   UNL     1      -4.126  15.580  23.650  0.00  0.00    +0.000 OA
ENDROOT
BRANCH   8  18
ATOM     18  C   UNL     1       0.674  11.467  19.562  0.00  0.00    +0.000 C 
ATOM     19  O   UNL     1       0.949  10.789  18.574  0.00  0.00    +0.000 OA
ATOM     20  N   UNL     1       0.734  12.845  19.571  0.00  0.00    +0.000 N 
ATOM     21  H   UNL     1       0.331  13.336  20.368  0.00  0.00    +0.000 HD
BRANCH  20  22
ATOM     22  C   UNL     1       1.085  13.643  18.392  0.00  0.00    +0.000 C 
ATOM     23  C   UNL     1       0.664  15.113  18.545  0.00  0.00    +0.000 C 
ATOM     24  C   UNL     1       1.651  15.954  19.389  0.00  0.00    +0.000 C 
ATOM     25  C   UNL     1       2.241  17.105  18.547  0.00  0.00    +0.000 C 
ATOM     26  C   UNL     1       3.167  16.598  17.443  0.00  0.00    +0.000 C 
ATOM     27  C   UNL     1       4.160  15.571  17.984  0.00  0.00    +0.000 C 
ATOM     28  C   UNL     1       3.493  14.494  18.870  0.00  0.00    +0.000 C 
ATOM     29  C   UNL     1       2.589  13.532  18.056  0.00  0.00    +0.000 C 
ATOM     30  N   UNL     1       2.698  15.084  19.951  0.00  0.00    +0.000 NA
ATOM     31  C   UNL     1       3.480  15.706  21.008  0.00  0.00    +0.000 C 
ENDBRANCH  20  22
ENDBRANCH   8  18
TORSDOF 2
ENDMDL
MODEL 5
REMARK VINA RESULT:      -7.8      6.913      8.871
REMARK  Name = 
REMARK  5 active torsions:
REMARK  status: ('A' for Active; 'I' for Inactive)
REMARK    1  A    between atoms: C_1  and  C_2
REMARK    2  A    between atoms: C_8  and  C_9
REMARK    3  A    between atoms: N_11  and  C_12
REMARK    4  A    between atoms: N_20  and  C_21
REMARK    5  A    between atoms: C_28  and  C_29
REMARK                            x       y       z     vdW  Elec       q    Type
REMARK                         _______ _______ _______ _____ _____    ______ ____
ROOT
ATOM      1  C   UNL     1       8.817  12.604  24.038  0.00  0.00    +0.000 C 
ATOM      2  C   UNL     1       8.359  13.288  25.321  0.00  0.00    +0.000 C 
ATOM      3  C   UNL     1       7.592  14.595  25.070  0.00  0.00    +0.000 C 
ATOM      4  N   UNL     1       6.188  14.338  24.775  0.00  0.00    +0.000 N 
ATOM      5  C   UNL     1       5.713  14.469  23.524  0.00  0.00    +0.000 A 
ATOM      6  N   UNL     1       6.375  14.710  22.408  0.00  0.00    +0.000 NA
ATOM      7  C   UNL     1       5.382  14.887  21.467  0.00  0.00    +0.000 A 
ATOM      8  C   UNL     1       5.412  15.169  20.092  0.00  0.00    +0.000 A 
ATOM      9  C   UNL     1       4.176  15.392  19.444  0.00  0.00    +0.000 A 
ATOM     10  C   UNL     1       2.954  15.274  20.121  0.00  0.00    +0.000 A 
ATOM     11  C   UNL     1       2.913  14.914  21.468  0.00  0.00    +0.000 A 
ATOM     12  C   UNL     1       4.147  14.749  22.083  0.00  0.00    +0.000 A 
ATOM     13  O   UNL     1       4.360  14.441  23.386  0.00  0.00    +0.000 OA
ATOM     14  C   UNL     1       5.502  13.513  25.760  0.00  0.00    +0.000 C 
ATOM     15  C   UNL     1       6.272  12.199  26.012  0.00  0.00    +0.000 C 
ATOM     16  C   UNL     1       5.979  11.120  24.974  0.00  0.00    +0.000 C 
ATOM     17  O   UNL     1       7.684  12.384  26.216  0.00  0.00    +0.000 OA
ENDROOT
BRANCH   8  18
ATOM     18  C   UNL     1       6.671  15.196  19.307  0.00  0.00    +0.000 C 
ATOM     19  O   UNL     1       6.694  15.789  18.231  0.00  0.00    +0.000 OA
ATOM     20  N   UNL     1       7.760  14.524  19.821  0.00  0.00    +0.000 N 
ATOM     21  H   UNL     1       7.713  14.206  20.788  0.00  0.00    +0.000 HD
BRANCH  20  22
ATOM     22  C   UNL     1       9.068  14.488  19.160  0.00  0.00    +0.000 C 
ATOM     23  C   UNL     1      10.209  14.217  20.154  0.00  0.00    +0.000 C 
ATOM     24  C   UNL     1      10.369  12.722  20.518  0.00  0.00    +0.000 C 
ATOM     25  C   UNL     1      11.763  12.208  20.101  0.00  0.00    +0.000 C 
ATOM     26  C   UNL     1      11.928  12.153  18.583  0.00  0.00    +0.000 C 
ATOM     27  C   UNL     1      10.728  11.479  17.922  0.00  0.00    +0.000 C 
ATOM     28  C   UNL     1       9.373  12.008  18.446  0.00  0.00    +0.000 C 
ATOM     29  C   UNL     1       9.092  13.467  18.000  0.00  0.00    +0.000 C 
ATOM     30  N   UNL     1       9.282  11.938  19.908  0.00  0.00    +0.000 NA
ATOM     31  C   UNL     1       9.152  10.591  20.442  0.00  0.00    +0.000 C 
ENDBRANCH  20  22
ENDBRANCH   8  18
TORSDOF 2
ENDMDL
MODEL 6
REMARK VINA RESULT:      -7.8      5.183      7.838
REMARK  Name = 
REMARK  5 active torsions:
REMARK  status: ('A' for Active; 'I' for Inactive)
REMARK    1  A    between atoms: C_1  and  C_2
REMARK    2  A    between atoms: C_8  and  C_9
REMARK    3  A    between atoms: N_11  and  C_12
REMARK    4  A    between atoms: N_20  and  C_21
REMARK    5  A    between atoms: C_28  and  C_29
REMARK                            x       y       z     vdW  Elec       q    Type
REMARK                         _______ _______ _______ _____ _____    ______ ____
ROOT
ATOM      1  C   UNL     1      -5.307  11.243  18.367  0.00  0.00    +0.000 C 
ATOM      2  C   UNL     1      -6.771  11.181  18.785  0.00  0.00    +0.000 C 
ATOM      3  C   UNL     1      -6.965  11.159  20.309  0.00  0.00    +0.000 C 
ATOM      4  N   UNL     1      -6.922  12.503  20.869  0.00  0.00    +0.000 N 
ATOM      5  C   UNL     1      -5.853  12.923  21.569  0.00  0.00    +0.000 A 
ATOM      6  N   UNL     1      -4.700  12.312  21.764  0.00  0.00    +0.000 NA
ATOM      7  C   UNL     1      -4.044  13.125  22.666  0.00  0.00    +0.000 A 
ATOM      8  C   UNL     1      -2.785  13.046  23.279  0.00  0.00    +0.000 A 
ATOM      9  C   UNL     1      -2.469  14.019  24.254  0.00  0.00    +0.000 A 
ATOM     10  C   UNL     1      -3.346  15.070  24.559  0.00  0.00    +0.000 A 
ATOM     11  C   UNL     1      -4.566  15.202  23.897  0.00  0.00    +0.000 A 
ATOM     12  C   UNL     1      -4.861  14.201  22.980  0.00  0.00    +0.000 A 
ATOM     13  O   UNL     1      -5.998  14.093  22.248  0.00  0.00    +0.000 OA
ATOM     14  C   UNL     1      -7.834  13.451  20.243  0.00  0.00    +0.000 C 
ATOM     15  C   UNL     1      -7.638  13.475  18.712  0.00  0.00    +0.000 C 
ATOM     16  C   UNL     1      -6.482  14.364  18.264  0.00  0.00    +0.000 C 
ATOM     17  O   UNL     1      -7.578  12.168  18.114  0.00  0.00    +0.000 OA
ENDROOT
BRANCH   8  18
ATOM     18  C   UNL     1      -1.777  12.019  22.911  0.00  0.00    +0.000 C 
ATOM     19  O   UNL     1      -1.799  10.929  23.477  0.00  0.00    +0.000 OA
ATOM     20  N   UNL     1      -0.841  12.356  21.956  0.00  0.00    +0.000 N 
ATOM     21  H   UNL     1      -0.993  13.206  21.416  0.00  0.00    +0.000 HD
BRANCH  20  22
ATOM     22  C   UNL     1       0.195  11.431  21.485  0.00  0.00    +0.000 C 
ATOM     23  C   UNL     1      -0.388  10.306  20.616  0.00  0.00    +0.000 C 
ATOM     24  C   UNL     1      -0.653  10.730  19.151  0.00  0.00    +0.000 C 
ATOM     25  C   UNL     1       0.188   9.876  18.179  0.00  0.00    +0.000 C 
ATOM     26  C   UNL     1       1.683  10.170  18.297  0.00  0.00    +0.000 C 
ATOM     27  C   UNL     1       1.952  11.673  18.292  0.00  0.00    +0.000 C 
ATOM     28  C   UNL     1       1.021  12.458  19.245  0.00  0.00    +0.000 C 
ATOM     29  C   UNL     1       1.326  12.174  20.740  0.00  0.00    +0.000 C 
ATOM     30  N   UNL     1      -0.394  12.171  18.993  0.00  0.00    +0.000 NA
ATOM     31  C   UNL     1      -0.913  12.732  17.755  0.00  0.00    +0.000 C 
ENDBRANCH  20  22
ENDBRANCH   8  18
TORSDOF 2
ENDMDL
MODEL 7
REMARK VINA RESULT:      -7.6      5.215      7.717
REMARK  Name = 
REMARK  5 active torsions:
REMARK  status: ('A' for Active; 'I' for Inactive)
REMARK    1  A    between atoms: C_1  and  C_2
REMARK    2  A    between atoms: C_8  and  C_9
REMARK    3  A    between atoms: N_11  and  C_12
REMARK    4  A    between atoms: N_20  and  C_21
REMARK    5  A    between atoms: C_28  and  C_29
REMARK                            x       y       z     vdW  Elec       q    Type
REMARK                         _______ _______ _______ _____ _____    ______ ____
ROOT
ATOM      1  C   UNL     1      -1.547  14.030  23.647  0.00  0.00    +0.000 C 
ATOM      2  C   UNL     1      -2.536  15.163  23.400  0.00  0.00    +0.000 C 
ATOM      3  C   UNL     1      -2.810  15.411  21.909  0.00  0.00    +0.000 C 
ATOM      4  N   UNL     1      -3.821  14.495  21.396  0.00  0.00    +0.000 N 
ATOM      5  C   UNL     1      -3.478  13.473  20.592  0.00  0.00    +0.000 A 
ATOM      6  N   UNL     1      -2.274  13.063  20.243  0.00  0.00    +0.000 NA
ATOM      7  C   UNL     1      -2.518  12.085  19.301  0.00  0.00    +0.000 A 
ATOM      8  C   UNL     1      -1.673  11.259  18.544  0.00  0.00    +0.000 A 
ATOM      9  C   UNL     1      -2.272  10.423  17.575  0.00  0.00    +0.000 A 
ATOM     10  C   UNL     1      -3.663  10.362  17.410  0.00  0.00    +0.000 A 
ATOM     11  C   UNL     1      -4.515  11.120  18.214  0.00  0.00    +0.000 A 
ATOM     12  C   UNL     1      -3.888  11.963  19.123  0.00  0.00    +0.000 A 
ATOM     13  O   UNL     1      -4.500  12.820  19.976  0.00  0.00    +0.000 OA
ATOM     14  C   UNL     1      -5.063  14.473  22.157  0.00  0.00    +0.000 C 
ATOM     15  C   UNL     1      -4.787  14.223  23.654  0.00  0.00    +0.000 C 
ATOM     16  C   UNL     1      -4.607  12.747  23.996  0.00  0.00    +0.000 C 
ATOM     17  O   UNL     1      -3.730  15.036  24.194  0.00  0.00    +0.000 OA
ENDROOT
BRANCH   8  18
ATOM     18  C   UNL     1      -0.205  11.205  18.756  0.00  0.00    +0.000 C 
ATOM     19  O   UNL     1       0.391  10.148  18.561  0.00  0.00    +0.000 OA
ATOM     20  N   UNL     1       0.421  12.354  19.192  0.00  0.00    +0.000 N 
ATOM     21  H   UNL     1      -0.107  13.225  19.166  0.00  0.00    +0.000 HD
BRANCH  20  22
ATOM     22  C   UNL     1       1.867  12.445  19.421  0.00  0.00    +0.000 C 
ATOM     23  C   UNL     1       2.618  12.939  18.175  0.00  0.00    +0.000 C 
ATOM     24  C   UNL     1       2.567  14.475  17.991  0.00  0.00    +0.000 C 
ATOM     25  C   UNL     1       3.989  15.074  18.030  0.00  0.00    +0.000 C 
ATOM     26  C   UNL     1       4.620  14.972  19.417  0.00  0.00    +0.000 C 
ATOM     27  C   UNL     1       3.652  15.444  20.500  0.00  0.00    +0.000 C 
ATOM     28  C   UNL     1       2.234  14.846  20.345  0.00  0.00    +0.000 C 
ATOM     29  C   UNL     1       2.195  13.325  20.648  0.00  0.00    +0.000 C 
ATOM     30  N   UNL     1       1.683  15.072  19.006  0.00  0.00    +0.000 NA
ATOM     31  C   UNL     1       1.312  16.452  18.729  0.00  0.00    +0.000 C 
ENDBRANCH  20  22
ENDBRANCH   8  18
TORSDOF 2
ENDMDL
MODEL 8
REMARK VINA RESULT:      -7.5      4.977      9.601
REMARK  Name = 
REMARK  5 active torsions:
REMARK  status: ('A' for Active; 'I' for Inactive)
REMARK    1  A    between atoms: C_1  and  C_2
REMARK    2  A    between atoms: C_8  and  C_9
REMARK    3  A    between atoms: N_11  and  C_12
REMARK    4  A    between atoms: N_20  and  C_21
REMARK    5  A    between atoms: C_28  and  C_29
REMARK                            x       y       z     vdW  Elec       q    Type
REMARK                         _______ _______ _______ _____ _____    ______ ____
ROOT
ATOM      1  C   UNL     1      -6.169  12.473  21.530  0.00  0.00    +0.000 C 
ATOM      2  C   UNL     1      -6.759  12.990  20.224  0.00  0.00    +0.000 C 
ATOM      3  C   UNL     1      -5.692  13.444  19.216  0.00  0.00    +0.000 C 
ATOM      4  N   UNL     1      -5.161  12.316  18.462  0.00  0.00    +0.000 N 
ATOM      5  C   UNL     1      -3.927  11.842  18.710  0.00  0.00    +0.000 A 
ATOM      6  N   UNL     1      -3.087  12.184  19.668  0.00  0.00    +0.000 NA
ATOM      7  C   UNL     1      -1.934  11.493  19.358  0.00  0.00    +0.000 A 
ATOM      8  C   UNL     1      -0.674  11.418  19.972  0.00  0.00    +0.000 A 
ATOM      9  C   UNL     1       0.332  10.677  19.312  0.00  0.00    +0.000 A 
ATOM     10  C   UNL     1       0.076   9.982  18.121  0.00  0.00    +0.000 A 
ATOM     11  C   UNL     1      -1.195   9.985  17.547  0.00  0.00    +0.000 A 
ATOM     12  C   UNL     1      -2.145  10.762  18.199  0.00  0.00    +0.000 A 
ATOM     13  O   UNL     1      -3.429  10.952  17.810  0.00  0.00    +0.000 OA
ATOM     14  C   UNL     1      -6.171  11.489  17.814  0.00  0.00    +0.000 C 
ATOM     15  C   UNL     1      -7.242  11.032  18.827  0.00  0.00    +0.000 C 
ATOM     16  C   UNL     1      -6.826   9.807  19.635  0.00  0.00    +0.000 C 
ATOM     17  O   UNL     1      -7.736  12.091  19.666  0.00  0.00    +0.000 OA
ENDROOT
BRANCH   8  18
ATOM     18  C   UNL     1      -0.385  12.043  21.287  0.00  0.00    +0.000 C 
ATOM     19  O   UNL     1       0.309  11.436  22.100  0.00  0.00    +0.000 OA
ATOM     20  N   UNL     1      -0.937  13.281  21.542  0.00  0.00    +0.000 N 
ATOM     21  H   UNL     1      -1.353  13.788  20.763  0.00  0.00    +0.000 HD
BRANCH  20  22
ATOM     22  C   UNL     1      -0.716  14.019  22.790  0.00  0.00    +0.000 C 
ATOM     23  C   UNL     1      -0.618  15.534  22.553  0.00  0.00    +0.000 C 
ATOM     24  C   UNL     1      -1.994  16.226  22.407  0.00  0.00    +0.000 C 
ATOM     25  C   UNL     1      -2.192  17.280  23.516  0.00  0.00    +0.000 C 
ATOM     26  C   UNL     1      -2.337  16.644  24.898  0.00  0.00    +0.000 C 
ATOM     27  C   UNL     1      -3.334  15.487  24.871  0.00  0.00    +0.000 C 
ATOM     28  C   UNL     1      -3.102  14.517  23.689  0.00  0.00    +0.000 C 
ATOM     29  C   UNL     1      -1.797  13.693  23.844  0.00  0.00    +0.000 C 
ATOM     30  N   UNL     1      -3.065  15.216  22.401  0.00  0.00    +0.000 NA
ATOM     31  C   UNL     1      -4.353  15.722  21.950  0.00  0.00    +0.000 C 
ENDBRANCH  20  22
ENDBRANCH   8  18
TORSDOF 2
ENDMDL
MODEL 9
REMARK VINA RESULT:      -7.5      5.065      8.551
REMARK  Name = 
REMARK  5 active torsions:
REMARK  status: ('A' for Active; 'I' for Inactive)
REMARK    1  A    between atoms: C_1  and  C_2
REMARK    2  A    between atoms: C_8  and  C_9
REMARK    3  A    between atoms: N_11  and  C_12
REMARK    4  A    between atoms: N_20  and  C_21
REMARK    5  A    between atoms: C_28  and  C_29
REMARK                            x       y       z     vdW  Elec       q    Type
REMARK                         _______ _______ _______ _____ _____    ______ ____
ROOT
ATOM      1  C   UNL     1      -5.032  12.833  22.673  0.00  0.00    +0.000 C 
ATOM      2  C   UNL     1      -5.903  13.870  21.975  0.00  0.00    +0.000 C 
ATOM      3  C   UNL     1      -5.357  14.294  20.602  0.00  0.00    +0.000 C 
ATOM      4  N   UNL     1      -5.749  13.351  19.562  0.00  0.00    +0.000 N 
ATOM      5  C   UNL     1      -4.853  12.497  19.036  0.00  0.00    +0.000 A 
ATOM      6  N   UNL     1      -3.605  12.278  19.401  0.00  0.00    +0.000 NA
ATOM      7  C   UNL     1      -3.123  11.421  18.433  0.00  0.00    +0.000 A 
ATOM      8  C   UNL     1      -1.875  10.810  18.237  0.00  0.00    +0.000 A 
ATOM      9  C   UNL     1      -1.693  10.057  17.055  0.00  0.00    +0.000 A 
ATOM     10  C   UNL     1      -2.734   9.863  16.136  0.00  0.00    +0.000 A 
ATOM     11  C   UNL     1      -4.002  10.400  16.363  0.00  0.00    +0.000 A 
ATOM     12  C   UNL     1      -4.128  11.172  17.511  0.00  0.00    +0.000 A 
ATOM     13  O   UNL     1      -5.244  11.826  17.918  0.00  0.00    +0.000 OA
ATOM     14  C   UNL     1      -7.179  13.083  19.493  0.00  0.00    +0.000 C 
ATOM     15  C   UNL     1      -7.727  12.656  20.872  0.00  0.00    +0.000 C 
ATOM     16  C   UNL     1      -7.513  11.177  21.175  0.00  0.00    +0.000 C 
ATOM     17  O   UNL     1      -7.295  13.499  21.954  0.00  0.00    +0.000 OA
ENDROOT
BRANCH   8  18
ATOM     18  C   UNL     1      -0.777  10.892  19.233  0.00  0.00    +0.000 C 
ATOM     19  O   UNL     1      -0.139   9.878  19.507  0.00  0.00    +0.000 OA
ATOM     20  N   UNL     1      -0.542  12.115  19.826  0.00  0.00    +0.000 N 
ATOM     21  H   UNL     1      -0.994  12.935  19.426  0.00  0.00    +0.000 HD
BRANCH  20  22
ATOM     22  C   UNL     1       0.522  12.341  20.810  0.00  0.00    +0.000 C 
ATOM     23  C   UNL     1       1.874  12.628  20.139  0.00  0.00    +0.000 C 
ATOM     24  C   UNL     1       2.028  14.092  19.662  0.00  0.00    +0.000 C 
ATOM     25  C   UNL     1       3.211  14.776  20.379  0.00  0.00    +0.000 C 
ATOM     26  C   UNL     1       2.938  14.987  21.868  0.00  0.00    +0.000 C 
ATOM     27  C   UNL     1       1.558  15.599  22.095  0.00  0.00    +0.000 C 
ATOM     28  C   UNL     1       0.443  14.893  21.287  0.00  0.00    +0.000 C 
ATOM     29  C   UNL     1       0.150  13.461  21.806  0.00  0.00    +0.000 C 
ATOM     30  N   UNL     1       0.762  14.819  19.858  0.00  0.00    +0.000 NA
ATOM     31  C   UNL     1       0.696  16.091  19.156  0.00  0.00    +0.000 C 
ENDBRANCH  20  22
ENDBRANCH   8  18
TORSDOF 2
ENDMDL
