MODEL 1
REMARK VINA RESULT:      -9.1      0.000      0.000
REMARK  Name = 
REMARK  7 active torsions:
REMARK  status: ('A' for Active; 'I' for Inactive)
REMARK    1  A    between atoms: C_1  and  C_2
REMARK    2  A    between atoms: C_6  and  C_7
REMARK    3  A    between atoms: N_9  and  C_10
REMARK    4  A    between atoms: C_12  and  C_13
REMARK    5  A    between atoms: C_13  and  O_15
REMARK    6  A    between atoms: C_18  and  N_19
REMARK    7  A    between atoms: N_19  and  C_20
REMARK                            x       y       z     vdW  Elec       q    Type
REMARK                         _______ _______ _______ _____ _____    ______ ____
ROOT
ATOM      1  C   UNL     1       3.411   6.546  18.165  0.00  0.00    +0.000 A 
ATOM      2  C   UNL     1       4.688   6.985  17.771  0.00  0.00    +0.000 A 
ATOM      3  C   UNL     1       5.537   6.157  17.026  0.00  0.00    +0.000 A 
ATOM      4  C   UNL     1       5.094   4.902  16.620  0.00  0.00    +0.000 A 
ATOM      5  C   UNL     1       3.819   4.475  16.981  0.00  0.00    +0.000 A 
ATOM      6  C   UNL     1       2.946   5.270  17.747  0.00  0.00    +0.000 A 
ENDROOT
BRANCH   1   9
ATOM      7  C   UNL     1       2.002   8.599  18.382  0.00  0.00    +0.000 C 
ATOM      8  O   UNL     1       2.065   8.922  17.197  0.00  0.00    +0.000 OA
ATOM      9  N   UNL     1       2.657   7.498  18.911  0.00  0.00    +0.000 N 
ATOM     10  H   UNL     1       2.305   7.175  19.802  0.00  0.00    +0.000 HD
BRANCH   7  16
ATOM     11  C   UNL     1      -1.331  10.737  23.160  0.00  0.00    +0.000 C 
ATOM     12  C   UNL     1      -0.043  10.167  22.659  0.00  0.00    +0.000 C 
ATOM     13  O   UNL     1       0.822   9.715  23.405  0.00  0.00    +0.000 OA
ATOM     14  N   UNL     1       0.160  10.093  21.259  0.00  0.00    +0.000 N 
ATOM     15  C   UNL     1       1.248   9.418  20.705  0.00  0.00    +0.000 A 
ATOM     16  C   UNL     1       1.111   9.320  19.332  0.00  0.00    +0.000 A 
ATOM     17  C   UNL     1      -0.058  10.086  19.010  0.00  0.00    +0.000 A 
ATOM     18  C   UNL     1      -0.696  10.390  17.785  0.00  0.00    +0.000 A 
ATOM     19  C   UNL     1      -1.787  11.255  17.750  0.00  0.00    +0.000 A 
ATOM     20  C   UNL     1      -2.274  11.809  18.921  0.00  0.00    +0.000 A 
ATOM     21  C   UNL     1      -1.703  11.487  20.155  0.00  0.00    +0.000 A 
ATOM     22  C   UNL     1      -0.599  10.609  20.201  0.00  0.00    +0.000 A 
ENDBRANCH   7  16
ENDBRANCH   1   9
BRANCH   3  23
ATOM     23  C   UNL     1       6.879   6.667  16.662  0.00  0.00    +0.000 C 
ATOM     24  O   UNL     1       7.627   6.064  15.912  0.00  0.00    +0.000 OA
BRANCH  23  25
ATOM     25  O   UNL     1       7.187   7.865  17.202  0.00  0.00    +0.000 OA
ATOM     26  H   UNL     1       7.961   7.873  17.791  0.00  0.00    +0.000 HD
ENDBRANCH  23  25
ENDBRANCH   3  23
BRANCH   6  27
ATOM     27  N   UNL     1       1.625   4.878  17.939  0.00  0.00    +0.000 N 
ATOM     28  H   UNL     1       0.958   5.622  17.705  0.00  0.00    +0.000 HD
BRANCH  27  29
ATOM     29  C   UNL     1       1.186   3.873  18.917  0.00  0.00    +0.000 C 
ATOM     30  C   UNL     1       1.478   4.416  20.319  0.00  0.00    +0.000 C 
ATOM     31  C   UNL     1       1.393   3.335  21.381  0.00  0.00    +0.000 C 
ATOM     32  O   UNL     1       2.202   2.218  21.030  0.00  0.00    +0.000 OA
ATOM     33  C   UNL     1       1.731   1.581  19.847  0.00  0.00    +0.000 C 
ATOM     34  C   UNL     1       1.840   2.515  18.647  0.00  0.00    +0.000 C 
ENDBRANCH  27  29
ENDBRANCH   6  27
TORSDOF 6
ENDMDL
MODEL 2
REMARK VINA RESULT:      -9.0      2.020      4.910
REMARK  Name = 
REMARK  7 active torsions:
REMARK  status: ('A' for Active; 'I' for Inactive)
REMARK    1  A    between atoms: C_1  and  C_2
REMARK    2  A    between atoms: C_6  and  C_7
REMARK    3  A    between atoms: N_9  and  C_10
REMARK    4  A    between atoms: C_12  and  C_13
REMARK    5  A    between atoms: C_13  and  O_15
REMARK    6  A    between atoms: C_18  and  N_19
REMARK    7  A    between atoms: N_19  and  C_20
REMARK                            x       y       z     vdW  Elec       q    Type
REMARK                         _______ _______ _______ _____ _____    ______ ____
ROOT
ATOM      1  C   UNL     1       2.552   6.342  19.408  0.00  0.00    +0.000 A 
ATOM      2  C   UNL     1       2.089   5.421  20.364  0.00  0.00    +0.000 A 
ATOM      3  C   UNL     1       2.338   4.050  20.224  0.00  0.00    +0.000 A 
ATOM      4  C   UNL     1       3.102   3.594  19.154  0.00  0.00    +0.000 A 
ATOM      5  C   UNL     1       3.589   4.505  18.221  0.00  0.00    +0.000 A 
ATOM      6  C   UNL     1       3.341   5.888  18.317  0.00  0.00    +0.000 A 
ENDROOT
BRANCH   1   9
ATOM      7  C   UNL     1       1.642   8.589  18.797  0.00  0.00    +0.000 C 
ATOM      8  O   UNL     1       1.397   8.312  17.625  0.00  0.00    +0.000 OA
ATOM      9  N   UNL     1       2.230   7.703  19.686  0.00  0.00    +0.000 N 
ATOM     10  H   UNL     1       2.116   7.934  20.664  0.00  0.00    +0.000 HD
BRANCH   7  16
ATOM     11  C   UNL     1       0.805  14.471  20.587  0.00  0.00    +0.000 C 
ATOM     12  C   UNL     1       1.110  13.505  19.488  0.00  0.00    +0.000 C 
ATOM     13  O   UNL     1       1.569  13.852  18.402  0.00  0.00    +0.000 OA
ATOM     14  N   UNL     1       0.916  12.124  19.733  0.00  0.00    +0.000 N 
ATOM     15  C   UNL     1       1.339  11.147  18.832  0.00  0.00    +0.000 A 
ATOM     16  C   UNL     1       1.216   9.887  19.389  0.00  0.00    +0.000 A 
ATOM     17  C   UNL     1       0.563  10.089  20.650  0.00  0.00    +0.000 A 
ATOM     18  C   UNL     1       0.137   9.197  21.661  0.00  0.00    +0.000 A 
ATOM     19  C   UNL     1      -0.574   9.665  22.764  0.00  0.00    +0.000 A 
ATOM     20  C   UNL     1      -0.851  11.015  22.893  0.00  0.00    +0.000 A 
ATOM     21  C   UNL     1      -0.398  11.931  21.940  0.00  0.00    +0.000 A 
ATOM     22  C   UNL     1       0.327  11.468  20.821  0.00  0.00    +0.000 A 
ENDBRANCH   7  16
ENDBRANCH   1   9
BRANCH   3  23
ATOM     23  C   UNL     1       1.804   3.127  21.252  0.00  0.00    +0.000 C 
ATOM     24  O   UNL     1       2.455   2.781  22.224  0.00  0.00    +0.000 OA
BRANCH  23  25
ATOM     25  O   UNL     1       0.532   2.731  21.039  0.00  0.00    +0.000 OA
ATOM     26  H   UNL     1       0.122   3.058  20.219  0.00  0.00    +0.000 HD
ENDBRANCH  23  25
ENDBRANCH   3  23
BRANCH   6  27
ATOM     27  N   UNL     1       3.986   6.778  17.464  0.00  0.00    +0.000 N 
ATOM     28  H   UNL     1       3.337   7.242  16.819  0.00  0.00    +0.000 HD
BRANCH  27  29
ATOM     29  C   UNL     1       5.383   6.654  17.029  0.00  0.00    +0.000 C 
ATOM     30  C   UNL     1       5.414   5.767  15.780  0.00  0.00    +0.000 C 
ATOM     31  C   UNL     1       6.816   5.286  15.452  0.00  0.00    +0.000 C 
ATOM     32  O   UNL     1       7.420   4.680  16.589  0.00  0.00    +0.000 OA
ATOM     33  C   UNL     1       7.610   5.617  17.644  0.00  0.00    +0.000 C 
ATOM     34  C   UNL     1       6.273   6.133  18.161  0.00  0.00    +0.000 C 
ENDBRANCH  27  29
ENDBRANCH   6  27
TORSDOF 6
ENDMDL
MODEL 3
REMARK VINA RESULT:      -8.8      2.081      4.825
REMARK  Name = 
REMARK  7 active torsions:
REMARK  status: ('A' for Active; 'I' for Inactive)
REMARK    1  A    between atoms: C_1  and  C_2
REMARK    2  A    between atoms: C_6  and  C_7
REMARK    3  A    between atoms: N_9  and  C_10
REMARK    4  A    between atoms: C_12  and  C_13
REMARK    5  A    between atoms: C_13  and  O_15
REMARK    6  A    between atoms: C_18  and  N_19
REMARK    7  A    between atoms: N_19  and  C_20
REMARK                            x       y       z     vdW  Elec       q    Type
REMARK                         _______ _______ _______ _____ _____    ______ ____
ROOT
ATOM      1  C   UNL     1       2.399   6.249  18.701  0.00  0.00    +0.000 A 
ATOM      2  C   UNL     1       1.569   5.225  19.190  0.00  0.00    +0.000 A 
ATOM      3  C   UNL     1       1.721   3.903  18.753  0.00  0.00    +0.000 A 
ATOM      4  C   UNL     1       2.741   3.584  17.863  0.00  0.00    +0.000 A 
ATOM      5  C   UNL     1       3.586   4.589  17.399  0.00  0.00    +0.000 A 
ATOM      6  C   UNL     1       3.451   5.932  17.799  0.00  0.00    +0.000 A 
ENDROOT
BRANCH   1   9
ATOM      7  C   UNL     1       1.795   8.666  18.507  0.00  0.00    +0.000 C 
ATOM      8  O   UNL     1       1.757   8.689  17.278  0.00  0.00    +0.000 OA
ATOM      9  N   UNL     1       2.134   7.541  19.241  0.00  0.00    +0.000 N 
ATOM     10  H   UNL     1       1.853   7.559  20.212  0.00  0.00    +0.000 HD
BRANCH   7  16
ATOM     11  C   UNL     1       0.944  14.140  21.304  0.00  0.00    +0.000 C 
ATOM     12  C   UNL     1       1.264  13.384  20.055  0.00  0.00    +0.000 C 
ATOM     13  O   UNL     1       1.740  13.916  19.055  0.00  0.00    +0.000 OA
ATOM     14  N   UNL     1       1.062  11.982  20.047  0.00  0.00    +0.000 N 
ATOM     15  C   UNL     1       1.497  11.178  18.993  0.00  0.00    +0.000 A 
ATOM     16  C   UNL     1       1.363   9.840  19.314  0.00  0.00    +0.000 A 
ATOM     17  C   UNL     1       0.691   9.818  20.581  0.00  0.00    +0.000 A 
ATOM     18  C   UNL     1       0.248   8.762  21.411  0.00  0.00    +0.000 A 
ATOM     19  C   UNL     1      -0.479   9.029  22.569  0.00  0.00    +0.000 A 
ATOM     20  C   UNL     1      -0.754  10.336  22.933  0.00  0.00    +0.000 A 
ATOM     21  C   UNL     1      -0.284  11.405  22.165  0.00  0.00    +0.000 A 
ATOM     22  C   UNL     1       0.455  11.145  20.992  0.00  0.00    +0.000 A 
ENDBRANCH   7  16
ENDBRANCH   1   9
BRANCH   3  23
ATOM     23  C   UNL     1       0.800   2.873  19.287  0.00  0.00    +0.000 C 
ATOM     24  O   UNL     1       0.244   2.057  18.571  0.00  0.00    +0.000 OA
BRANCH  23  25
ATOM     25  O   UNL     1       0.657   2.893  20.628  0.00  0.00    +0.000 OA
ATOM     26  H   UNL     1       0.938   3.715  21.068  0.00  0.00    +0.000 HD
ENDBRANCH  23  25
ENDBRANCH   3  23
BRANCH   6  27
ATOM     27  N   UNL     1       4.416   6.870  17.448  0.00  0.00    +0.000 N 
ATOM     28  H   UNL     1       4.023   7.657  16.919  0.00  0.00    +0.000 HD
BRANCH  27  29
ATOM     29  C   UNL     1       5.837   6.566  17.232  0.00  0.00    +0.000 C 
ATOM     30  C   UNL     1       5.966   5.820  15.901  0.00  0.00    +0.000 C 
ATOM     31  C   UNL     1       7.321   5.155  15.744  0.00  0.00    +0.000 C 
ATOM     32  O   UNL     1       7.618   4.343  16.875  0.00  0.00    +0.000 OA
ATOM     33  C   UNL     1       7.746   5.122  18.060  0.00  0.00    +0.000 C 
ATOM     34  C   UNL     1       6.425   5.792  18.416  0.00  0.00    +0.000 C 
ENDBRANCH  27  29
ENDBRANCH   6  27
TORSDOF 6
ENDMDL
MODEL 4
REMARK VINA RESULT:      -8.8      1.360      2.473
REMARK  Name = 
REMARK  7 active torsions:
REMARK  status: ('A' for Active; 'I' for Inactive)
REMARK    1  A    between atoms: C_1  and  C_2
REMARK    2  A    between atoms: C_6  and  C_7
REMARK    3  A    between atoms: N_9  and  C_10
REMARK    4  A    between atoms: C_12  and  C_13
REMARK    5  A    between atoms: C_13  and  O_15
REMARK    6  A    between atoms: C_18  and  N_19
REMARK    7  A    between atoms: N_19  and  C_20
REMARK                            x       y       z     vdW  Elec       q    Type
REMARK                         _______ _______ _______ _____ _____    ______ ____
ROOT
ATOM      1  C   UNL     1       3.310   6.550  18.045  0.00  0.00    +0.000 A 
ATOM      2  C   UNL     1       4.580   7.050  17.708  0.00  0.00    +0.000 A 
ATOM      3  C   UNL     1       5.537   6.233  17.095  0.00  0.00    +0.000 A 
ATOM      4  C   UNL     1       5.213   4.922  16.762  0.00  0.00    +0.000 A 
ATOM      5  C   UNL     1       3.946   4.430  17.065  0.00  0.00    +0.000 A 
ATOM      6  C   UNL     1       2.965   5.214  17.701  0.00  0.00    +0.000 A 
ENDROOT
BRANCH   1   9
ATOM      7  C   UNL     1       2.060   8.713  18.110  0.00  0.00    +0.000 C 
ATOM      8  O   UNL     1       2.504   9.148  17.049  0.00  0.00    +0.000 OA
ATOM      9  N   UNL     1       2.438   7.497  18.657  0.00  0.00    +0.000 N 
ATOM     10  H   UNL     1       1.808   7.124  19.355  0.00  0.00    +0.000 HD
BRANCH   7  16
ATOM     11  C   UNL     1      -2.457  12.436  20.172  0.00  0.00    +0.000 C 
ATOM     12  C   UNL     1      -1.841  11.691  19.031  0.00  0.00    +0.000 C 
ATOM     13  O   UNL     1      -2.144  11.896  17.858  0.00  0.00    +0.000 OA
ATOM     14  N   UNL     1      -0.821  10.750  19.315  0.00  0.00    +0.000 N 
ATOM     15  C   UNL     1      -0.074  10.143  18.306  0.00  0.00    +0.000 A 
ATOM     16  C   UNL     1       0.979   9.426  18.844  0.00  0.00    +0.000 A 
ATOM     17  C   UNL     1       0.795   9.490  20.266  0.00  0.00    +0.000 A 
ATOM     18  C   UNL     1       1.517   8.938  21.349  0.00  0.00    +0.000 A 
ATOM     19  C   UNL     1       1.052   9.080  22.655  0.00  0.00    +0.000 A 
ATOM     20  C   UNL     1      -0.110   9.787  22.907  0.00  0.00    +0.000 A 
ATOM     21  C   UNL     1      -0.818  10.392  21.866  0.00  0.00    +0.000 A 
ATOM     22  C   UNL     1      -0.355  10.257  20.540  0.00  0.00    +0.000 A 
ENDBRANCH   7  16
ENDBRANCH   1   9
BRANCH   3  23
ATOM     23  C   UNL     1       6.865   6.812  16.786  0.00  0.00    +0.000 C 
ATOM     24  O   UNL     1       7.285   7.818  17.332  0.00  0.00    +0.000 OA
BRANCH  23  25
ATOM     25  O   UNL     1       7.580   6.115  15.878  0.00  0.00    +0.000 OA
ATOM     26  H   UNL     1       7.068   5.734  15.143  0.00  0.00    +0.000 HD
ENDBRANCH  23  25
ENDBRANCH   3  23
BRANCH   6  27
ATOM     27  N   UNL     1       1.664   4.742  17.831  0.00  0.00    +0.000 N 
ATOM     28  H   UNL     1       0.966   5.424  17.515  0.00  0.00    +0.000 HD
BRANCH  27  29
ATOM     29  C   UNL     1       1.228   3.759  18.833  0.00  0.00    +0.000 C 
ATOM     30  C   UNL     1       1.422   4.379  20.220  0.00  0.00    +0.000 C 
ATOM     31  C   UNL     1       1.339   3.344  21.327  0.00  0.00    +0.000 C 
ATOM     32  O   UNL     1       2.220   2.257  21.068  0.00  0.00    +0.000 OA
ATOM     33  C   UNL     1       1.842   1.544  19.895  0.00  0.00    +0.000 C 
ATOM     34  C   UNL     1       1.963   2.427  18.659  0.00  0.00    +0.000 C 
ENDBRANCH  27  29
ENDBRANCH   6  27
TORSDOF 6
ENDMDL
MODEL 5
REMARK VINA RESULT:      -8.7      2.237      5.025
REMARK  Name = 
REMARK  7 active torsions:
REMARK  status: ('A' for Active; 'I' for Inactive)
REMARK    1  A    between atoms: C_1  and  C_2
REMARK    2  A    between atoms: C_6  and  C_7
REMARK    3  A    between atoms: N_9  and  C_10
REMARK    4  A    between atoms: C_12  and  C_13
REMARK    5  A    between atoms: C_13  and  O_15
REMARK    6  A    between atoms: C_18  and  N_19
REMARK    7  A    between atoms: N_19  and  C_20
REMARK                            x       y       z     vdW  Elec       q    Type
REMARK                         _______ _______ _______ _____ _____    ______ ____
ROOT
ATOM      1  C   UNL     1       3.064   5.841  19.819  0.00  0.00    +0.000 A 
ATOM      2  C   UNL     1       2.134   4.973  20.417  0.00  0.00    +0.000 A 
ATOM      3  C   UNL     1       2.353   3.590  20.445  0.00  0.00    +0.000 A 
ATOM      4  C   UNL     1       3.532   3.068  19.923  0.00  0.00    +0.000 A 
ATOM      5  C   UNL     1       4.471   3.926  19.356  0.00  0.00    +0.000 A 
ATOM      6  C   UNL     1       4.277   5.319  19.291  0.00  0.00    +0.000 A 
ENDROOT
BRANCH   1   9
ATOM      7  C   UNL     1       2.065   7.927  18.870  0.00  0.00    +0.000 C 
ATOM      8  O   UNL     1       1.784   7.446  17.774  0.00  0.00    +0.000 OA
ATOM      9  N   UNL     1       2.712   7.221  19.872  0.00  0.00    +0.000 N 
ATOM     10  H   UNL     1       2.627   7.615  20.800  0.00  0.00    +0.000 HD
BRANCH   7  16
ATOM     11  C   UNL     1       1.215  14.006  19.782  0.00  0.00    +0.000 C 
ATOM     12  C   UNL     1       1.580  12.896  18.849  0.00  0.00    +0.000 C 
ATOM     13  O   UNL     1       2.122  13.087  17.763  0.00  0.00    +0.000 OA
ATOM     14  N   UNL     1       1.341  11.563  19.264  0.00  0.00    +0.000 N 
ATOM     15  C   UNL     1       1.810  10.468  18.537  0.00  0.00    +0.000 A 
ATOM     16  C   UNL     1       1.623   9.297  19.248  0.00  0.00    +0.000 A 
ATOM     17  C   UNL     1       0.884   9.675  20.419  0.00  0.00    +0.000 A 
ATOM     18  C   UNL     1       0.370   8.934  21.507  0.00  0.00    +0.000 A 
ATOM     19  C   UNL     1      -0.409   9.553  22.481  0.00  0.00    +0.000 A 
ATOM     20  C   UNL     1      -0.669  10.911  22.406  0.00  0.00    +0.000 A 
ATOM     21  C   UNL     1      -0.130  11.684  21.374  0.00  0.00    +0.000 A 
ATOM     22  C   UNL     1       0.663  11.066  20.383  0.00  0.00    +0.000 A 
ENDBRANCH   7  16
ENDBRANCH   1   9
BRANCH   3  23
ATOM     23  C   UNL     1       1.325   2.725  21.069  0.00  0.00    +0.000 C 
ATOM     24  O   UNL     1       1.451   2.262  22.190  0.00  0.00    +0.000 OA
BRANCH  23  25
ATOM     25  O   UNL     1       0.229   2.523  20.309  0.00  0.00    +0.000 OA
ATOM     26  H   UNL     1      -0.624   2.668  20.755  0.00  0.00    +0.000 HD
ENDBRANCH  23  25
ENDBRANCH   3  23
BRANCH   6  27
ATOM     27  N   UNL     1       5.308   6.153  18.874  0.00  0.00    +0.000 N 
ATOM     28  H   UNL     1       5.284   7.068  19.339  0.00  0.00    +0.000 HD
BRANCH  27  29
ATOM     29  C   UNL     1       5.949   6.095  17.553  0.00  0.00    +0.000 C 
ATOM     30  C   UNL     1       4.847   5.949  16.499  0.00  0.00    +0.000 C 
ATOM     31  C   UNL     1       5.398   5.530  15.148  0.00  0.00    +0.000 C 
ATOM     32  O   UNL     1       6.215   4.371  15.274  0.00  0.00    +0.000 OA
ATOM     33  C   UNL     1       7.374   4.629  16.059  0.00  0.00    +0.000 C 
ATOM     34  C   UNL     1       6.993   4.977  17.493  0.00  0.00    +0.000 C 
ENDBRANCH  27  29
ENDBRANCH   6  27
TORSDOF 6
ENDMDL
MODEL 6
REMARK VINA RESULT:      -8.7      3.145      8.792
REMARK  Name = 
REMARK  7 active torsions:
REMARK  status: ('A' for Active; 'I' for Inactive)
REMARK    1  A    between atoms: C_1  and  C_2
REMARK    2  A    between atoms: C_6  and  C_7
REMARK    3  A    between atoms: N_9  and  C_10
REMARK    4  A    between atoms: C_12  and  C_13
REMARK    5  A    between atoms: C_13  and  O_15
REMARK    6  A    between atoms: C_18  and  N_19
REMARK    7  A    between atoms: N_19  and  C_20
REMARK                            x       y       z     vdW  Elec       q    Type
REMARK                         _______ _______ _______ _____ _____    ______ ____
ROOT
ATOM      1  C   UNL     1       0.044  10.217  18.241  0.00  0.00    +0.000 A 
ATOM      2  C   UNL     1      -1.139   9.942  17.535  0.00  0.00    +0.000 A 
ATOM      3  C   UNL     1      -2.229  10.820  17.583  0.00  0.00    +0.000 A 
ATOM      4  C   UNL     1      -2.124  12.011  18.296  0.00  0.00    +0.000 A 
ATOM      5  C   UNL     1      -0.942  12.303  18.972  0.00  0.00    +0.000 A 
ATOM      6  C   UNL     1       0.166  11.435  18.964  0.00  0.00    +0.000 A 
ENDROOT
BRANCH   1   9
ATOM      7  C   UNL     1       1.649   8.515  19.122  0.00  0.00    +0.000 C 
ATOM      8  O   UNL     1       1.387   8.696  20.310  0.00  0.00    +0.000 OA
ATOM      9  N   UNL     1       1.070   9.238  18.092  0.00  0.00    +0.000 N 
ATOM     10  H   UNL     1       1.140   8.815  17.175  0.00  0.00    +0.000 HD
BRANCH   7  16
ATOM     11  C   UNL     1       5.332   4.461  16.205  0.00  0.00    +0.000 C 
ATOM     12  C   UNL     1       4.926   5.883  16.427  0.00  0.00    +0.000 C 
ATOM     13  O   UNL     1       5.266   6.799  15.681  0.00  0.00    +0.000 OA
ATOM     14  N   UNL     1       4.063   6.174  17.512  0.00  0.00    +0.000 N 
ATOM     15  C   UNL     1       3.495   7.436  17.686  0.00  0.00    +0.000 A 
ATOM     16  C   UNL     1       2.545   7.407  18.690  0.00  0.00    +0.000 A 
ATOM     17  C   UNL     1       2.622   6.089  19.250  0.00  0.00    +0.000 A 
ATOM     18  C   UNL     1       1.935   5.459  20.314  0.00  0.00    +0.000 A 
ATOM     19  C   UNL     1       2.283   4.173  20.718  0.00  0.00    +0.000 A 
ATOM     20  C   UNL     1       3.292   3.486  20.065  0.00  0.00    +0.000 A 
ATOM     21  C   UNL     1       3.954   4.057  18.975  0.00  0.00    +0.000 A 
ATOM     22  C   UNL     1       3.607   5.359  18.555  0.00  0.00    +0.000 A 
ENDBRANCH   7  16
ENDBRANCH   1   9
BRANCH   3  23
ATOM     23  C   UNL     1      -3.458  10.463  16.837  0.00  0.00    +0.000 C 
ATOM     24  O   UNL     1      -4.562  10.862  17.166  0.00  0.00    +0.000 OA
BRANCH  23  25
ATOM     25  O   UNL     1      -3.246   9.693  15.750  0.00  0.00    +0.000 OA
ATOM     26  H   UNL     1      -2.527   9.043  15.830  0.00  0.00    +0.000 HD
ENDBRANCH  23  25
ENDBRANCH   3  23
BRANCH   6  27
ATOM     27  N   UNL     1       1.381  11.841  19.507  0.00  0.00    +0.000 N 
ATOM     28  H   UNL     1       1.662  11.267  20.309  0.00  0.00    +0.000 HD
BRANCH  27  29
ATOM     29  C   UNL     1       1.902  13.214  19.455  0.00  0.00    +0.000 C 
ATOM     30  C   UNL     1       2.739  13.354  18.180  0.00  0.00    +0.000 C 
ATOM     31  C   UNL     1       3.604  14.602  18.196  0.00  0.00    +0.000 C 
ATOM     32  O   UNL     1       4.380  14.662  19.388  0.00  0.00    +0.000 OA
ATOM     33  C   UNL     1       3.557  14.792  20.543  0.00  0.00    +0.000 C 
ATOM     34  C   UNL     1       2.679  13.560  20.728  0.00  0.00    +0.000 C 
ENDBRANCH  27  29
ENDBRANCH   6  27
TORSDOF 6
ENDMDL
MODEL 7
REMARK VINA RESULT:      -8.6      3.149      8.812
REMARK  Name = 
REMARK  7 active torsions:
REMARK  status: ('A' for Active; 'I' for Inactive)
REMARK    1  A    between atoms: C_1  and  C_2
REMARK    2  A    between atoms: C_6  and  C_7
REMARK    3  A    between atoms: N_9  and  C_10
REMARK    4  A    between atoms: C_12  and  C_13
REMARK    5  A    between atoms: C_13  and  O_15
REMARK    6  A    between atoms: C_18  and  N_19
REMARK    7  A    between atoms: N_19  and  C_20
REMARK                            x       y       z     vdW  Elec       q    Type
REMARK                         _______ _______ _______ _____ _____    ______ ____
ROOT
ATOM      1  C   UNL     1       0.454  10.038  18.126  0.00  0.00    +0.000 A 
ATOM      2  C   UNL     1      -0.807   9.677  17.621  0.00  0.00    +0.000 A 
ATOM      3  C   UNL     1      -1.922  10.505  17.804  0.00  0.00    +0.000 A 
ATOM      4  C   UNL     1      -1.772  11.730  18.447  0.00  0.00    +0.000 A 
ATOM      5  C   UNL     1      -0.519  12.107  18.923  0.00  0.00    +0.000 A 
ATOM      6  C   UNL     1       0.620  11.292  18.776  0.00  0.00    +0.000 A 
ENDROOT
BRANCH   1   9
ATOM      7  C   UNL     1       2.007   8.186  18.761  0.00  0.00    +0.000 C 
ATOM      8  O   UNL     1       1.663   8.130  19.940  0.00  0.00    +0.000 OA
ATOM      9  N   UNL     1       1.495   9.102  17.857  0.00  0.00    +0.000 N 
ATOM     10  H   UNL     1       1.630   8.868  16.882  0.00  0.00    +0.000 HD
BRANCH   7  16
ATOM     11  C   UNL     1       6.390   4.980  15.758  0.00  0.00    +0.000 C 
ATOM     12  C   UNL     1       6.006   6.208  16.519  0.00  0.00    +0.000 C 
ATOM     13  O   UNL     1       6.701   7.221  16.546  0.00  0.00    +0.000 OA
ATOM     14  N   UNL     1       4.759   6.221  17.189  0.00  0.00    +0.000 N 
ATOM     15  C   UNL     1       4.245   7.380  17.771  0.00  0.00    +0.000 A 
ATOM     16  C   UNL     1       2.939   7.180  18.181  0.00  0.00    +0.000 A 
ATOM     17  C   UNL     1       2.678   5.788  17.955  0.00  0.00    +0.000 A 
ATOM     18  C   UNL     1       1.545   4.976  18.194  0.00  0.00    +0.000 A 
ATOM     19  C   UNL     1       1.597   3.603  17.965  0.00  0.00    +0.000 A 
ATOM     20  C   UNL     1       2.753   3.022  17.475  0.00  0.00    +0.000 A 
ATOM     21  C   UNL     1       3.873   3.803  17.175  0.00  0.00    +0.000 A 
ATOM     22  C   UNL     1       3.830   5.195  17.402  0.00  0.00    +0.000 A 
ENDBRANCH   7  16
ENDBRANCH   1   9
BRANCH   3  23
ATOM     23  C   UNL     1      -3.229  10.059  17.269  0.00  0.00    +0.000 C 
ATOM     24  O   UNL     1      -4.253  10.094  17.930  0.00  0.00    +0.000 OA
BRANCH  23  25
ATOM     25  O   UNL     1      -3.195   9.647  15.985  0.00  0.00    +0.000 OA
ATOM     26  H   UNL     1      -3.035  10.344  15.325  0.00  0.00    +0.000 HD
ENDBRANCH  23  25
ENDBRANCH   3  23
BRANCH   6  27
ATOM     27  N   UNL     1       1.879  11.777  19.111  0.00  0.00    +0.000 N 
ATOM     28  H   UNL     1       2.418  11.112  19.677  0.00  0.00    +0.000 HD
BRANCH  27  29
ATOM     29  C   UNL     1       2.215  13.200  19.256  0.00  0.00    +0.000 C 
ATOM     30  C   UNL     1       3.255  13.553  18.189  0.00  0.00    +0.000 C 
ATOM     31  C   UNL     1       3.928  14.886  18.463  0.00  0.00    +0.000 C 
ATOM     32  O   UNL     1       4.445  14.926  19.788  0.00  0.00    +0.000 OA
ATOM     33  C   UNL     1       3.406  14.854  20.759  0.00  0.00    +0.000 C 
ATOM     34  C   UNL     1       2.681  13.516  20.680  0.00  0.00    +0.000 C 
ENDBRANCH  27  29
ENDBRANCH   6  27
TORSDOF 6
ENDMDL
MODEL 8
REMARK VINA RESULT:      -8.6      2.075      4.930
REMARK  Name = 
REMARK  7 active torsions:
REMARK  status: ('A' for Active; 'I' for Inactive)
REMARK    1  A    between atoms: C_1  and  C_2
REMARK    2  A    between atoms: C_6  and  C_7
REMARK    3  A    between atoms: N_9  and  C_10
REMARK    4  A    between atoms: C_12  and  C_13
REMARK    5  A    between atoms: C_13  and  O_15
REMARK    6  A    between atoms: C_18  and  N_19
REMARK    7  A    between atoms: N_19  and  C_20
REMARK                            x       y       z     vdW  Elec       q    Type
REMARK                         _______ _______ _______ _____ _____    ______ ____
ROOT
ATOM      1  C   UNL     1       2.431   6.234  18.678  0.00  0.00    +0.000 A 
ATOM      2  C   UNL     1       1.605   5.203  19.159  0.00  0.00    +0.000 A 
ATOM      3  C   UNL     1       1.761   3.885  18.712  0.00  0.00    +0.000 A 
ATOM      4  C   UNL     1       2.783   3.576  17.820  0.00  0.00    +0.000 A 
ATOM      5  C   UNL     1       3.625   4.587  17.364  0.00  0.00    +0.000 A 
ATOM      6  C   UNL     1       3.486   5.927  17.775  0.00  0.00    +0.000 A 
ENDROOT
BRANCH   1   9
ATOM      7  C   UNL     1       1.800   8.646  18.504  0.00  0.00    +0.000 C 
ATOM      8  O   UNL     1       1.743   8.673  17.276  0.00  0.00    +0.000 OA
ATOM      9  N   UNL     1       2.162   7.521  19.228  0.00  0.00    +0.000 N 
ATOM     10  H   UNL     1       1.895   7.532  20.204  0.00  0.00    +0.000 HD
BRANCH   7  16
ATOM     11  C   UNL     1       0.953  14.092  21.355  0.00  0.00    +0.000 C 
ATOM     12  C   UNL     1       1.272  13.348  20.098  0.00  0.00    +0.000 C 
ATOM     13  O   UNL     1       1.748  13.890  19.103  0.00  0.00    +0.000 OA
ATOM     14  N   UNL     1       1.070  11.946  20.077  0.00  0.00    +0.000 N 
ATOM     15  C   UNL     1       1.504  11.153  19.015  0.00  0.00    +0.000 A 
ATOM     16  C   UNL     1       1.369   9.811  19.322  0.00  0.00    +0.000 A 
ATOM     17  C   UNL     1       0.697   9.777  20.590  0.00  0.00    +0.000 A 
ATOM     18  C   UNL     1       0.254   8.714  21.409  0.00  0.00    +0.000 A 
ATOM     19  C   UNL     1      -0.473   8.970  22.570  0.00  0.00    +0.000 A 
ATOM     20  C   UNL     1      -0.747  10.273  22.947  0.00  0.00    +0.000 A 
ATOM     21  C   UNL     1      -0.277  11.349  22.189  0.00  0.00    +0.000 A 
ATOM     22  C   UNL     1       0.462  11.101  21.013  0.00  0.00    +0.000 A 
ENDBRANCH   7  16
ENDBRANCH   1   9
BRANCH   3  23
ATOM     23  C   UNL     1       0.843   2.848  19.237  0.00  0.00    +0.000 C 
ATOM     24  O   UNL     1       0.290   2.036  18.515  0.00  0.00    +0.000 OA
BRANCH  23  25
ATOM     25  O   UNL     1       0.700   2.857  20.579  0.00  0.00    +0.000 OA
ATOM     26  H   UNL     1       1.425   2.443  21.081  0.00  0.00    +0.000 HD
ENDBRANCH  23  25
ENDBRANCH   3  23
BRANCH   6  27
ATOM     27  N   UNL     1       4.448   6.871  17.431  0.00  0.00    +0.000 N 
ATOM     28  H   UNL     1       4.085   7.583  16.788  0.00  0.00    +0.000 HD
BRANCH  27  29
ATOM     29  C   UNL     1       5.894   6.614  17.395  0.00  0.00    +0.000 C 
ATOM     30  C   UNL     1       6.250   5.735  18.597  0.00  0.00    +0.000 C 
ATOM     31  C   UNL     1       7.745   5.697  18.858  0.00  0.00    +0.000 C 
ATOM     32  O   UNL     1       8.275   7.015  18.947  0.00  0.00    +0.000 OA
ATOM     33  C   UNL     1       8.153   7.714  17.713  0.00  0.00    +0.000 C 
ATOM     34  C   UNL     1       6.688   7.922  17.348  0.00  0.00    +0.000 C 
ENDBRANCH  27  29
ENDBRANCH   6  27
TORSDOF 6
ENDMDL
MODEL 9
REMARK VINA RESULT:      -8.6      2.140      5.073
REMARK  Name = 
REMARK  7 active torsions:
REMARK  status: ('A' for Active; 'I' for Inactive)
REMARK    1  A    between atoms: C_1  and  C_2
REMARK    2  A    between atoms: C_6  and  C_7
REMARK    3  A    between atoms: N_9  and  C_10
REMARK    4  A    between atoms: C_12  and  C_13
REMARK    5  A    between atoms: C_13  and  O_15
REMARK    6  A    between atoms: C_18  and  N_19
REMARK    7  A    between atoms: N_19  and  C_20
REMARK                            x       y       z     vdW  Elec       q    Type
REMARK                         _______ _______ _______ _____ _____    ______ ____
ROOT
ATOM      1  C   UNL     1       2.923   5.891  19.482  0.00  0.00    +0.000 A 
ATOM      2  C   UNL     1       2.396   5.006  20.439  0.00  0.00    +0.000 A 
ATOM      3  C   UNL     1       2.666   3.634  20.379  0.00  0.00    +0.000 A 
ATOM      4  C   UNL     1       3.511   3.140  19.390  0.00  0.00    +0.000 A 
ATOM      5  C   UNL     1       4.061   4.016  18.457  0.00  0.00    +0.000 A 
ATOM      6  C   UNL     1       3.796   5.399  18.473  0.00  0.00    +0.000 A 
ENDROOT
BRANCH   1   9
ATOM      7  C   UNL     1       1.950   8.070  18.739  0.00  0.00    +0.000 C 
ATOM      8  O   UNL     1       1.698   7.711  17.590  0.00  0.00    +0.000 OA
ATOM      9  N   UNL     1       2.571   7.259  19.675  0.00  0.00    +0.000 N 
ATOM     10  H   UNL     1       2.462   7.550  20.638  0.00  0.00    +0.000 HD
BRANCH   7  16
ATOM     11  C   UNL     1       1.019  14.030  20.194  0.00  0.00    +0.000 C 
ATOM     12  C   UNL     1       1.360  13.011  19.155  0.00  0.00    +0.000 C 
ATOM     13  O   UNL     1       1.842  13.304  18.064  0.00  0.00    +0.000 OA
ATOM     14  N   UNL     1       1.171  11.642  19.468  0.00  0.00    +0.000 N 
ATOM     15  C   UNL     1       1.625  10.623  18.631  0.00  0.00    +0.000 A 
ATOM     16  C   UNL     1       1.499   9.393  19.250  0.00  0.00    +0.000 A 
ATOM     17  C   UNL     1       0.813   9.655  20.483  0.00  0.00    +0.000 A 
ATOM     18  C   UNL     1       0.370   8.814  21.530  0.00  0.00    +0.000 A 
ATOM     19  C   UNL     1      -0.372   9.332  22.589  0.00  0.00    +0.000 A 
ATOM     20  C   UNL     1      -0.663  10.684  22.640  0.00  0.00    +0.000 A 
ATOM     21  C   UNL     1      -0.194  11.553  21.651  0.00  0.00    +0.000 A 
ATOM     22  C   UNL     1       0.561  11.039  20.575  0.00  0.00    +0.000 A 
ENDBRANCH   7  16
ENDBRANCH   1   9
BRANCH   3  23
ATOM     23  C   UNL     1       2.063   2.749  21.402  0.00  0.00    +0.000 C 
ATOM     24  O   UNL     1       2.732   2.156  22.232  0.00  0.00    +0.000 OA
BRANCH  23  25
ATOM     25  O   UNL     1       0.716   2.685  21.361  0.00  0.00    +0.000 OA
ATOM     26  H   UNL     1       0.306   3.006  20.538  0.00  0.00    +0.000 HD
ENDBRANCH  23  25
ENDBRANCH   3  23
BRANCH   6  27
ATOM     27  N   UNL     1       4.496   6.258  17.634  0.00  0.00    +0.000 N 
ATOM     28  H   UNL     1       3.951   6.529  16.807  0.00  0.00    +0.000 HD
BRANCH  27  29
ATOM     29  C   UNL     1       5.959   6.295  17.508  0.00  0.00    +0.000 C 
ATOM     30  C   UNL     1       6.560   5.693  18.782  0.00  0.00    +0.000 C 
ATOM     31  C   UNL     1       8.041   5.996  18.916  0.00  0.00    +0.000 C 
ATOM     32  O   UNL     1       8.285   7.392  18.783  0.00  0.00    +0.000 OA
ATOM     33  C   UNL     1       7.949   7.861  17.482  0.00  0.00    +0.000 C 
ATOM     34  C   UNL     1       6.456   7.714  17.219  0.00  0.00    +0.000 C 
ENDBRANCH  27  29
ENDBRANCH   6  27
TORSDOF 6
ENDMDL
