MODEL 1
REMARK VINA RESULT:      -8.2      0.000      0.000
REMARK  Name = 
REMARK  7 active torsions:
REMARK  status: ('A' for Active; 'I' for Inactive)
REMARK    1  A    between atoms: C_1  and  C_2
REMARK    2  A    between atoms: C_2  and  C_3
REMARK    3  A    between atoms: C_6  and  C_7
REMARK    4  A    between atoms: C_7  and  C_9
REMARK    5  A    between atoms: C_9  and  S_10
REMARK    6  A    between atoms: S_10  and  C_11
REMARK    7  A    between atoms: C_13  and  C_14
REMARK                            x       y       z     vdW  Elec       q    Type
REMARK                         _______ _______ _______ _____ _____    ______ ____
ROOT
ATOM      1  C   UNL     1       4.483   5.460  19.155  0.00  0.00    +0.000 A 
ATOM      2  N   UNL     1       3.897   6.667  19.265  0.00  0.00    +0.000 NA
ATOM      3  C   UNL     1       2.572   6.717  19.030  0.00  0.00    +0.000 A 
ATOM      4  N   UNL     1       1.820   5.653  18.690  0.00  0.00    +0.000 NA
ATOM      5  C   UNL     1       2.436   4.460  18.582  0.00  0.00    +0.000 A 
ATOM      6  C   UNL     1       3.790   4.297  18.828  0.00  0.00    +0.000 A 
ATOM      7  C   UNL     1       4.457   2.954  18.668  0.00  0.00    +0.000 C 
ATOM      8  C   UNL     1       3.482   1.779  18.665  0.00  0.00    +0.000 C 
ATOM      9  C   UNL     1       2.306   2.070  17.744  0.00  0.00    +0.000 C 
ATOM     10  C   UNL     1       1.543   3.291  18.250  0.00  0.00    +0.000 C 
ENDROOT
BRANCH   3  11
ATOM     11  C   UNL     1       1.881   8.013  19.198  0.00  0.00    +0.000 A 
ATOM     12  C   UNL     1       1.729   8.910  18.124  0.00  0.00    +0.000 A 
ATOM     13  C   UNL     1       1.112  10.154  18.291  0.00  0.00    +0.000 A 
ATOM     14  C   UNL     1       0.626  10.530  19.539  0.00  0.00    +0.000 A 
ATOM     15  C   UNL     1       0.746   9.660  20.618  0.00  0.00    +0.000 A 
ATOM     16  C   UNL     1       1.363   8.416  20.447  0.00  0.00    +0.000 A 
ENDBRANCH   3  11
BRANCH   1  17
ATOM     17  S   UNL     1       6.249   5.380  19.423  0.00  0.00    +0.000 S 
BRANCH  17  18
ATOM     18  C   UNL     1       6.957   5.999  17.853  0.00  0.00    +0.000 C 
BRANCH  18  19
ATOM     19  C   UNL     1       7.496   4.819  17.046  0.00  0.00    +0.000 C 
ATOM     20  O   UNL     1       8.382   4.062  17.456  0.00  0.00    +0.000 OA
BRANCH  19  24
ATOM     21  C   UNL     1       5.859   3.916  13.157  0.00  0.00    +0.000 A 
ATOM     22  C   UNL     1       5.241   3.473  14.329  0.00  0.00    +0.000 A 
ATOM     23  C   UNL     1       5.786   3.786  15.574  0.00  0.00    +0.000 A 
ATOM     24  C   UNL     1       6.957   4.554  15.676  0.00  0.00    +0.000 A 
ATOM     25  C   UNL     1       7.565   5.020  14.508  0.00  0.00    +0.000 A 
ATOM     26  C   UNL     1       7.016   4.705  13.258  0.00  0.00    +0.000 A 
BRANCH  21  28
ATOM     27  C   UNL     1       5.465   2.077  11.485  0.00  0.00    +0.000 C 
ATOM     28  C   UNL     1       5.281   3.551  11.814  0.00  0.00    +0.000 C 
ENDBRANCH  21  28
ENDBRANCH  19  24
ENDBRANCH  18  19
ENDBRANCH  17  18
ENDBRANCH   1  17
TORSDOF 6
ENDMDL
MODEL 2
REMARK VINA RESULT:      -8.1      0.847      1.267
REMARK  Name = 
REMARK  7 active torsions:
REMARK  status: ('A' for Active; 'I' for Inactive)
REMARK    1  A    between atoms: C_1  and  C_2
REMARK    2  A    between atoms: C_2  and  C_3
REMARK    3  A    between atoms: C_6  and  C_7
REMARK    4  A    between atoms: C_7  and  C_9
REMARK    5  A    between atoms: C_9  and  S_10
REMARK    6  A    between atoms: S_10  and  C_11
REMARK    7  A    between atoms: C_13  and  C_14
REMARK                            x       y       z     vdW  Elec       q    Type
REMARK                         _______ _______ _______ _____ _____    ______ ____
ROOT
ATOM      1  C   UNL     1       4.780   5.417  19.028  0.00  0.00    +0.000 A 
ATOM      2  N   UNL     1       4.191   6.628  19.051  0.00  0.00    +0.000 NA
ATOM      3  C   UNL     1       2.879   6.664  18.751  0.00  0.00    +0.000 A 
ATOM      4  N   UNL     1       2.142   5.584  18.429  0.00  0.00    +0.000 NA
ATOM      5  C   UNL     1       2.760   4.388  18.410  0.00  0.00    +0.000 A 
ATOM      6  C   UNL     1       4.102   4.238  18.727  0.00  0.00    +0.000 A 
ATOM      7  C   UNL     1       4.773   2.890  18.666  0.00  0.00    +0.000 C 
ATOM      8  C   UNL     1       3.797   1.715  18.675  0.00  0.00    +0.000 C 
ATOM      9  C   UNL     1       2.667   1.959  17.687  0.00  0.00    +0.000 C 
ATOM     10  C   UNL     1       1.882   3.203  18.095  0.00  0.00    +0.000 C 
ENDROOT
BRANCH   3  11
ATOM     11  C   UNL     1       2.182   7.967  18.822  0.00  0.00    +0.000 A 
ATOM     12  C   UNL     1       2.200   8.869  17.742  0.00  0.00    +0.000 A 
ATOM     13  C   UNL     1       1.576  10.119  17.822  0.00  0.00    +0.000 A 
ATOM     14  C   UNL     1       0.915  10.495  18.986  0.00  0.00    +0.000 A 
ATOM     15  C   UNL     1       0.865   9.619  20.066  0.00  0.00    +0.000 A 
ATOM     16  C   UNL     1       1.490   8.370  19.982  0.00  0.00    +0.000 A 
ENDBRANCH   3  11
BRANCH   1  17
ATOM     17  S   UNL     1       6.532   5.351  19.383  0.00  0.00    +0.000 S 
BRANCH  17  18
ATOM     18  C   UNL     1       7.261   4.672  17.848  0.00  0.00    +0.000 C 
BRANCH  18  19
ATOM     19  C   UNL     1       6.829   5.534  16.663  0.00  0.00    +0.000 C 
ATOM     20  O   UNL     1       6.772   6.767  16.703  0.00  0.00    +0.000 OA
BRANCH  19  24
ATOM     21  C   UNL     1       5.781   3.739  12.882  0.00  0.00    +0.000 A 
ATOM     22  C   UNL     1       7.026   4.339  13.084  0.00  0.00    +0.000 A 
ATOM     23  C   UNL     1       7.343   4.904  14.319  0.00  0.00    +0.000 A 
ATOM     24  C   UNL     1       6.426   4.877  15.381  0.00  0.00    +0.000 A 
ATOM     25  C   UNL     1       5.189   4.256  15.192  0.00  0.00    +0.000 A 
ATOM     26  C   UNL     1       4.872   3.687  13.951  0.00  0.00    +0.000 A 
BRANCH  21  28
ATOM     27  C   UNL     1       3.947   3.248  11.231  0.00  0.00    +0.000 C 
ATOM     28  C   UNL     1       5.434   3.154  11.537  0.00  0.00    +0.000 C 
ENDBRANCH  21  28
ENDBRANCH  19  24
ENDBRANCH  18  19
ENDBRANCH  17  18
ENDBRANCH   1  17
TORSDOF 6
ENDMDL
MODEL 3
REMARK VINA RESULT:      -8.1      1.375      2.048
REMARK  Name = 
REMARK  7 active torsions:
REMARK  status: ('A' for Active; 'I' for Inactive)
REMARK    1  A    between atoms: C_1  and  C_2
REMARK    2  A    between atoms: C_2  and  C_3
REMARK    3  A    between atoms: C_6  and  C_7
REMARK    4  A    between atoms: C_7  and  C_9
REMARK    5  A    between atoms: C_9  and  S_10
REMARK    6  A    between atoms: S_10  and  C_11
REMARK    7  A    between atoms: C_13  and  C_14
REMARK                            x       y       z     vdW  Elec       q    Type
REMARK                         _______ _______ _______ _____ _____    ______ ____
ROOT
ATOM      1  C   UNL     1       3.339   6.214  18.623  0.00  0.00    +0.000 A 
ATOM      2  N   UNL     1       2.713   7.356  18.962  0.00  0.00    +0.000 NA
ATOM      3  C   UNL     1       1.903   7.303  20.037  0.00  0.00    +0.000 A 
ATOM      4  N   UNL     1       1.682   6.195  20.769  0.00  0.00    +0.000 NA
ATOM      5  C   UNL     1       2.319   5.066  20.402  0.00  0.00    +0.000 A 
ATOM      6  C   UNL     1       3.193   5.020  19.327  0.00  0.00    +0.000 A 
ATOM      7  C   UNL     1       3.867   3.734  18.922  0.00  0.00    +0.000 C 
ATOM      8  C   UNL     1       3.859   2.664  20.012  0.00  0.00    +0.000 C 
ATOM      9  C   UNL     1       2.472   2.544  20.626  0.00  0.00    +0.000 C 
ATOM     10  C   UNL     1       2.081   3.865  21.283  0.00  0.00    +0.000 C 
ENDROOT
BRANCH   3  11
ATOM     11  C   UNL     1       1.243   8.551  20.477  0.00  0.00    +0.000 A 
ATOM     12  C   UNL     1       0.822   8.731  21.808  0.00  0.00    +0.000 A 
ATOM     13  C   UNL     1       0.161   9.894  22.216  0.00  0.00    +0.000 A 
ATOM     14  C   UNL     1      -0.094  10.909  21.300  0.00  0.00    +0.000 A 
ATOM     15  C   UNL     1       0.323  10.769  19.980  0.00  0.00    +0.000 A 
ATOM     16  C   UNL     1       0.985   9.605  19.576  0.00  0.00    +0.000 A 
ENDBRANCH   3  11
BRANCH   1  17
ATOM     17  S   UNL     1       4.387   6.252  17.175  0.00  0.00    +0.000 S 
BRANCH  17  18
ATOM     18  C   UNL     1       6.074   6.430  17.863  0.00  0.00    +0.000 C 
BRANCH  18  19
ATOM     19  C   UNL     1       6.954   5.302  17.329  0.00  0.00    +0.000 C 
ATOM     20  O   UNL     1       7.920   4.841  17.947  0.00  0.00    +0.000 OA
BRANCH  19  24
ATOM     21  C   UNL     1       6.187   3.772  13.368  0.00  0.00    +0.000 A 
ATOM     22  C   UNL     1       7.096   4.810  13.585  0.00  0.00    +0.000 A 
ATOM     23  C   UNL     1       7.333   5.280  14.877  0.00  0.00    +0.000 A 
ATOM     24  C   UNL     1       6.671   4.720  15.981  0.00  0.00    +0.000 A 
ATOM     25  C   UNL     1       5.778   3.666  15.772  0.00  0.00    +0.000 A 
ATOM     26  C   UNL     1       5.542   3.194  14.473  0.00  0.00    +0.000 A 
BRANCH  21  28
ATOM     27  C   UNL     1       4.435   3.334  11.615  0.00  0.00    +0.000 C 
ATOM     28  C   UNL     1       5.915   3.287  11.967  0.00  0.00    +0.000 C 
ENDBRANCH  21  28
ENDBRANCH  19  24
ENDBRANCH  18  19
ENDBRANCH  17  18
ENDBRANCH   1  17
TORSDOF 6
ENDMDL
MODEL 4
REMARK VINA RESULT:      -8.1      1.590      2.108
REMARK  Name = 
REMARK  7 active torsions:
REMARK  status: ('A' for Active; 'I' for Inactive)
REMARK    1  A    between atoms: C_1  and  C_2
REMARK    2  A    between atoms: C_2  and  C_3
REMARK    3  A    between atoms: C_6  and  C_7
REMARK    4  A    between atoms: C_7  and  C_9
REMARK    5  A    between atoms: C_9  and  S_10
REMARK    6  A    between atoms: S_10  and  C_11
REMARK    7  A    between atoms: C_13  and  C_14
REMARK                            x       y       z     vdW  Elec       q    Type
REMARK                         _______ _______ _______ _____ _____    ______ ____
ROOT
ATOM      1  C   UNL     1       3.104   6.554  18.772  0.00  0.00    +0.000 A 
ATOM      2  N   UNL     1       2.471   7.654  19.222  0.00  0.00    +0.000 NA
ATOM      3  C   UNL     1       1.662   7.490  20.286  0.00  0.00    +0.000 A 
ATOM      4  N   UNL     1       1.447   6.314  20.905  0.00  0.00    +0.000 NA
ATOM      5  C   UNL     1       2.090   5.230  20.428  0.00  0.00    +0.000 A 
ATOM      6  C   UNL     1       2.965   5.296  19.354  0.00  0.00    +0.000 A 
ATOM      7  C   UNL     1       3.646   4.060  18.824  0.00  0.00    +0.000 C 
ATOM      8  C   UNL     1       3.644   2.888  19.804  0.00  0.00    +0.000 C 
ATOM      9  C   UNL     1       2.258   2.700  20.401  0.00  0.00    +0.000 C 
ATOM     10  C   UNL     1       1.859   3.947  21.186  0.00  0.00    +0.000 C 
ENDROOT
BRANCH   3  11
ATOM     11  C   UNL     1       0.994   8.685  20.846  0.00  0.00    +0.000 A 
ATOM     12  C   UNL     1       0.809   9.851  20.080  0.00  0.00    +0.000 A 
ATOM     13  C   UNL     1       0.214  10.996  20.621  0.00  0.00    +0.000 A 
ATOM     14  C   UNL     1      -0.213  11.000  21.945  0.00  0.00    +0.000 A 
ATOM     15  C   UNL     1      -0.059   9.858  22.725  0.00  0.00    +0.000 A 
ATOM     16  C   UNL     1       0.535   8.715  22.179  0.00  0.00    +0.000 A 
ENDBRANCH   3  11
BRANCH   1  17
ATOM     17  S   UNL     1       4.151   6.742  17.335  0.00  0.00    +0.000 S 
BRANCH  17  18
ATOM     18  C   UNL     1       5.773   6.099  17.892  0.00  0.00    +0.000 C 
BRANCH  18  19
ATOM     19  C   UNL     1       6.746   6.108  16.715  0.00  0.00    +0.000 C 
ATOM     20  O   UNL     1       7.762   6.809  16.678  0.00  0.00    +0.000 OA
BRANCH  19  24
ATOM     21  C   UNL     1       6.039   3.742  13.177  0.00  0.00    +0.000 A 
ATOM     22  C   UNL     1       7.138   4.600  13.273  0.00  0.00    +0.000 A 
ATOM     23  C   UNL     1       7.348   5.347  14.432  0.00  0.00    +0.000 A 
ATOM     24  C   UNL     1       6.470   5.249  15.522  0.00  0.00    +0.000 A 
ATOM     25  C   UNL     1       5.383   4.375  15.441  0.00  0.00    +0.000 A 
ATOM     26  C   UNL     1       5.174   3.624  14.276  0.00  0.00    +0.000 A 
BRANCH  21  28
ATOM     27  C   UNL     1       4.382   3.119  11.388  0.00  0.00    +0.000 C 
ATOM     28  C   UNL     1       5.802   2.958  11.911  0.00  0.00    +0.000 C 
ENDBRANCH  21  28
ENDBRANCH  19  24
ENDBRANCH  18  19
ENDBRANCH  17  18
ENDBRANCH   1  17
TORSDOF 6
ENDMDL
MODEL 5
REMARK VINA RESULT:      -7.9      2.491      8.394
REMARK  Name = 
REMARK  7 active torsions:
REMARK  status: ('A' for Active; 'I' for Inactive)
REMARK    1  A    between atoms: C_1  and  C_2
REMARK    2  A    between atoms: C_2  and  C_3
REMARK    3  A    between atoms: C_6  and  C_7
REMARK    4  A    between atoms: C_7  and  C_9
REMARK    5  A    between atoms: C_9  and  S_10
REMARK    6  A    between atoms: S_10  and  C_11
REMARK    7  A    between atoms: C_13  and  C_14
REMARK                            x       y       z     vdW  Elec       q    Type
REMARK                         _______ _______ _______ _____ _____    ______ ____
ROOT
ATOM      1  C   UNL     1       4.205   5.864  17.349  0.00  0.00    +0.000 A 
ATOM      2  N   UNL     1       4.887   5.760  16.193  0.00  0.00    +0.000 NA
ATOM      3  C   UNL     1       5.114   4.513  15.738  0.00  0.00    +0.000 A 
ATOM      4  N   UNL     1       4.715   3.390  16.365  0.00  0.00    +0.000 NA
ATOM      5  C   UNL     1       4.040   3.526  17.522  0.00  0.00    +0.000 A 
ATOM      6  C   UNL     1       3.732   4.765  18.064  0.00  0.00    +0.000 A 
ATOM      7  C   UNL     1       3.002   4.885  19.377  0.00  0.00    +0.000 C 
ATOM      8  C   UNL     1       2.273   3.609  19.795  0.00  0.00    +0.000 C 
ATOM      9  C   UNL     1       3.182   2.401  19.628  0.00  0.00    +0.000 C 
ATOM     10  C   UNL     1       3.567   2.243  18.159  0.00  0.00    +0.000 C 
ENDROOT
BRANCH   3  11
ATOM     11  C   UNL     1       5.808   4.358  14.442  0.00  0.00    +0.000 A 
ATOM     12  C   UNL     1       7.030   5.005  14.181  0.00  0.00    +0.000 A 
ATOM     13  C   UNL     1       7.668   4.893  12.941  0.00  0.00    +0.000 A 
ATOM     14  C   UNL     1       7.099   4.124  11.931  0.00  0.00    +0.000 A 
ATOM     15  C   UNL     1       5.899   3.458  12.162  0.00  0.00    +0.000 A 
ATOM     16  C   UNL     1       5.265   3.573  13.404  0.00  0.00    +0.000 A 
ENDBRANCH   3  11
BRANCH   1  17
ATOM     17  S   UNL     1       3.929   7.509  17.992  0.00  0.00    +0.000 S 
BRANCH  17  18
ATOM     18  C   UNL     1       2.159   7.822  17.643  0.00  0.00    +0.000 C 
BRANCH  18  19
ATOM     19  C   UNL     1       1.798   9.231  18.108  0.00  0.00    +0.000 C 
ATOM     20  O   UNL     1       2.065  10.250  17.464  0.00  0.00    +0.000 OA
BRANCH  19  24
ATOM     21  C   UNL     1      -0.233   9.940  21.848  0.00  0.00    +0.000 A 
ATOM     22  C   UNL     1      -0.453  10.754  20.734  0.00  0.00    +0.000 A 
ATOM     23  C   UNL     1       0.210  10.497  19.534  0.00  0.00    +0.000 A 
ATOM     24  C   UNL     1       1.102   9.419  19.418  0.00  0.00    +0.000 A 
ATOM     25  C   UNL     1       1.307   8.588  20.523  0.00  0.00    +0.000 A 
ATOM     26  C   UNL     1       0.640   8.847  21.728  0.00  0.00    +0.000 A 
BRANCH  21  28
ATOM     27  C   UNL     1      -1.668  11.569  23.121  0.00  0.00    +0.000 C 
ATOM     28  C   UNL     1      -0.931  10.239  23.151  0.00  0.00    +0.000 C 
ENDBRANCH  21  28
ENDBRANCH  19  24
ENDBRANCH  18  19
ENDBRANCH  17  18
ENDBRANCH   1  17
TORSDOF 6
ENDMDL
MODEL 6
REMARK VINA RESULT:      -7.9      0.781      1.504
REMARK  Name = 
REMARK  7 active torsions:
REMARK  status: ('A' for Active; 'I' for Inactive)
REMARK    1  A    between atoms: C_1  and  C_2
REMARK    2  A    between atoms: C_2  and  C_3
REMARK    3  A    between atoms: C_6  and  C_7
REMARK    4  A    between atoms: C_7  and  C_9
REMARK    5  A    between atoms: C_9  and  S_10
REMARK    6  A    between atoms: S_10  and  C_11
REMARK    7  A    between atoms: C_13  and  C_14
REMARK                            x       y       z     vdW  Elec       q    Type
REMARK                         _______ _______ _______ _____ _____    ______ ____
ROOT
ATOM      1  C   UNL     1       4.771   5.424  19.036  0.00  0.00    +0.000 A 
ATOM      2  N   UNL     1       4.180   6.633  19.066  0.00  0.00    +0.000 NA
ATOM      3  C   UNL     1       2.866   6.668  18.774  0.00  0.00    +0.000 A 
ATOM      4  N   UNL     1       2.129   5.589  18.451  0.00  0.00    +0.000 NA
ATOM      5  C   UNL     1       2.750   4.394  18.424  0.00  0.00    +0.000 A 
ATOM      6  C   UNL     1       4.093   4.245  18.733  0.00  0.00    +0.000 A 
ATOM      7  C   UNL     1       4.767   2.898  18.663  0.00  0.00    +0.000 C 
ATOM      8  C   UNL     1       3.793   1.721  18.672  0.00  0.00    +0.000 C 
ATOM      9  C   UNL     1       2.657   1.967  17.691  0.00  0.00    +0.000 C 
ATOM     10  C   UNL     1       1.872   3.208  18.109  0.00  0.00    +0.000 C 
ENDROOT
BRANCH   3  11
ATOM     11  C   UNL     1       2.167   7.969  18.854  0.00  0.00    +0.000 A 
ATOM     12  C   UNL     1       1.519   8.385  20.032  0.00  0.00    +0.000 A 
ATOM     13  C   UNL     1       0.823   9.597  20.096  0.00  0.00    +0.000 A 
ATOM     14  C   UNL     1       0.762  10.426  18.980  0.00  0.00    +0.000 A 
ATOM     15  C   UNL     1       1.405  10.051  17.805  0.00  0.00    +0.000 A 
ATOM     16  C   UNL     1       2.101   8.839  17.745  0.00  0.00    +0.000 A 
ENDBRANCH   3  11
BRANCH   1  17
ATOM     17  S   UNL     1       6.524   5.360  19.381  0.00  0.00    +0.000 S 
BRANCH  17  18
ATOM     18  C   UNL     1       7.237   4.608  17.872  0.00  0.00    +0.000 C 
BRANCH  18  19
ATOM     19  C   UNL     1       6.903   5.486  16.668  0.00  0.00    +0.000 C 
ATOM     20  O   UNL     1       6.959   6.720  16.689  0.00  0.00    +0.000 OA
BRANCH  19  24
ATOM     21  C   UNL     1       5.734   3.754  12.893  0.00  0.00    +0.000 A 
ATOM     22  C   UNL     1       6.956   4.413  13.045  0.00  0.00    +0.000 A 
ATOM     23  C   UNL     1       7.314   4.957  14.279  0.00  0.00    +0.000 A 
ATOM     24  C   UNL     1       6.462   4.848  15.390  0.00  0.00    +0.000 A 
ATOM     25  C   UNL     1       5.249   4.168  15.249  0.00  0.00    +0.000 A 
ATOM     26  C   UNL     1       4.892   3.622  14.009  0.00  0.00    +0.000 A 
BRANCH  21  28
ATOM     27  C   UNL     1       5.782   1.748  11.375  0.00  0.00    +0.000 C 
ATOM     28  C   UNL     1       5.341   3.193  11.551  0.00  0.00    +0.000 C 
ENDBRANCH  21  28
ENDBRANCH  19  24
ENDBRANCH  18  19
ENDBRANCH  17  18
ENDBRANCH   1  17
TORSDOF 6
ENDMDL
MODEL 7
REMARK VINA RESULT:      -7.9      1.429      1.639
REMARK  Name = 
REMARK  7 active torsions:
REMARK  status: ('A' for Active; 'I' for Inactive)
REMARK    1  A    between atoms: C_1  and  C_2
REMARK    2  A    between atoms: C_2  and  C_3
REMARK    3  A    between atoms: C_6  and  C_7
REMARK    4  A    between atoms: C_7  and  C_9
REMARK    5  A    between atoms: C_9  and  S_10
REMARK    6  A    between atoms: S_10  and  C_11
REMARK    7  A    between atoms: C_13  and  C_14
REMARK                            x       y       z     vdW  Elec       q    Type
REMARK                         _______ _______ _______ _____ _____    ______ ____
ROOT
ATOM      1  C   UNL     1       3.346   6.255  18.784  0.00  0.00    +0.000 A 
ATOM      2  N   UNL     1       2.711   7.392  19.127  0.00  0.00    +0.000 NA
ATOM      3  C   UNL     1       1.836   7.308  20.147  0.00  0.00    +0.000 A 
ATOM      4  N   UNL     1       1.560   6.176  20.821  0.00  0.00    +0.000 NA
ATOM      5  C   UNL     1       2.207   5.054  20.452  0.00  0.00    +0.000 A 
ATOM      6  C   UNL     1       3.145   5.038  19.432  0.00  0.00    +0.000 A 
ATOM      7  C   UNL     1       3.830   3.759  19.020  0.00  0.00    +0.000 C 
ATOM      8  C   UNL     1       3.745   2.650  20.067  0.00  0.00    +0.000 C 
ATOM      9  C   UNL     1       2.322   2.524  20.589  0.00  0.00    +0.000 C 
ATOM     10  C   UNL     1       1.903   3.824  21.271  0.00  0.00    +0.000 C 
ENDROOT
BRANCH   3  11
ATOM     11  C   UNL     1       1.162   8.547  20.592  0.00  0.00    +0.000 A 
ATOM     12  C   UNL     1       0.898   9.602  19.698  0.00  0.00    +0.000 A 
ATOM     13  C   UNL     1       0.297  10.790  20.126  0.00  0.00    +0.000 A 
ATOM     14  C   UNL     1      -0.058  10.951  21.462  0.00  0.00    +0.000 A 
ATOM     15  C   UNL     1       0.175   9.921  22.368  0.00  0.00    +0.000 A 
ATOM     16  C   UNL     1       0.775   8.734  21.935  0.00  0.00    +0.000 A 
ENDBRANCH   3  11
BRANCH   1  17
ATOM     17  S   UNL     1       4.482   6.335  17.405  0.00  0.00    +0.000 S 
BRANCH  17  18
ATOM     18  C   UNL     1       6.131   6.244  18.194  0.00  0.00    +0.000 C 
BRANCH  18  19
ATOM     19  C   UNL     1       6.916   5.085  17.583  0.00  0.00    +0.000 C 
ATOM     20  O   UNL     1       7.784   4.453  18.195  0.00  0.00    +0.000 OA
BRANCH  19  24
ATOM     21  C   UNL     1       6.105   3.787  13.549  0.00  0.00    +0.000 A 
ATOM     22  C   UNL     1       5.374   3.296  14.634  0.00  0.00    +0.000 A 
ATOM     23  C   UNL     1       5.651   3.740  15.927  0.00  0.00    +0.000 A 
ATOM     24  C   UNL     1       6.659   4.687  16.165  0.00  0.00    +0.000 A 
ATOM     25  C   UNL     1       7.377   5.198  15.081  0.00  0.00    +0.000 A 
ATOM     26  C   UNL     1       7.097   4.752  13.782  0.00  0.00    +0.000 A 
BRANCH  21  28
ATOM     27  C   UNL     1       7.078   2.814  11.442  0.00  0.00    +0.000 C 
ATOM     28  C   UNL     1       5.820   3.284  12.157  0.00  0.00    +0.000 C 
ENDBRANCH  21  28
ENDBRANCH  19  24
ENDBRANCH  18  19
ENDBRANCH  17  18
ENDBRANCH   1  17
TORSDOF 6
ENDMDL
MODEL 8
REMARK VINA RESULT:      -7.8      1.411      1.761
REMARK  Name = 
REMARK  7 active torsions:
REMARK  status: ('A' for Active; 'I' for Inactive)
REMARK    1  A    between atoms: C_1  and  C_2
REMARK    2  A    between atoms: C_2  and  C_3
REMARK    3  A    between atoms: C_6  and  C_7
REMARK    4  A    between atoms: C_7  and  C_9
REMARK    5  A    between atoms: C_9  and  S_10
REMARK    6  A    between atoms: S_10  and  C_11
REMARK    7  A    between atoms: C_13  and  C_14
REMARK                            x       y       z     vdW  Elec       q    Type
REMARK                         _______ _______ _______ _____ _____    ______ ____
ROOT
ATOM      1  C   UNL     1       4.050   5.466  19.148  0.00  0.00    +0.000 A 
ATOM      2  N   UNL     1       3.512   6.696  19.058  0.00  0.00    +0.000 NA
ATOM      3  C   UNL     1       2.333   6.884  19.680  0.00  0.00    +0.000 A 
ATOM      4  N   UNL     1       1.673   5.931  20.364  0.00  0.00    +0.000 NA
ATOM      5  C   UNL     1       2.234   4.708  20.432  0.00  0.00    +0.000 A 
ATOM      6  C   UNL     1       3.457   4.417  19.847  0.00  0.00    +0.000 A 
ATOM      7  C   UNL     1       4.044   3.030  19.914  0.00  0.00    +0.000 C 
ATOM      8  C   UNL     1       3.434   2.155  21.007  0.00  0.00    +0.000 C 
ATOM      9  C   UNL     1       1.916   2.251  20.976  0.00  0.00    +0.000 C 
ATOM     10  C   UNL     1       1.484   3.689  21.252  0.00  0.00    +0.000 C 
ENDROOT
BRANCH   3  11
ATOM     11  C   UNL     1       1.737   8.238  19.654  0.00  0.00    +0.000 A 
ATOM     12  C   UNL     1       1.134   8.798  20.796  0.00  0.00    +0.000 A 
ATOM     13  C   UNL     1       0.534  10.061  20.762  0.00  0.00    +0.000 A 
ATOM     14  C   UNL     1       0.526  10.798  19.582  0.00  0.00    +0.000 A 
ATOM     15  C   UNL     1       1.129  10.280  18.440  0.00  0.00    +0.000 A 
ATOM     16  C   UNL     1       1.728   9.016  18.478  0.00  0.00    +0.000 A 
ENDBRANCH   3  11
BRANCH   1  17
ATOM     17  S   UNL     1       5.595   5.182  18.294  0.00  0.00    +0.000 S 
BRANCH  17  18
ATOM     18  C   UNL     1       5.416   6.136  16.741  0.00  0.00    +0.000 C 
BRANCH  18  19
ATOM     19  C   UNL     1       6.617   5.857  15.840  0.00  0.00    +0.000 C 
ATOM     20  O   UNL     1       7.748   6.303  16.056  0.00  0.00    +0.000 OA
BRANCH  19  24
ATOM     21  C   UNL     1       5.999   3.346  12.387  0.00  0.00    +0.000 A 
ATOM     22  C   UNL     1       5.061   3.407  13.420  0.00  0.00    +0.000 A 
ATOM     23  C   UNL     1       5.281   4.235  14.521  0.00  0.00    +0.000 A 
ATOM     24  C   UNL     1       6.439   5.023  14.612  0.00  0.00    +0.000 A 
ATOM     25  C   UNL     1       7.369   4.983  13.570  0.00  0.00    +0.000 A 
ATOM     26  C   UNL     1       7.146   4.152  12.463  0.00  0.00    +0.000 A 
BRANCH  21  28
ATOM     27  C   UNL     1       6.762   1.277  11.173  0.00  0.00    +0.000 C 
ATOM     28  C   UNL     1       5.769   2.429  11.212  0.00  0.00    +0.000 C 
ENDBRANCH  21  28
ENDBRANCH  19  24
ENDBRANCH  18  19
ENDBRANCH  17  18
ENDBRANCH   1  17
TORSDOF 6
ENDMDL
MODEL 9
REMARK VINA RESULT:      -7.8      0.605      1.148
REMARK  Name = 
REMARK  7 active torsions:
REMARK  status: ('A' for Active; 'I' for Inactive)
REMARK    1  A    between atoms: C_1  and  C_2
REMARK    2  A    between atoms: C_2  and  C_3
REMARK    3  A    between atoms: C_6  and  C_7
REMARK    4  A    between atoms: C_7  and  C_9
REMARK    5  A    between atoms: C_9  and  S_10
REMARK    6  A    between atoms: S_10  and  C_11
REMARK    7  A    between atoms: C_13  and  C_14
REMARK                            x       y       z     vdW  Elec       q    Type
REMARK                         _______ _______ _______ _____ _____    ______ ____
ROOT
ATOM      1  C   UNL     1       4.380   5.451  19.165  0.00  0.00    +0.000 A 
ATOM      2  N   UNL     1       3.786   6.628  19.436  0.00  0.00    +0.000 NA
ATOM      3  C   UNL     1       2.440   6.632  19.463  0.00  0.00    +0.000 A 
ATOM      4  N   UNL     1       1.671   5.552  19.230  0.00  0.00    +0.000 NA
ATOM      5  C   UNL     1       2.294   4.389  18.955  0.00  0.00    +0.000 A 
ATOM      6  C   UNL     1       3.675   4.272  18.929  0.00  0.00    +0.000 A 
ATOM      7  C   UNL     1       4.343   2.964  18.588  0.00  0.00    +0.000 C 
ATOM      8  C   UNL     1       3.424   1.751  18.723  0.00  0.00    +0.000 C 
ATOM      9  C   UNL     1       2.083   2.026  18.059  0.00  0.00    +0.000 C 
ATOM     10  C   UNL     1       1.393   3.196  18.754  0.00  0.00    +0.000 C 
ENDROOT
BRANCH   3  11
ATOM     11  C   UNL     1       1.752   7.893  19.815  0.00  0.00    +0.000 A 
ATOM     12  C   UNL     1       1.628   8.946  18.890  0.00  0.00    +0.000 A 
ATOM     13  C   UNL     1       1.013  10.154  19.234  0.00  0.00    +0.000 A 
ATOM     14  C   UNL     1       0.503  10.337  20.515  0.00  0.00    +0.000 A 
ATOM     15  C   UNL     1       0.595   9.310  21.449  0.00  0.00    +0.000 A 
ATOM     16  C   UNL     1       1.210   8.103  21.100  0.00  0.00    +0.000 A 
ENDBRANCH   3  11
BRANCH   1  17
ATOM     17  S   UNL     1       6.166   5.433  19.084  0.00  0.00    +0.000 S 
BRANCH  17  18
ATOM     18  C   UNL     1       6.529   5.948  17.366  0.00  0.00    +0.000 C 
BRANCH  18  19
ATOM     19  C   UNL     1       7.212   4.797  16.631  0.00  0.00    +0.000 C 
ATOM     20  O   UNL     1       8.220   4.221  17.054  0.00  0.00    +0.000 OA
BRANCH  19  24
ATOM     21  C   UNL     1       5.741   3.583  12.761  0.00  0.00    +0.000 A 
ATOM     22  C   UNL     1       6.971   4.230  12.903  0.00  0.00    +0.000 A 
ATOM     23  C   UNL     1       7.428   4.603  14.167  0.00  0.00    +0.000 A 
ATOM     24  C   UNL     1       6.669   4.334  15.317  0.00  0.00    +0.000 A 
ATOM     25  C   UNL     1       5.449   3.666  15.182  0.00  0.00    +0.000 A 
ATOM     26  C   UNL     1       4.992   3.290  13.911  0.00  0.00    +0.000 A 
BRANCH  21  28
ATOM     27  C   UNL     1       3.797   3.629  11.164  0.00  0.00    +0.000 C 
ATOM     28  C   UNL     1       5.240   3.206  11.389  0.00  0.00    +0.000 C 
ENDBRANCH  21  28
ENDBRANCH  19  24
ENDBRANCH  18  19
ENDBRANCH  17  18
ENDBRANCH   1  17
TORSDOF 6
ENDMDL
