MODEL 1
REMARK VINA RESULT:      -5.3      0.000      0.000
REMARK  Name = 
REMARK  4 active torsions:
REMARK  status: ('A' for Active; 'I' for Inactive)
REMARK    1  A    between atoms: C_1  and  S_2
REMARK    2  A    between atoms: S_2  and  C_3
REMARK    3  A    between atoms: C_5  and  S_6
REMARK    4  A    between atoms: S_6  and  C_7
REMARK                            x       y       z     vdW  Elec       q    Type
REMARK                         _______ _______ _______ _____ _____    ______ ____
ROOT
ATOM      1  C   UNL     1       4.299   4.051  17.170  0.00  0.00    +0.000 A 
ATOM      2  C   UNL     1       4.711   4.085  15.844  0.00  0.00    +0.000 A 
ATOM      3  C   UNL     1       5.980   4.649  15.835  0.00  0.00    +0.000 A 
ATOM      4  N   UNL     1       6.343   4.956  17.098  0.00  0.00    +0.000 N 
ATOM      5  C   UNL     1       7.497   5.500  17.565  0.00  0.00    +0.000 A 
ATOM      6  C   UNL     1       7.623   5.685  18.950  0.00  0.00    +0.000 A 
ATOM      7  N   UNL     1       6.600   5.313  19.778  0.00  0.00    +0.000 NA
ATOM      8  C   UNL     1       5.451   4.764  19.292  0.00  0.00    +0.000 A 
ATOM      9  C   UNL     1       5.334   4.593  17.912  0.00  0.00    +0.000 A 
ENDROOT
BRANCH   1  11
ATOM     10  C   UNL     1       3.451   1.727  18.223  0.00  0.00    +0.000 C 
ATOM     11  S   UNL     1       2.760   3.355  17.790  0.00  0.00    +0.000 S 
ENDBRANCH   1  11
BRANCH   3  12
ATOM     12  S   UNL     1       7.029   4.834  14.382  0.00  0.00    +0.000 S 
ATOM     13  C   UNL     1       6.103   3.713  13.290  0.00  0.00    +0.000 C 
ENDBRANCH   3  12
TORSDOF 2
ENDMDL
MODEL 2
REMARK VINA RESULT:      -5.0      2.861      4.016
REMARK  Name = 
REMARK  4 active torsions:
REMARK  status: ('A' for Active; 'I' for Inactive)
REMARK    1  A    between atoms: C_1  and  S_2
REMARK    2  A    between atoms: S_2  and  C_3
REMARK    3  A    between atoms: C_5  and  S_6
REMARK    4  A    between atoms: S_6  and  C_7
REMARK                            x       y       z     vdW  Elec       q    Type
REMARK                         _______ _______ _______ _____ _____    ______ ____
ROOT
ATOM      1  C   UNL     1       3.437   6.488  17.882  0.00  0.00    +0.000 A 
ATOM      2  C   UNL     1       4.816   6.491  17.717  0.00  0.00    +0.000 A 
ATOM      3  C   UNL     1       5.201   5.167  17.561  0.00  0.00    +0.000 A 
ATOM      4  N   UNL     1       4.113   4.371  17.628  0.00  0.00    +0.000 N 
ATOM      5  C   UNL     1       4.011   3.022  17.508  0.00  0.00    +0.000 A 
ATOM      6  C   UNL     1       2.732   2.450  17.588  0.00  0.00    +0.000 A 
ATOM      7  N   UNL     1       1.642   3.255  17.776  0.00  0.00    +0.000 NA
ATOM      8  C   UNL     1       1.763   4.607  17.889  0.00  0.00    +0.000 A 
ATOM      9  C   UNL     1       3.041   5.164  17.817  0.00  0.00    +0.000 A 
ENDROOT
BRANCH   1  11
ATOM     10  C   UNL     1       2.043   7.712  19.829  0.00  0.00    +0.000 C 
ATOM     11  S   UNL     1       2.381   7.935  18.053  0.00  0.00    +0.000 S 
ENDBRANCH   1  11
BRANCH   3  12
ATOM     12  S   UNL     1       6.876   4.602  17.205  0.00  0.00    +0.000 S 
ATOM     13  C   UNL     1       6.725   4.574  15.393  0.00  0.00    +0.000 C 
ENDBRANCH   3  12
TORSDOF 2
ENDMDL
MODEL 3
REMARK VINA RESULT:      -5.0      2.669      4.183
REMARK  Name = 
REMARK  4 active torsions:
REMARK  status: ('A' for Active; 'I' for Inactive)
REMARK    1  A    between atoms: C_1  and  S_2
REMARK    2  A    between atoms: S_2  and  C_3
REMARK    3  A    between atoms: C_5  and  S_6
REMARK    4  A    between atoms: S_6  and  C_7
REMARK                            x       y       z     vdW  Elec       q    Type
REMARK                         _______ _______ _______ _____ _____    ______ ____
ROOT
ATOM      1  C   UNL     1       3.110   6.125  17.803  0.00  0.00    +0.000 A 
ATOM      2  C   UNL     1       2.511   4.919  18.146  0.00  0.00    +0.000 A 
ATOM      3  C   UNL     1       3.337   3.913  17.663  0.00  0.00    +0.000 A 
ATOM      4  N   UNL     1       4.402   4.465  17.044  0.00  0.00    +0.000 N 
ATOM      5  C   UNL     1       5.467   3.870  16.447  0.00  0.00    +0.000 A 
ATOM      6  C   UNL     1       6.462   4.697  15.902  0.00  0.00    +0.000 A 
ATOM      7  N   UNL     1       6.335   6.056  15.991  0.00  0.00    +0.000 NA
ATOM      8  C   UNL     1       5.261   6.635  16.599  0.00  0.00    +0.000 A 
ATOM      9  C   UNL     1       4.274   5.802  17.129  0.00  0.00    +0.000 A 
ENDROOT
BRANCH   1  11
ATOM     10  C   UNL     1       2.099   7.368  19.962  0.00  0.00    +0.000 C 
ATOM     11  S   UNL     1       2.520   7.768  18.237  0.00  0.00    +0.000 S 
ENDBRANCH   1  11
BRANCH   3  12
ATOM     12  S   UNL     1       3.091   2.147  17.924  0.00  0.00    +0.000 S 
ATOM     13  C   UNL     1       1.773   2.283  19.168  0.00  0.00    +0.000 C 
ENDBRANCH   3  12
TORSDOF 2
ENDMDL
MODEL 4
REMARK VINA RESULT:      -5.0      3.055      4.951
REMARK  Name = 
REMARK  4 active torsions:
REMARK  status: ('A' for Active; 'I' for Inactive)
REMARK    1  A    between atoms: C_1  and  S_2
REMARK    2  A    between atoms: S_2  and  C_3
REMARK    3  A    between atoms: C_5  and  S_6
REMARK    4  A    between atoms: S_6  and  C_7
REMARK                            x       y       z     vdW  Elec       q    Type
REMARK                         _______ _______ _______ _____ _____    ______ ____
ROOT
ATOM      1  C   UNL     1       4.327   4.645  17.040  0.00  0.00    +0.000 A 
ATOM      2  C   UNL     1       4.087   5.959  17.423  0.00  0.00    +0.000 A 
ATOM      3  C   UNL     1       3.012   5.926  18.300  0.00  0.00    +0.000 A 
ATOM      4  N   UNL     1       2.596   4.652  18.456  0.00  0.00    +0.000 N 
ATOM      5  C   UNL     1       1.599   4.148  19.228  0.00  0.00    +0.000 A 
ATOM      6  C   UNL     1       1.403   2.759  19.225  0.00  0.00    +0.000 A 
ATOM      7  N   UNL     1       2.212   1.964  18.461  0.00  0.00    +0.000 NA
ATOM      8  C   UNL     1       3.211   2.486  17.695  0.00  0.00    +0.000 A 
ATOM      9  C   UNL     1       3.391   3.870  17.700  0.00  0.00    +0.000 A 
ENDROOT
BRANCH   1  11
ATOM     10  C   UNL     1       7.016   4.633  17.038  0.00  0.00    +0.000 C 
ATOM     11  S   UNL     1       5.654   4.075  15.967  0.00  0.00    +0.000 S 
ENDBRANCH   1  11
BRANCH   3  12
ATOM     12  S   UNL     1       2.347   7.348  19.187  0.00  0.00    +0.000 S 
ATOM     13  C   UNL     1       2.358   8.511  17.791  0.00  0.00    +0.000 C 
ENDBRANCH   3  12
TORSDOF 2
ENDMDL
MODEL 5
REMARK VINA RESULT:      -4.9      3.093      4.335
REMARK  Name = 
REMARK  4 active torsions:
REMARK  status: ('A' for Active; 'I' for Inactive)
REMARK    1  A    between atoms: C_1  and  S_2
REMARK    2  A    between atoms: S_2  and  C_3
REMARK    3  A    between atoms: C_5  and  S_6
REMARK    4  A    between atoms: S_6  and  C_7
REMARK                            x       y       z     vdW  Elec       q    Type
REMARK                         _______ _______ _______ _____ _____    ______ ____
ROOT
ATOM      1  C   UNL     1       3.038   6.061  18.470  0.00  0.00    +0.000 A 
ATOM      2  C   UNL     1       4.128   6.071  17.609  0.00  0.00    +0.000 A 
ATOM      3  C   UNL     1       4.339   4.755  17.218  0.00  0.00    +0.000 A 
ATOM      4  N   UNL     1       3.425   3.959  17.811  0.00  0.00    +0.000 N 
ATOM      5  C   UNL     1       3.238   2.618  17.705  0.00  0.00    +0.000 A 
ATOM      6  C   UNL     1       2.174   2.044  18.417  0.00  0.00    +0.000 A 
ATOM      7  N   UNL     1       1.365   2.839  19.181  0.00  0.00    +0.000 NA
ATOM      8  C   UNL     1       1.564   4.184  19.272  0.00  0.00    +0.000 A 
ATOM      9  C   UNL     1       2.631   4.742  18.566  0.00  0.00    +0.000 A 
ENDROOT
BRANCH   1  11
ATOM     10  C   UNL     1       2.323   8.549  17.743  0.00  0.00    +0.000 C 
ATOM     11  S   UNL     1       2.267   7.498  19.229  0.00  0.00    +0.000 S 
ENDBRANCH   1  11
BRANCH   3  12
ATOM     12  S   UNL     1       5.565   4.208  16.016  0.00  0.00    +0.000 S 
ATOM     13  C   UNL     1       7.041   4.650  16.981  0.00  0.00    +0.000 C 
ENDBRANCH   3  12
TORSDOF 2
ENDMDL
MODEL 6
REMARK VINA RESULT:      -4.9      2.613      4.673
REMARK  Name = 
REMARK  4 active torsions:
REMARK  status: ('A' for Active; 'I' for Inactive)
REMARK    1  A    between atoms: C_1  and  S_2
REMARK    2  A    between atoms: S_2  and  C_3
REMARK    3  A    between atoms: C_5  and  S_6
REMARK    4  A    between atoms: S_6  and  C_7
REMARK                            x       y       z     vdW  Elec       q    Type
REMARK                         _______ _______ _______ _____ _____    ______ ____
ROOT
ATOM      1  C   UNL     1       4.662   4.239  17.227  0.00  0.00    +0.000 A 
ATOM      2  C   UNL     1       4.149   3.195  17.986  0.00  0.00    +0.000 A 
ATOM      3  C   UNL     1       3.219   3.753  18.853  0.00  0.00    +0.000 A 
ATOM      4  N   UNL     1       3.156   5.085  18.648  0.00  0.00    +0.000 N 
ATOM      5  C   UNL     1       2.378   6.023  19.246  0.00  0.00    +0.000 A 
ATOM      6  C   UNL     1       2.496   7.352  18.809  0.00  0.00    +0.000 A 
ATOM      7  N   UNL     1       3.373   7.658  17.805  0.00  0.00    +0.000 NA
ATOM      8  C   UNL     1       4.142   6.702  17.212  0.00  0.00    +0.000 A 
ATOM      9  C   UNL     1       4.022   5.386  17.662  0.00  0.00    +0.000 A 
ENDROOT
BRANCH   1  11
ATOM     10  C   UNL     1       7.308   4.568  16.877  0.00  0.00    +0.000 C 
ATOM     11  S   UNL     1       5.854   4.095  15.887  0.00  0.00    +0.000 S 
ENDBRANCH   1  11
BRANCH   3  12
ATOM     12  S   UNL     1       2.172   2.831  19.994  0.00  0.00    +0.000 S 
ATOM     13  C   UNL     1       0.837   2.451  18.819  0.00  0.00    +0.000 C 
ENDBRANCH   3  12
TORSDOF 2
ENDMDL
MODEL 7
REMARK VINA RESULT:      -4.8      2.774      4.093
REMARK  Name = 
REMARK  4 active torsions:
REMARK  status: ('A' for Active; 'I' for Inactive)
REMARK    1  A    between atoms: C_1  and  S_2
REMARK    2  A    between atoms: S_2  and  C_3
REMARK    3  A    between atoms: C_5  and  S_6
REMARK    4  A    between atoms: S_6  and  C_7
REMARK                            x       y       z     vdW  Elec       q    Type
REMARK                         _______ _______ _______ _____ _____    ______ ____
ROOT
ATOM      1  C   UNL     1       2.962   3.951  17.896  0.00  0.00    +0.000 A 
ATOM      2  C   UNL     1       2.249   5.032  18.400  0.00  0.00    +0.000 A 
ATOM      3  C   UNL     1       2.943   6.175  18.028  0.00  0.00    +0.000 A 
ATOM      4  N   UNL     1       4.042   5.825  17.327  0.00  0.00    +0.000 N 
ATOM      5  C   UNL     1       4.994   6.605  16.752  0.00  0.00    +0.000 A 
ATOM      6  C   UNL     1       6.025   5.969  16.044  0.00  0.00    +0.000 A 
ATOM      7  N   UNL     1       6.040   4.605  15.950  0.00  0.00    +0.000 NA
ATOM      8  C   UNL     1       5.073   3.838  16.529  0.00  0.00    +0.000 A 
ATOM      9  C   UNL     1       4.057   4.482  17.239  0.00  0.00    +0.000 A 
ENDROOT
BRANCH   1  11
ATOM     10  C   UNL     1       0.875   2.514  18.795  0.00  0.00    +0.000 C 
ATOM     11  S   UNL     1       2.490   2.219  18.008  0.00  0.00    +0.000 S 
ENDBRANCH   1  11
BRANCH   3  12
ATOM     12  S   UNL     1       2.404   7.868  18.330  0.00  0.00    +0.000 S 
ATOM     13  C   UNL     1       1.930   7.647  20.072  0.00  0.00    +0.000 C 
ENDBRANCH   3  12
TORSDOF 2
ENDMDL
MODEL 8
REMARK VINA RESULT:      -4.8      2.820      4.888
REMARK  Name = 
REMARK  4 active torsions:
REMARK  status: ('A' for Active; 'I' for Inactive)
REMARK    1  A    between atoms: C_1  and  S_2
REMARK    2  A    between atoms: S_2  and  C_3
REMARK    3  A    between atoms: C_5  and  S_6
REMARK    4  A    between atoms: S_6  and  C_7
REMARK                            x       y       z     vdW  Elec       q    Type
REMARK                         _______ _______ _______ _____ _____    ______ ____
ROOT
ATOM      1  C   UNL     1       5.313   5.265  17.363  0.00  0.00    +0.000 A 
ATOM      2  C   UNL     1       4.862   6.573  17.490  0.00  0.00    +0.000 A 
ATOM      3  C   UNL     1       3.498   6.501  17.738  0.00  0.00    +0.000 A 
ATOM      4  N   UNL     1       3.113   5.208  17.760  0.00  0.00    +0.000 N 
ATOM      5  C   UNL     1       1.888   4.667  17.986  0.00  0.00    +0.000 A 
ATOM      6  C   UNL     1       1.776   3.268  17.983  0.00  0.00    +0.000 A 
ATOM      7  N   UNL     1       2.887   2.501  17.763  0.00  0.00    +0.000 NA
ATOM      8  C   UNL     1       4.109   3.061  17.543  0.00  0.00    +0.000 A 
ATOM      9  C   UNL     1       4.206   4.454  17.539  0.00  0.00    +0.000 A 
ENDROOT
BRANCH   1  11
ATOM     10  C   UNL     1       6.892   4.569  15.301  0.00  0.00    +0.000 C 
ATOM     11  S   UNL     1       7.017   4.746  17.109  0.00  0.00    +0.000 S 
ENDBRANCH   1  11
BRANCH   3  12
ATOM     12  S   UNL     1       2.426   7.906  18.092  0.00  0.00    +0.000 S 
ATOM     13  C   UNL     1       2.146   7.540  19.850  0.00  0.00    +0.000 C 
ENDBRANCH   3  12
TORSDOF 2
ENDMDL
MODEL 9
REMARK VINA RESULT:      -4.8      2.537      3.088
REMARK  Name = 
REMARK  4 active torsions:
REMARK  status: ('A' for Active; 'I' for Inactive)
REMARK    1  A    between atoms: C_1  and  S_2
REMARK    2  A    between atoms: S_2  and  C_3
REMARK    3  A    between atoms: C_5  and  S_6
REMARK    4  A    between atoms: S_6  and  C_7
REMARK                            x       y       z     vdW  Elec       q    Type
REMARK                         _______ _______ _______ _____ _____    ______ ____
ROOT
ATOM      1  C   UNL     1       3.192   3.620  18.680  0.00  0.00    +0.000 A 
ATOM      2  C   UNL     1       4.155   3.132  17.806  0.00  0.00    +0.000 A 
ATOM      3  C   UNL     1       4.655   4.226  17.113  0.00  0.00    +0.000 A 
ATOM      4  N   UNL     1       4.030   5.346  17.531  0.00  0.00    +0.000 N 
ATOM      5  C   UNL     1       4.209   6.638  17.151  0.00  0.00    +0.000 A 
ATOM      6  C   UNL     1       3.435   7.623  17.782  0.00  0.00    +0.000 A 
ATOM      7  N   UNL     1       2.540   7.261  18.751  0.00  0.00    +0.000 NA
ATOM      8  C   UNL     1       2.377   5.961  19.124  0.00  0.00    +0.000 A 
ATOM      9  C   UNL     1       3.147   4.989  18.482  0.00  0.00    +0.000 A 
ENDROOT
BRANCH   1  11
ATOM     10  C   UNL     1       0.806   2.388  18.824  0.00  0.00    +0.000 C 
ATOM     11  S   UNL     1       2.261   2.660  19.884  0.00  0.00    +0.000 S 
ENDBRANCH   1  11
BRANCH   3  12
ATOM     12  S   UNL     1       6.010   4.178  15.925  0.00  0.00    +0.000 S 
ATOM     13  C   UNL     1       7.349   4.562  17.093  0.00  0.00    +0.000 C 
ENDBRANCH   3  12
TORSDOF 2
ENDMDL
