MODEL 1
REMARK VINA RESULT:      -7.4      0.000      0.000
REMARK  Name = 
REMARK  9 active torsions:
REMARK  status: ('A' for Active; 'I' for Inactive)
REMARK    1  A    between atoms: C_1  and  C_2
REMARK    2  A    between atoms: C_2  and  O_3
REMARK    3  A    between atoms: O_3  and  C_4
REMARK    4  A    between atoms: N_9  and  C_10
REMARK    5  A    between atoms: C_10  and  C_11
REMARK    6  A    between atoms: N_13  and  C_14
REMARK    7  A    between atoms: C_17  and  O_18
REMARK    8  A    between atoms: O_18  and  C_19
REMARK    9  A    between atoms: N_22  and  C_23
REMARK                            x       y       z     vdW  Elec       q    Type
REMARK                         _______ _______ _______ _____ _____    ______ ____
ROOT
ATOM      1  C   UNL     1       0.784  10.219  19.776  0.00  0.00    +0.000 A 
ATOM      2  C   UNL     1       1.033   9.109  20.595  0.00  0.00    +0.000 A 
ATOM      3  C   UNL     1       1.725   7.955  20.117  0.00  0.00    +0.000 A 
ATOM      4  C   UNL     1       2.188   7.889  18.804  0.00  0.00    +0.000 A 
ATOM      5  C   UNL     1       1.901   8.980  17.974  0.00  0.00    +0.000 A 
ATOM      6  C   UNL     1       1.211  10.124  18.446  0.00  0.00    +0.000 A 
ENDROOT
BRANCH   1   9
ATOM      7  C   UNL     1       0.712  12.483  20.899  0.00  0.00    +0.000 C 
ATOM      8  O   UNL     1       1.864  12.504  21.332  0.00  0.00    +0.000 OA
ATOM      9  N   UNL     1       0.150  11.432  20.189  0.00  0.00    +0.000 N 
ATOM     10  H   UNL     1      -0.814  11.579  19.908  0.00  0.00    +0.000 HD
BRANCH   7  11
ATOM     11  C   UNL     1      -0.173  13.759  21.059  0.00  0.00    +0.000 C 
BRANCH  11  17
ATOM     12  C   UNL     1      -4.676  14.474  23.349  0.00  0.00    +0.000 C 
ATOM     13  O   UNL     1      -5.155  15.599  23.421  0.00  0.00    +0.000 OA
ATOM     14  N   UNL     1      -3.498  14.196  22.689  0.00  0.00    +0.000 N 
ATOM     15  C   UNL     1      -2.786  15.280  22.022  0.00  0.00    +0.000 C 
ATOM     16  C   UNL     1      -1.342  15.375  22.538  0.00  0.00    +0.000 C 
ATOM     17  N   UNL     1      -0.590  14.110  22.449  0.00  0.00    +0.000 NA
ATOM     18  C   UNL     1      -1.369  13.007  23.078  0.00  0.00    +0.000 C 
ATOM     19  C   UNL     1      -2.849  12.890  22.640  0.00  0.00    +0.000 C 
BRANCH  12  20
ATOM     20  O   UNL     1      -5.213  13.388  23.968  0.00  0.00    +0.000 OA
BRANCH  20  22
ATOM     21  C   UNL     1      -7.584  13.384  24.268  0.00  0.00    +0.000 C 
ATOM     22  C   UNL     1      -6.438  12.913  23.390  0.00  0.00    +0.000 C 
ENDBRANCH  20  22
ENDBRANCH  12  20
ENDBRANCH  11  17
ENDBRANCH   7  11
ENDBRANCH   1   9
BRANCH   4  23
ATOM     23  O   UNL     1       2.852   6.841  18.195  0.00  0.00    +0.000 OA
BRANCH  23  24
ATOM     24  C   UNL     1       3.024   5.583  18.882  0.00  0.00    +0.000 C 
ATOM     25  C   UNL     1       4.497   5.356  19.262  0.00  0.00    +0.000 C 
ATOM     26  C   UNL     1       5.388   4.998  18.080  0.00  0.00    +0.000 C 
ATOM     27  N   UNL     1       4.943   3.788  17.356  0.00  0.00    +0.000 NA
ATOM     28  C   UNL     1       3.541   3.943  16.926  0.00  0.00    +0.000 C 
ATOM     29  C   UNL     1       2.562   4.393  18.031  0.00  0.00    +0.000 C 
BRANCH  27  30
ATOM     30  C   UNL     1       5.846   3.606  16.181  0.00  0.00    +0.000 C 
ATOM     31  C   UNL     1       5.310   4.457  14.999  0.00  0.00    +0.000 C 
ATOM     32  C   UNL     1       6.709   5.058  14.811  0.00  0.00    +0.000 C 
ATOM     33  C   UNL     1       7.085   4.532  16.206  0.00  0.00    +0.000 C 
ENDBRANCH  27  30
ENDBRANCH  23  24
ENDBRANCH   4  23
TORSDOF 8
ENDMDL
MODEL 2
REMARK VINA RESULT:      -7.3      2.364     11.947
REMARK  Name = 
REMARK  9 active torsions:
REMARK  status: ('A' for Active; 'I' for Inactive)
REMARK    1  A    between atoms: C_1  and  C_2
REMARK    2  A    between atoms: C_2  and  O_3
REMARK    3  A    between atoms: O_3  and  C_4
REMARK    4  A    between atoms: N_9  and  C_10
REMARK    5  A    between atoms: C_10  and  C_11
REMARK    6  A    between atoms: N_13  and  C_14
REMARK    7  A    between atoms: C_17  and  O_18
REMARK    8  A    between atoms: O_18  and  C_19
REMARK    9  A    between atoms: N_22  and  C_23
REMARK                            x       y       z     vdW  Elec       q    Type
REMARK                         _______ _______ _______ _____ _____    ______ ____
ROOT
ATOM      1  C   UNL     1       1.491   7.929  20.711  0.00  0.00    +0.000 A 
ATOM      2  C   UNL     1       0.713   8.160  21.854  0.00  0.00    +0.000 A 
ATOM      3  C   UNL     1      -0.180   9.270  21.950  0.00  0.00    +0.000 A 
ATOM      4  C   UNL     1      -0.318  10.173  20.896  0.00  0.00    +0.000 A 
ATOM      5  C   UNL     1       0.492   9.965  19.773  0.00  0.00    +0.000 A 
ATOM      6  C   UNL     1       1.382   8.868  19.679  0.00  0.00    +0.000 A 
ENDROOT
BRANCH   1   9
ATOM      7  C   UNL     1       2.031   5.470  20.474  0.00  0.00    +0.000 C 
ATOM      8  O   UNL     1       0.899   5.021  20.658  0.00  0.00    +0.000 OA
ATOM      9  N   UNL     1       2.366   6.815  20.512  0.00  0.00    +0.000 N 
ATOM     10  H   UNL     1       3.347   7.012  20.340  0.00  0.00    +0.000 HD
BRANCH   7  11
ATOM     11  C   UNL     1       3.171   4.485  20.066  0.00  0.00    +0.000 C 
BRANCH  11  17
ATOM     12  C   UNL     1       5.767   5.911  15.912  0.00  0.00    +0.000 C 
ATOM     13  O   UNL     1       5.298   6.751  15.154  0.00  0.00    +0.000 OA
ATOM     14  N   UNL     1       5.154   5.526  17.085  0.00  0.00    +0.000 N 
ATOM     15  C   UNL     1       3.895   6.154  17.467  0.00  0.00    +0.000 C 
ATOM     16  C   UNL     1       2.806   5.093  17.687  0.00  0.00    +0.000 C 
ATOM     17  N   UNL     1       3.185   4.036  18.643  0.00  0.00    +0.000 NA
ATOM     18  C   UNL     1       4.505   3.457  18.267  0.00  0.00    +0.000 C 
ATOM     19  C   UNL     1       5.633   4.477  17.980  0.00  0.00    +0.000 C 
BRANCH  12  20
ATOM     20  O   UNL     1       6.906   5.214  15.648  0.00  0.00    +0.000 OA
BRANCH  20  22
ATOM     21  C   UNL     1       6.158   3.821  13.855  0.00  0.00    +0.000 C 
ATOM     22  C   UNL     1       7.122   4.923  14.259  0.00  0.00    +0.000 C 
ENDBRANCH  20  22
ENDBRANCH  12  20
ENDBRANCH  11  17
ENDBRANCH   7  11
ENDBRANCH   1   9
BRANCH   4  23
ATOM     23  O   UNL     1      -1.121  11.296  20.848  0.00  0.00    +0.000 OA
BRANCH  23  24
ATOM     24  C   UNL     1      -0.677  12.542  21.430  0.00  0.00    +0.000 C 
ATOM     25  C   UNL     1      -1.191  12.693  22.872  0.00  0.00    +0.000 C 
ATOM     26  C   UNL     1      -2.677  13.012  22.965  0.00  0.00    +0.000 C 
ATOM     27  N   UNL     1      -3.058  14.246  22.244  0.00  0.00    +0.000 NA
ATOM     28  C   UNL     1      -2.627  14.163  20.837  0.00  0.00    +0.000 C 
ATOM     29  C   UNL     1      -1.153  13.757  20.624  0.00  0.00    +0.000 C 
BRANCH  27  30
ATOM     30  C   UNL     1      -4.540  14.388  22.343  0.00  0.00    +0.000 C 
ATOM     31  C   UNL     1      -5.177  13.958  20.995  0.00  0.00    +0.000 C 
ATOM     32  C   UNL     1      -6.142  13.040  21.755  0.00  0.00    +0.000 C 
ATOM     33  C   UNL     1      -5.236  13.169  22.991  0.00  0.00    +0.000 C 
ENDBRANCH  27  30
ENDBRANCH  23  24
ENDBRANCH   4  23
TORSDOF 8
ENDMDL
MODEL 3
REMARK VINA RESULT:      -7.3      1.793      3.172
REMARK  Name = 
REMARK  9 active torsions:
REMARK  status: ('A' for Active; 'I' for Inactive)
REMARK    1  A    between atoms: C_1  and  C_2
REMARK    2  A    between atoms: C_2  and  O_3
REMARK    3  A    between atoms: O_3  and  C_4
REMARK    4  A    between atoms: N_9  and  C_10
REMARK    5  A    between atoms: C_10  and  C_11
REMARK    6  A    between atoms: N_13  and  C_14
REMARK    7  A    between atoms: C_17  and  O_18
REMARK    8  A    between atoms: O_18  and  C_19
REMARK    9  A    between atoms: N_22  and  C_23
REMARK                            x       y       z     vdW  Elec       q    Type
REMARK                         _______ _______ _______ _____ _____    ______ ____
ROOT
ATOM      1  C   UNL     1       1.003   9.174  19.496  0.00  0.00    +0.000 A 
ATOM      2  C   UNL     1       1.578   9.259  18.221  0.00  0.00    +0.000 A 
ATOM      3  C   UNL     1       2.528   8.301  17.753  0.00  0.00    +0.000 A 
ATOM      4  C   UNL     1       2.920   7.230  18.554  0.00  0.00    +0.000 A 
ATOM      5  C   UNL     1       2.377   7.170  19.844  0.00  0.00    +0.000 A 
ATOM      6  C   UNL     1       1.439   8.122  20.311  0.00  0.00    +0.000 A 
ENDROOT
BRANCH   1   9
ATOM      7  C   UNL     1       0.171  11.048  20.977  0.00  0.00    +0.000 C 
ATOM      8  O   UNL     1       1.225  11.289  21.566  0.00  0.00    +0.000 OA
ATOM      9  N   UNL     1       0.007  10.056  20.020  0.00  0.00    +0.000 N 
ATOM     10  H   UNL     1      -0.929   9.992  19.634  0.00  0.00    +0.000 HD
BRANCH   7  11
ATOM     11  C   UNL     1      -1.059  11.975  21.229  0.00  0.00    +0.000 C 
BRANCH  11  17
ATOM     12  C   UNL     1      -4.363  15.159  23.459  0.00  0.00    +0.000 C 
ATOM     13  O   UNL     1      -4.116  16.356  23.518  0.00  0.00    +0.000 OA
ATOM     14  N   UNL     1      -3.551  14.250  22.815  0.00  0.00    +0.000 N 
ATOM     15  C   UNL     1      -2.344  14.726  22.150  0.00  0.00    +0.000 C 
ATOM     16  C   UNL     1      -1.106  13.987  22.682  0.00  0.00    +0.000 C 
ATOM     17  N   UNL     1      -1.210  12.518  22.611  0.00  0.00    +0.000 NA
ATOM     18  C   UNL     1      -2.482  12.064  23.239  0.00  0.00    +0.000 C 
ATOM     19  C   UNL     1      -3.762  12.807  22.784  0.00  0.00    +0.000 C 
BRANCH  12  20
ATOM     20  O   UNL     1      -5.427  14.581  24.080  0.00  0.00    +0.000 OA
BRANCH  20  22
ATOM     21  C   UNL     1      -7.759  14.057  24.065  0.00  0.00    +0.000 C 
ATOM     22  C   UNL     1      -6.708  15.075  23.659  0.00  0.00    +0.000 C 
ENDBRANCH  20  22
ENDBRANCH  12  20
ENDBRANCH  11  17
ENDBRANCH   7  11
ENDBRANCH   1   9
BRANCH   4  23
ATOM     23  O   UNL     1       3.835   6.241  18.251  0.00  0.00    +0.000 OA
BRANCH  23  24
ATOM     24  C   UNL     1       3.505   5.199  17.306  0.00  0.00    +0.000 C 
ATOM     25  C   UNL     1       2.016   4.828  17.389  0.00  0.00    +0.000 C 
ATOM     26  C   UNL     1       1.652   4.019  18.627  0.00  0.00    +0.000 C 
ATOM     27  N   UNL     1       2.415   2.757  18.748  0.00  0.00    +0.000 NA
ATOM     28  C   UNL     1       3.861   3.035  18.710  0.00  0.00    +0.000 C 
ATOM     29  C   UNL     1       4.329   3.926  17.540  0.00  0.00    +0.000 C 
BRANCH  27  30
ATOM     30  C   UNL     1       2.025   2.115  20.038  0.00  0.00    +0.000 C 
ATOM     31  C   UNL     1       3.095   2.454  21.110  0.00  0.00    +0.000 C 
ATOM     32  C   UNL     1       1.982   2.904  22.064  0.00  0.00    +0.000 C 
ATOM     33  C   UNL     1       1.020   2.951  20.865  0.00  0.00    +0.000 C 
ENDBRANCH  27  30
ENDBRANCH  23  24
ENDBRANCH   4  23
TORSDOF 8
ENDMDL
MODEL 4
REMARK VINA RESULT:      -7.1      7.985     10.432
REMARK  Name = 
REMARK  9 active torsions:
REMARK  status: ('A' for Active; 'I' for Inactive)
REMARK    1  A    between atoms: C_1  and  C_2
REMARK    2  A    between atoms: C_2  and  O_3
REMARK    3  A    between atoms: O_3  and  C_4
REMARK    4  A    between atoms: N_9  and  C_10
REMARK    5  A    between atoms: C_10  and  C_11
REMARK    6  A    between atoms: N_13  and  C_14
REMARK    7  A    between atoms: C_17  and  O_18
REMARK    8  A    between atoms: O_18  and  C_19
REMARK    9  A    between atoms: N_22  and  C_23
REMARK                            x       y       z     vdW  Elec       q    Type
REMARK                         _______ _______ _______ _____ _____    ______ ____
ROOT
ATOM      1  C   UNL     1       8.038   7.557  18.405  0.00  0.00    +0.000 A 
ATOM      2  C   UNL     1       7.220   7.565  17.266  0.00  0.00    +0.000 A 
ATOM      3  C   UNL     1       6.292   6.516  16.993  0.00  0.00    +0.000 A 
ATOM      4  C   UNL     1       6.157   5.433  17.861  0.00  0.00    +0.000 A 
ATOM      5  C   UNL     1       7.005   5.405  18.975  0.00  0.00    +0.000 A 
ATOM      6  C   UNL     1       7.930   6.442  19.245  0.00  0.00    +0.000 A 
ENDROOT
BRANCH   1   9
ATOM      7  C   UNL     1       8.888   9.937  18.455  0.00  0.00    +0.000 C 
ATOM      8  O   UNL     1       8.031  10.448  17.733  0.00  0.00    +0.000 OA
ATOM      9  N   UNL     1       8.951   8.591  18.780  0.00  0.00    +0.000 N 
ATOM     10  H   UNL     1       9.725   8.338  19.388  0.00  0.00    +0.000 HD
BRANCH   7  11
ATOM     11  C   UNL     1       9.932  10.866  19.151  0.00  0.00    +0.000 C 
BRANCH  11  17
ATOM     12  C   UNL     1      11.036  15.814  19.725  0.00  0.00    +0.000 C 
ATOM     13  O   UNL     1      11.825  16.169  20.591  0.00  0.00    +0.000 OA
ATOM     14  N   UNL     1      10.741  14.492  19.468  0.00  0.00    +0.000 N 
ATOM     15  C   UNL     1      11.407  13.453  20.246  0.00  0.00    +0.000 C 
ATOM     16  C   UNL     1      10.374  12.543  20.928  0.00  0.00    +0.000 C 
ATOM     17  N   UNL     1       9.384  11.963  20.002  0.00  0.00    +0.000 NA
ATOM     18  C   UNL     1       8.767  13.037  19.174  0.00  0.00    +0.000 C 
ATOM     19  C   UNL     1       9.754  14.022  18.502  0.00  0.00    +0.000 C 
BRANCH  12  20
ATOM     20  O   UNL     1      10.312  16.682  18.967  0.00  0.00    +0.000 OA
BRANCH  20  22
ATOM     21  C   UNL     1      11.944  17.028  17.255  0.00  0.00    +0.000 C 
ATOM     22  C   UNL     1      11.087  17.699  18.315  0.00  0.00    +0.000 C 
ENDBRANCH  20  22
ENDBRANCH  12  20
ENDBRANCH  11  17
ENDBRANCH   7  11
ENDBRANCH   1   9
BRANCH   4  23
ATOM     23  O   UNL     1       5.322   4.341  17.724  0.00  0.00    +0.000 OA
BRANCH  23  24
ATOM     24  C   UNL     1       4.084   4.451  16.988  0.00  0.00    +0.000 C 
ATOM     25  C   UNL     1       3.245   5.637  17.490  0.00  0.00    +0.000 C 
ATOM     26  C   UNL     1       2.587   5.396  18.843  0.00  0.00    +0.000 C 
ATOM     27  N   UNL     1       1.705   4.210  18.862  0.00  0.00    +0.000 NA
ATOM     28  C   UNL     1       2.451   3.017  18.423  0.00  0.00    +0.000 C 
ATOM     29  C   UNL     1       3.231   3.180  17.101  0.00  0.00    +0.000 C 
BRANCH  27  30
ATOM     30  C   UNL     1       1.201   4.044  20.258  0.00  0.00    +0.000 C 
ATOM     31  C   UNL     1       1.264   2.540  20.638  0.00  0.00    +0.000 C 
ATOM     32  C   UNL     1       1.999   2.909  21.932  0.00  0.00    +0.000 C 
ATOM     33  C   UNL     1       2.279   4.299  21.338  0.00  0.00    +0.000 C 
ENDBRANCH  27  30
ENDBRANCH  23  24
ENDBRANCH   4  23
TORSDOF 8
ENDMDL
MODEL 5
REMARK VINA RESULT:      -7.1      2.360      3.739
REMARK  Name = 
REMARK  9 active torsions:
REMARK  status: ('A' for Active; 'I' for Inactive)
REMARK    1  A    between atoms: C_1  and  C_2
REMARK    2  A    between atoms: C_2  and  O_3
REMARK    3  A    between atoms: O_3  and  C_4
REMARK    4  A    between atoms: N_9  and  C_10
REMARK    5  A    between atoms: C_10  and  C_11
REMARK    6  A    between atoms: N_13  and  C_14
REMARK    7  A    between atoms: C_17  and  O_18
REMARK    8  A    between atoms: O_18  and  C_19
REMARK    9  A    between atoms: N_22  and  C_23
REMARK                            x       y       z     vdW  Elec       q    Type
REMARK                         _______ _______ _______ _____ _____    ______ ____
ROOT
ATOM      1  C   UNL     1       0.986   9.708  19.226  0.00  0.00    +0.000 A 
ATOM      2  C   UNL     1       1.179   8.718  20.199  0.00  0.00    +0.000 A 
ATOM      3  C   UNL     1       2.054   7.610  19.988  0.00  0.00    +0.000 A 
ATOM      4  C   UNL     1       2.761   7.472  18.795  0.00  0.00    +0.000 A 
ATOM      5  C   UNL     1       2.534   8.438  17.807  0.00  0.00    +0.000 A 
ATOM      6  C   UNL     1       1.663   9.535  18.013  0.00  0.00    +0.000 A 
ENDROOT
BRANCH   1   9
ATOM      7  C   UNL     1      -1.166  11.024  19.049  0.00  0.00    +0.000 C 
ATOM      8  O   UNL     1      -1.862  10.156  18.520  0.00  0.00    +0.000 OA
ATOM      9  N   UNL     1       0.173  10.875  19.376  0.00  0.00    +0.000 N 
ATOM     10  H   UNL     1       0.597  11.692  19.806  0.00  0.00    +0.000 HD
BRANCH   7  11
ATOM     11  C   UNL     1      -1.840  12.363  19.486  0.00  0.00    +0.000 C 
BRANCH  11  17
ATOM     12  C   UNL     1      -1.615  15.175  23.736  0.00  0.00    +0.000 C 
ATOM     13  O   UNL     1      -0.903  14.822  24.668  0.00  0.00    +0.000 OA
ATOM     14  N   UNL     1      -1.675  14.502  22.535  0.00  0.00    +0.000 N 
ATOM     15  C   UNL     1      -0.841  13.322  22.340  0.00  0.00    +0.000 C 
ATOM     16  C   UNL     1      -1.703  12.110  21.952  0.00  0.00    +0.000 C 
ATOM     17  N   UNL     1      -2.574  12.345  20.786  0.00  0.00    +0.000 NA
ATOM     18  C   UNL     1      -3.365  13.592  20.981  0.00  0.00    +0.000 C 
ATOM     19  C   UNL     1      -2.562  14.838  21.426  0.00  0.00    +0.000 C 
BRANCH  12  20
ATOM     20  O   UNL     1      -2.476  16.226  23.807  0.00  0.00    +0.000 OA
BRANCH  20  22
ATOM     21  C   UNL     1      -4.601  16.799  24.739  0.00  0.00    +0.000 C 
ATOM     22  C   UNL     1      -3.188  16.336  25.048  0.00  0.00    +0.000 C 
ENDBRANCH  20  22
ENDBRANCH  12  20
ENDBRANCH  11  17
ENDBRANCH   7  11
ENDBRANCH   1   9
BRANCH   4  23
ATOM     23  O   UNL     1       3.624   6.453  18.440  0.00  0.00    +0.000 OA
BRANCH  23  24
ATOM     24  C   UNL     1       3.249   5.492  17.428  0.00  0.00    +0.000 C 
ATOM     25  C   UNL     1       1.777   5.073  17.581  0.00  0.00    +0.000 C 
ATOM     26  C   UNL     1       1.522   4.146  18.762  0.00  0.00    +0.000 C 
ATOM     27  N   UNL     1       2.318   2.900  18.712  0.00  0.00    +0.000 NA
ATOM     28  C   UNL     1       3.752   3.220  18.599  0.00  0.00    +0.000 C 
ATOM     29  C   UNL     1       4.114   4.226  17.486  0.00  0.00    +0.000 C 
BRANCH  27  30
ATOM     30  C   UNL     1       2.037   2.133  19.961  0.00  0.00    +0.000 C 
ATOM     31  C   UNL     1       3.133   2.462  21.009  0.00  0.00    +0.000 C 
ATOM     32  C   UNL     1       2.041   2.757  22.045  0.00  0.00    +0.000 C 
ATOM     33  C   UNL     1       1.020   2.829  20.897  0.00  0.00    +0.000 C 
ENDBRANCH  27  30
ENDBRANCH  23  24
ENDBRANCH   4  23
TORSDOF 8
ENDMDL
MODEL 6
REMARK VINA RESULT:      -7.1      3.160     11.096
REMARK  Name = 
REMARK  9 active torsions:
REMARK  status: ('A' for Active; 'I' for Inactive)
REMARK    1  A    between atoms: C_1  and  C_2
REMARK    2  A    between atoms: C_2  and  O_3
REMARK    3  A    between atoms: O_3  and  C_4
REMARK    4  A    between atoms: N_9  and  C_10
REMARK    5  A    between atoms: C_10  and  C_11
REMARK    6  A    between atoms: N_13  and  C_14
REMARK    7  A    between atoms: C_17  and  O_18
REMARK    8  A    between atoms: O_18  and  C_19
REMARK    9  A    between atoms: N_22  and  C_23
REMARK                            x       y       z     vdW  Elec       q    Type
REMARK                         _______ _______ _______ _____ _____    ______ ____
ROOT
ATOM      1  C   UNL     1       1.583   8.021  20.367  0.00  0.00    +0.000 A 
ATOM      2  C   UNL     1       0.808   8.400  21.473  0.00  0.00    +0.000 A 
ATOM      3  C   UNL     1      -0.035   9.551  21.447  0.00  0.00    +0.000 A 
ATOM      4  C   UNL     1      -0.126  10.349  20.308  0.00  0.00    +0.000 A 
ATOM      5  C   UNL     1       0.681   9.995  19.219  0.00  0.00    +0.000 A 
ATOM      6  C   UNL     1       1.522   8.856  19.245  0.00  0.00    +0.000 A 
ENDROOT
BRANCH   1   9
ATOM      7  C   UNL     1       2.020   5.532  20.420  0.00  0.00    +0.000 C 
ATOM      8  O   UNL     1       0.876   5.155  20.674  0.00  0.00    +0.000 OA
ATOM      9  N   UNL     1       2.409   6.857  20.290  0.00  0.00    +0.000 N 
ATOM     10  H   UNL     1       3.393   6.990  20.079  0.00  0.00    +0.000 HD
BRANCH   7  11
ATOM     11  C   UNL     1       3.112   4.458  20.115  0.00  0.00    +0.000 C 
BRANCH  11  17
ATOM     12  C   UNL     1       5.723   5.839  15.955  0.00  0.00    +0.000 C 
ATOM     13  O   UNL     1       5.230   6.624  15.155  0.00  0.00    +0.000 OA
ATOM     14  N   UNL     1       5.105   5.472  17.131  0.00  0.00    +0.000 N 
ATOM     15  C   UNL     1       3.810   6.055  17.464  0.00  0.00    +0.000 C 
ATOM     16  C   UNL     1       2.768   4.953  17.706  0.00  0.00    +0.000 C 
ATOM     17  N   UNL     1       3.177   3.954  18.712  0.00  0.00    +0.000 NA
ATOM     18  C   UNL     1       4.530   3.424  18.385  0.00  0.00    +0.000 C 
ATOM     19  C   UNL     1       5.614   4.485  18.077  0.00  0.00    +0.000 C 
BRANCH  12  20
ATOM     20  O   UNL     1       6.898   5.188  15.741  0.00  0.00    +0.000 OA
BRANCH  20  22
ATOM     21  C   UNL     1       6.197   3.785  13.936  0.00  0.00    +0.000 C 
ATOM     22  C   UNL     1       7.167   4.873  14.366  0.00  0.00    +0.000 C 
ENDBRANCH  20  22
ENDBRANCH  12  20
ENDBRANCH  11  17
ENDBRANCH   7  11
ENDBRANCH   1   9
BRANCH   4  23
ATOM     23  O   UNL     1      -0.878  11.496  20.139  0.00  0.00    +0.000 OA
BRANCH  23  24
ATOM     24  C   UNL     1      -0.747  12.602  21.058  0.00  0.00    +0.000 C 
ATOM     25  C   UNL     1      -1.335  13.891  20.460  0.00  0.00    +0.000 C 
ATOM     26  C   UNL     1      -0.473  14.510  19.367  0.00  0.00    +0.000 C 
ATOM     27  N   UNL     1       0.899  14.833  19.816  0.00  0.00    +0.000 NA
ATOM     28  C   UNL     1       1.545  13.632  20.374  0.00  0.00    +0.000 C 
ATOM     29  C   UNL     1       0.716  12.873  21.432  0.00  0.00    +0.000 C 
BRANCH  27  30
ATOM     30  C   UNL     1       1.651  15.346  18.633  0.00  0.00    +0.000 C 
ATOM     31  C   UNL     1       2.787  16.281  19.128  0.00  0.00    +0.000 C 
ATOM     32  C   UNL     1       3.789  15.504  18.266  0.00  0.00    +0.000 C 
ATOM     33  C   UNL     1       2.750  14.378  18.133  0.00  0.00    +0.000 C 
ENDBRANCH  27  30
ENDBRANCH  23  24
ENDBRANCH   4  23
TORSDOF 8
ENDMDL
MODEL 7
REMARK VINA RESULT:      -7.1      2.372     12.254
REMARK  Name = 
REMARK  9 active torsions:
REMARK  status: ('A' for Active; 'I' for Inactive)
REMARK    1  A    between atoms: C_1  and  C_2
REMARK    2  A    between atoms: C_2  and  O_3
REMARK    3  A    between atoms: O_3  and  C_4
REMARK    4  A    between atoms: N_9  and  C_10
REMARK    5  A    between atoms: C_10  and  C_11
REMARK    6  A    between atoms: N_13  and  C_14
REMARK    7  A    between atoms: C_17  and  O_18
REMARK    8  A    between atoms: O_18  and  C_19
REMARK    9  A    between atoms: N_22  and  C_23
REMARK                            x       y       z     vdW  Elec       q    Type
REMARK                         _______ _______ _______ _____ _____    ______ ____
ROOT
ATOM      1  C   UNL     1       1.343   8.156  20.806  0.00  0.00    +0.000 A 
ATOM      2  C   UNL     1       1.056   9.159  19.869  0.00  0.00    +0.000 A 
ATOM      3  C   UNL     1       0.151  10.225  20.155  0.00  0.00    +0.000 A 
ATOM      4  C   UNL     1      -0.486  10.314  21.392  0.00  0.00    +0.000 A 
ATOM      5  C   UNL     1      -0.232   9.288  22.311  0.00  0.00    +0.000 A 
ATOM      6  C   UNL     1       0.662   8.227  22.027  0.00  0.00    +0.000 A 
ENDROOT
BRANCH   1   9
ATOM      7  C   UNL     1       1.999   5.737  20.479  0.00  0.00    +0.000 C 
ATOM      8  O   UNL     1       0.875   5.238  20.537  0.00  0.00    +0.000 OA
ATOM      9  N   UNL     1       2.276   7.088  20.622  0.00  0.00    +0.000 N 
ATOM     10  H   UNL     1       3.259   7.329  20.548  0.00  0.00    +0.000 HD
BRANCH   7  11
ATOM     11  C   UNL     1       3.209   4.818  20.118  0.00  0.00    +0.000 C 
BRANCH  11  17
ATOM     12  C   UNL     1       5.734   6.137  15.886  0.00  0.00    +0.000 C 
ATOM     13  O   UNL     1       5.222   6.906  15.082  0.00  0.00    +0.000 OA
ATOM     14  N   UNL     1       5.140   5.789  17.080  0.00  0.00    +0.000 N 
ATOM     15  C   UNL     1       3.848   6.371  17.426  0.00  0.00    +0.000 C 
ATOM     16  C   UNL     1       2.817   5.268  17.708  0.00  0.00    +0.000 C 
ATOM     17  N   UNL     1       3.250   4.289  18.723  0.00  0.00    +0.000 NA
ATOM     18  C   UNL     1       4.599   3.760  18.381  0.00  0.00    +0.000 C 
ATOM     19  C   UNL     1       5.672   4.821  18.034  0.00  0.00    +0.000 C 
BRANCH  12  20
ATOM     20  O   UNL     1       6.909   5.488  15.662  0.00  0.00    +0.000 OA
BRANCH  20  22
ATOM     21  C   UNL     1       6.024   3.827  14.188  0.00  0.00    +0.000 C 
ATOM     22  C   UNL     1       7.047   4.939  14.343  0.00  0.00    +0.000 C 
ENDBRANCH  20  22
ENDBRANCH  12  20
ENDBRANCH  11  17
ENDBRANCH   7  11
ENDBRANCH   1   9
BRANCH   4  23
ATOM     23  O   UNL     1      -1.395  11.268  21.805  0.00  0.00    +0.000 OA
BRANCH  23  24
ATOM     24  C   UNL     1      -1.543  12.507  21.077  0.00  0.00    +0.000 C 
ATOM     25  C   UNL     1      -1.340  13.719  22.001  0.00  0.00    +0.000 C 
ATOM     26  C   UNL     1      -2.504  13.971  22.950  0.00  0.00    +0.000 C 
ATOM     27  N   UNL     1      -3.794  14.174  22.255  0.00  0.00    +0.000 NA
ATOM     28  C   UNL     1      -4.077  13.030  21.370  0.00  0.00    +0.000 C 
ATOM     29  C   UNL     1      -2.925  12.631  20.424  0.00  0.00    +0.000 C 
BRANCH  27  30
ATOM     30  C   UNL     1      -4.851  14.320  23.298  0.00  0.00    +0.000 C 
ATOM     31  C   UNL     1      -4.620  15.650  24.064  0.00  0.00    +0.000 C 
ATOM     32  C   UNL     1      -6.090  16.023  23.839  0.00  0.00    +0.000 C 
ATOM     33  C   UNL     1      -6.168  14.930  22.762  0.00  0.00    +0.000 C 
ENDBRANCH  27  30
ENDBRANCH  23  24
ENDBRANCH   4  23
TORSDOF 8
ENDMDL
MODEL 8
REMARK VINA RESULT:      -7.0      1.427      1.662
REMARK  Name = 
REMARK  9 active torsions:
REMARK  status: ('A' for Active; 'I' for Inactive)
REMARK    1  A    between atoms: C_1  and  C_2
REMARK    2  A    between atoms: C_2  and  O_3
REMARK    3  A    between atoms: O_3  and  C_4
REMARK    4  A    between atoms: N_9  and  C_10
REMARK    5  A    between atoms: C_10  and  C_11
REMARK    6  A    between atoms: N_13  and  C_14
REMARK    7  A    between atoms: C_17  and  O_18
REMARK    8  A    between atoms: O_18  and  C_19
REMARK    9  A    between atoms: N_22  and  C_23
REMARK                            x       y       z     vdW  Elec       q    Type
REMARK                         _______ _______ _______ _____ _____    ______ ____
ROOT
ATOM      1  C   UNL     1       1.404   9.553  19.950  0.00  0.00    +0.000 A 
ATOM      2  C   UNL     1       1.436   8.347  20.664  0.00  0.00    +0.000 A 
ATOM      3  C   UNL     1       1.788   7.110  20.045  0.00  0.00    +0.000 A 
ATOM      4  C   UNL     1       2.121   7.054  18.692  0.00  0.00    +0.000 A 
ATOM      5  C   UNL     1       2.046   8.251  17.970  0.00  0.00    +0.000 A 
ATOM      6  C   UNL     1       1.692   9.478  18.582  0.00  0.00    +0.000 A 
ENDROOT
BRANCH   1   9
ATOM      7  C   UNL     1       0.006  11.636  20.266  0.00  0.00    +0.000 C 
ATOM      8  O   UNL     1      -0.903  11.361  19.482  0.00  0.00    +0.000 OA
ATOM      9  N   UNL     1       1.116  10.840  20.503  0.00  0.00    +0.000 N 
ATOM     10  H   UNL     1       1.772  11.218  21.180  0.00  0.00    +0.000 HD
BRANCH   7  11
ATOM     11  C   UNL     1      -0.125  12.920  21.145  0.00  0.00    +0.000 C 
BRANCH  11  17
ATOM     12  C   UNL     1      -4.525  13.662  23.617  0.00  0.00    +0.000 C 
ATOM     13  O   UNL     1      -4.732  14.721  24.195  0.00  0.00    +0.000 OA
ATOM     14  N   UNL     1      -3.390  13.416  22.874  0.00  0.00    +0.000 N 
ATOM     15  C   UNL     1      -2.386  14.465  22.746  0.00  0.00    +0.000 C 
ATOM     16  C   UNL     1      -1.013  13.960  23.216  0.00  0.00    +0.000 C 
ATOM     17  N   UNL     1      -0.574  12.718  22.554  0.00  0.00    +0.000 NA
ATOM     18  C   UNL     1      -1.644  11.685  22.642  0.00  0.00    +0.000 C 
ATOM     19  C   UNL     1      -3.063  12.147  22.232  0.00  0.00    +0.000 C 
BRANCH  12  20
ATOM     20  O   UNL     1      -5.356  12.588  23.698  0.00  0.00    +0.000 OA
BRANCH  20  22
ATOM     21  C   UNL     1      -7.639  12.406  23.013  0.00  0.00    +0.000 C 
ATOM     22  C   UNL     1      -6.699  12.897  24.100  0.00  0.00    +0.000 C 
ENDBRANCH  20  22
ENDBRANCH  12  20
ENDBRANCH  11  17
ENDBRANCH   7  11
ENDBRANCH   1   9
BRANCH   4  23
ATOM     23  O   UNL     1       2.462   5.937  17.953  0.00  0.00    +0.000 OA
BRANCH  23  24
ATOM     24  C   UNL     1       2.898   4.727  18.610  0.00  0.00    +0.000 C 
ATOM     25  C   UNL     1       3.877   5.039  19.754  0.00  0.00    +0.000 C 
ATOM     26  C   UNL     1       5.264   5.454  19.280  0.00  0.00    +0.000 C 
ATOM     27  N   UNL     1       5.917   4.441  18.423  0.00  0.00    +0.000 NA
ATOM     28  C   UNL     1       5.050   4.111  17.278  0.00  0.00    +0.000 C 
ATOM     29  C   UNL     1       3.591   3.761  17.639  0.00  0.00    +0.000 C 
BRANCH  27  30
ATOM     30  C   UNL     1       7.219   5.009  17.964  0.00  0.00    +0.000 C 
ATOM     31  C   UNL     1       6.938   6.207  17.018  0.00  0.00    +0.000 C 
ATOM     32  C   UNL     1       7.907   7.068  17.837  0.00  0.00    +0.000 C 
ATOM     33  C   UNL     1       7.837   6.020  18.959  0.00  0.00    +0.000 C 
ENDBRANCH  27  30
ENDBRANCH  23  24
ENDBRANCH   4  23
TORSDOF 8
ENDMDL
MODEL 9
REMARK VINA RESULT:      -7.0      2.308     12.373
REMARK  Name = 
REMARK  9 active torsions:
REMARK  status: ('A' for Active; 'I' for Inactive)
REMARK    1  A    between atoms: C_1  and  C_2
REMARK    2  A    between atoms: C_2  and  O_3
REMARK    3  A    between atoms: O_3  and  C_4
REMARK    4  A    between atoms: N_9  and  C_10
REMARK    5  A    between atoms: C_10  and  C_11
REMARK    6  A    between atoms: N_13  and  C_14
REMARK    7  A    between atoms: C_17  and  O_18
REMARK    8  A    between atoms: O_18  and  C_19
REMARK    9  A    between atoms: N_22  and  C_23
REMARK                            x       y       z     vdW  Elec       q    Type
REMARK                         _______ _______ _______ _____ _____    ______ ____
ROOT
ATOM      1  C   UNL     1       1.318   8.609  20.492  0.00  0.00    +0.000 A 
ATOM      2  C   UNL     1       0.841   8.607  21.810  0.00  0.00    +0.000 A 
ATOM      3  C   UNL     1      -0.102   9.573  22.275  0.00  0.00    +0.000 A 
ATOM      4  C   UNL     1      -0.594  10.563  21.425  0.00  0.00    +0.000 A 
ATOM      5  C   UNL     1      -0.083  10.590  20.121  0.00  0.00    +0.000 A 
ATOM      6  C   UNL     1       0.856   9.636  19.660  0.00  0.00    +0.000 A 
ENDROOT
BRANCH   1   9
ATOM      7  C   UNL     1       2.254   6.283  20.167  0.00  0.00    +0.000 C 
ATOM      8  O   UNL     1       1.521   5.685  20.956  0.00  0.00    +0.000 OA
ATOM      9  N   UNL     1       2.218   7.649  19.931  0.00  0.00    +0.000 N 
ATOM     10  H   UNL     1       2.894   7.979  19.250  0.00  0.00    +0.000 HD
BRANCH   7  11
ATOM     11  C   UNL     1       3.236   5.454  19.281  0.00  0.00    +0.000 C 
BRANCH  11  17
ATOM     12  C   UNL     1       6.736   4.928  15.606  0.00  0.00    +0.000 C 
ATOM     13  O   UNL     1       7.524   5.836  15.377  0.00  0.00    +0.000 OA
ATOM     14  N   UNL     1       5.808   4.973  16.625  0.00  0.00    +0.000 N 
ATOM     15  C   UNL     1       5.765   6.144  17.493  0.00  0.00    +0.000 C 
ATOM     16  C   UNL     1       4.359   6.763  17.495  0.00  0.00    +0.000 C 
ATOM     17  N   UNL     1       3.286   5.810  17.832  0.00  0.00    +0.000 NA
ATOM     18  C   UNL     1       3.393   4.595  16.976  0.00  0.00    +0.000 C 
ATOM     19  C   UNL     1       4.799   3.953  16.890  0.00  0.00    +0.000 C 
BRANCH  12  20
ATOM     20  O   UNL     1       6.639   3.807  14.841  0.00  0.00    +0.000 OA
BRANCH  20  22
ATOM     21  C   UNL     1       5.617   3.356  12.728  0.00  0.00    +0.000 C 
ATOM     22  C   UNL     1       6.784   4.029  13.431  0.00  0.00    +0.000 C 
ENDBRANCH  20  22
ENDBRANCH  12  20
ENDBRANCH  11  17
ENDBRANCH   7  11
ENDBRANCH   1   9
BRANCH   4  23
ATOM     23  O   UNL     1      -1.488  11.570  21.732  0.00  0.00    +0.000 OA
BRANCH  23  24
ATOM     24  C   UNL     1      -1.566  12.100  23.073  0.00  0.00    +0.000 C 
ATOM     25  C   UNL     1      -3.013  12.075  23.595  0.00  0.00    +0.000 C 
ATOM     26  C   UNL     1      -3.910  13.135  22.969  0.00  0.00    +0.000 C 
ATOM     27  N   UNL     1      -3.410  14.513  23.161  0.00  0.00    +0.000 NA
ATOM     28  C   UNL     1      -2.031  14.627  22.652  0.00  0.00    +0.000 C 
ATOM     29  C   UNL     1      -1.054  13.543  23.155  0.00  0.00    +0.000 C 
BRANCH  27  30
ATOM     30  C   UNL     1      -4.329  15.434  22.430  0.00  0.00    +0.000 C 
ATOM     31  C   UNL     1      -3.507  16.628  21.876  0.00  0.00    +0.000 C 
ATOM     32  C   UNL     1      -4.129  16.401  20.493  0.00  0.00    +0.000 C 
ATOM     33  C   UNL     1      -4.589  15.012  20.964  0.00  0.00    +0.000 C 
ENDBRANCH  27  30
ENDBRANCH  23  24
ENDBRANCH   4  23
TORSDOF 8
ENDMDL
