MODEL 1
REMARK VINA RESULT:      -6.8      0.000      0.000
REMARK  Name = 
REMARK  5 active torsions:
REMARK  status: ('A' for Active; 'I' for Inactive)
REMARK    1  A    between atoms: C_1  and  C_2
REMARK    2  A    between atoms: C_2  and  C_8
REMARK    3  A    between atoms: N_3  and  N_4
REMARK    4  A    between atoms: N_4  and  C_5
REMARK    5  A    between atoms: C_5  and  N_6
REMARK                            x       y       z     vdW  Elec       q    Type
REMARK                         _______ _______ _______ _____ _____    ______ ____
ROOT
ATOM      1  C   UNL     1       7.141   6.408  17.837  0.00  0.00    +0.000 C 
ATOM      2  C   UNL     1       6.374   5.165  17.435  0.00  0.00    +0.000 C 
ATOM      3  N   UNL     1       6.553   4.448  16.360  0.00  0.00    +0.000 NA
ENDROOT
BRANCH   2   4
ATOM      4  C   UNL     1       5.343   4.738  18.365  0.00  0.00    +0.000 A 
ATOM      5  N   UNL     1       4.349   5.509  18.782  0.00  0.00    +0.000 NA
ATOM      6  C   UNL     1       3.621   4.727  19.646  0.00  0.00    +0.000 A 
ATOM      7  C   UNL     1       2.458   4.986  20.383  0.00  0.00    +0.000 A 
ATOM      8  C   UNL     1       1.977   3.953  21.194  0.00  0.00    +0.000 A 
ATOM      9  C   UNL     1       2.661   2.740  21.231  0.00  0.00    +0.000 A 
ATOM     10  N   UNL     1       3.777   2.436  20.522  0.00  0.00    +0.000 NA
ATOM     11  C   UNL     1       4.187   3.467  19.764  0.00  0.00    +0.000 A 
ATOM     12  N   UNL     1       5.264   3.487  18.930  0.00  0.00    +0.000 N 
ATOM     13  H   UNL     1       5.898   2.722  18.759  0.00  0.00    +0.000 HD
ENDBRANCH   2   4
BRANCH   3  14
ATOM     14  N   UNL     1       7.514   4.822  15.461  0.00  0.00    +0.000 N 
ATOM     15  H   UNL     1       8.425   5.146  15.762  0.00  0.00    +0.000 HD
BRANCH  14  16
ATOM     16  C   UNL     1       7.299   4.824  14.114  0.00  0.00    +0.000 C 
ATOM     17  S   UNL     1       6.138   3.866  13.416  0.00  0.00    +0.000 S 
BRANCH  16  18
ATOM     18  N   UNL     1       8.077   5.647  13.378  0.00  0.00    +0.000 N 
ATOM     19  H   UNL     1       7.627   6.190  12.655  0.00  0.00    +0.000 HD
ATOM     20  H   UNL     1       8.985   5.924  13.725  0.00  0.00    +0.000 HD
ENDBRANCH  16  18
ENDBRANCH  14  16
ENDBRANCH   3  14
TORSDOF 4
ENDMDL
MODEL 2
REMARK VINA RESULT:      -6.4      1.258      1.601
REMARK  Name = 
REMARK  5 active torsions:
REMARK  status: ('A' for Active; 'I' for Inactive)
REMARK    1  A    between atoms: C_1  and  C_2
REMARK    2  A    between atoms: C_2  and  C_8
REMARK    3  A    between atoms: N_3  and  N_4
REMARK    4  A    between atoms: N_4  and  C_5
REMARK    5  A    between atoms: C_5  and  N_6
REMARK                            x       y       z     vdW  Elec       q    Type
REMARK                         _______ _______ _______ _____ _____    ______ ____
ROOT
ATOM      1  C   UNL     1       7.439   4.835  18.195  0.00  0.00    +0.000 C 
ATOM      2  C   UNL     1       6.177   4.674  17.372  0.00  0.00    +0.000 C 
ATOM      3  N   UNL     1       6.051   4.863  16.088  0.00  0.00    +0.000 NA
ENDROOT
BRANCH   2   4
ATOM      4  C   UNL     1       4.998   4.254  18.110  0.00  0.00    +0.000 A 
ATOM      5  N   UNL     1       5.030   3.681  19.304  0.00  0.00    +0.000 NA
ATOM      6  C   UNL     1       3.716   3.442  19.629  0.00  0.00    +0.000 A 
ATOM      7  C   UNL     1       3.124   2.873  20.763  0.00  0.00    +0.000 A 
ATOM      8  C   UNL     1       1.730   2.762  20.764  0.00  0.00    +0.000 A 
ATOM      9  C   UNL     1       1.009   3.214  19.661  0.00  0.00    +0.000 A 
ATOM     10  N   UNL     1       1.535   3.788  18.550  0.00  0.00    +0.000 NA
ATOM     11  C   UNL     1       2.875   3.866  18.611  0.00  0.00    +0.000 A 
ATOM     12  N   UNL     1       3.704   4.395  17.668  0.00  0.00    +0.000 N 
ATOM     13  H   UNL     1       3.421   4.813  16.796  0.00  0.00    +0.000 HD
ENDBRANCH   2   4
BRANCH   3  14
ATOM     14  N   UNL     1       7.139   5.262  15.362  0.00  0.00    +0.000 N 
ATOM     15  H   UNL     1       7.887   5.802  15.780  0.00  0.00    +0.000 HD
BRANCH  14  16
ATOM     16  C   UNL     1       7.271   4.998  14.030  0.00  0.00    +0.000 C 
ATOM     17  S   UNL     1       6.312   3.881  13.265  0.00  0.00    +0.000 S 
BRANCH  16  18
ATOM     18  N   UNL     1       8.219   5.694  13.366  0.00  0.00    +0.000 N 
ATOM     19  H   UNL     1       9.162   5.656  13.726  0.00  0.00    +0.000 HD
ATOM     20  H   UNL     1       8.055   5.983  12.412  0.00  0.00    +0.000 HD
ENDBRANCH  16  18
ENDBRANCH  14  16
ENDBRANCH   3  14
TORSDOF 4
ENDMDL
MODEL 3
REMARK VINA RESULT:      -6.4      1.176      1.202
REMARK  Name = 
REMARK  5 active torsions:
REMARK  status: ('A' for Active; 'I' for Inactive)
REMARK    1  A    between atoms: C_1  and  C_2
REMARK    2  A    between atoms: C_2  and  C_8
REMARK    3  A    between atoms: N_3  and  N_4
REMARK    4  A    between atoms: N_4  and  C_5
REMARK    5  A    between atoms: C_5  and  N_6
REMARK                            x       y       z     vdW  Elec       q    Type
REMARK                         _______ _______ _______ _____ _____    ______ ____
ROOT
ATOM      1  C   UNL     1       4.876   6.932  16.456  0.00  0.00    +0.000 C 
ATOM      2  C   UNL     1       5.250   5.541  16.928  0.00  0.00    +0.000 C 
ATOM      3  N   UNL     1       6.294   4.848  16.569  0.00  0.00    +0.000 NA
ENDROOT
BRANCH   2   4
ATOM      4  C   UNL     1       4.341   4.942  17.890  0.00  0.00    +0.000 A 
ATOM      5  N   UNL     1       3.875   5.562  18.965  0.00  0.00    +0.000 NA
ATOM      6  C   UNL     1       3.070   4.644  19.594  0.00  0.00    +0.000 A 
ATOM      7  C   UNL     1       2.300   4.724  20.761  0.00  0.00    +0.000 A 
ATOM      8  C   UNL     1       1.595   3.577  21.138  0.00  0.00    +0.000 A 
ATOM      9  C   UNL     1       1.687   2.431  20.351  0.00  0.00    +0.000 A 
ATOM     10  N   UNL     1       2.403   2.310  19.204  0.00  0.00    +0.000 NA
ATOM     11  C   UNL     1       3.055   3.445  18.898  0.00  0.00    +0.000 A 
ATOM     12  N   UNL     1       3.849   3.660  17.812  0.00  0.00    +0.000 N 
ATOM     13  H   UNL     1       4.048   2.996  17.081  0.00  0.00    +0.000 HD
ENDBRANCH   2   4
BRANCH   3  14
ATOM     14  N   UNL     1       7.169   5.380  15.663  0.00  0.00    +0.000 N 
ATOM     15  H   UNL     1       7.832   6.100  15.925  0.00  0.00    +0.000 HD
BRANCH  14  16
ATOM     16  C   UNL     1       7.182   5.012  14.349  0.00  0.00    +0.000 C 
ATOM     17  S   UNL     1       6.122   3.884  13.751  0.00  0.00    +0.000 S 
BRANCH  16  18
ATOM     18  N   UNL     1       8.098   5.613  13.561  0.00  0.00    +0.000 N 
ATOM     19  H   UNL     1       8.885   6.056  14.014  0.00  0.00    +0.000 HD
ATOM     20  H   UNL     1       8.150   5.377  12.579  0.00  0.00    +0.000 HD
ENDBRANCH  16  18
ENDBRANCH  14  16
ENDBRANCH   3  14
TORSDOF 4
ENDMDL
MODEL 4
REMARK VINA RESULT:      -6.4      1.388      1.580
REMARK  Name = 
REMARK  5 active torsions:
REMARK  status: ('A' for Active; 'I' for Inactive)
REMARK    1  A    between atoms: C_1  and  C_2
REMARK    2  A    between atoms: C_2  and  C_8
REMARK    3  A    between atoms: N_3  and  N_4
REMARK    4  A    between atoms: N_4  and  C_5
REMARK    5  A    between atoms: C_5  and  N_6
REMARK                            x       y       z     vdW  Elec       q    Type
REMARK                         _______ _______ _______ _____ _____    ______ ____
ROOT
ATOM      1  C   UNL     1       6.026   6.748  17.214  0.00  0.00    +0.000 C 
ATOM      2  C   UNL     1       5.637   5.294  17.038  0.00  0.00    +0.000 C 
ATOM      3  N   UNL     1       6.215   4.419  16.263  0.00  0.00    +0.000 NA
ENDROOT
BRANCH   2   4
ATOM      4  C   UNL     1       4.506   4.849  17.832  0.00  0.00    +0.000 A 
ATOM      5  N   UNL     1       3.566   4.022  17.396  0.00  0.00    +0.000 NA
ATOM      6  C   UNL     1       2.694   3.875  18.448  0.00  0.00    +0.000 A 
ATOM      7  C   UNL     1       1.524   3.119  18.590  0.00  0.00    +0.000 A 
ATOM      8  C   UNL     1       0.854   3.210  19.814  0.00  0.00    +0.000 A 
ATOM      9  C   UNL     1       1.371   4.028  20.816  0.00  0.00    +0.000 A 
ATOM     10  N   UNL     1       2.510   4.762  20.733  0.00  0.00    +0.000 NA
ATOM     11  C   UNL     1       3.105   4.632  19.535  0.00  0.00    +0.000 A 
ATOM     12  N   UNL     1       4.263   5.225  19.132  0.00  0.00    +0.000 N 
ATOM     13  H   UNL     1       4.841   5.838  19.687  0.00  0.00    +0.000 HD
ENDBRANCH   2   4
BRANCH   3  14
ATOM     14  N   UNL     1       7.281   4.804  15.499  0.00  0.00    +0.000 N 
ATOM     15  H   UNL     1       8.142   5.136  15.917  0.00  0.00    +0.000 HD
BRANCH  14  16
ATOM     16  C   UNL     1       7.245   4.806  14.135  0.00  0.00    +0.000 C 
ATOM     17  S   UNL     1       6.189   3.844  13.290  0.00  0.00    +0.000 S 
BRANCH  16  18
ATOM     18  N   UNL     1       8.110   5.633  13.508  0.00  0.00    +0.000 N 
ATOM     19  H   UNL     1       7.726   6.298  12.852  0.00  0.00    +0.000 HD
ATOM     20  H   UNL     1       9.034   5.778  13.891  0.00  0.00    +0.000 HD
ENDBRANCH  16  18
ENDBRANCH  14  16
ENDBRANCH   3  14
TORSDOF 4
ENDMDL
MODEL 5
REMARK VINA RESULT:      -6.4      1.334      1.334
REMARK  Name = 
REMARK  5 active torsions:
REMARK  status: ('A' for Active; 'I' for Inactive)
REMARK    1  A    between atoms: C_1  and  C_2
REMARK    2  A    between atoms: C_2  and  C_8
REMARK    3  A    between atoms: N_3  and  N_4
REMARK    4  A    between atoms: N_4  and  C_5
REMARK    5  A    between atoms: C_5  and  N_6
REMARK                            x       y       z     vdW  Elec       q    Type
REMARK                         _______ _______ _______ _____ _____    ______ ____
ROOT
ATOM      1  C   UNL     1       7.473   4.708  17.689  0.00  0.00    +0.000 C 
ATOM      2  C   UNL     1       6.242   4.570  16.817  0.00  0.00    +0.000 C 
ATOM      3  N   UNL     1       6.174   4.745  15.527  0.00  0.00    +0.000 NA
ENDROOT
BRANCH   2   4
ATOM      4  C   UNL     1       5.023   4.191  17.511  0.00  0.00    +0.000 A 
ATOM      5  N   UNL     1       4.197   5.049  18.092  0.00  0.00    +0.000 NA
ATOM      6  C   UNL     1       3.193   4.281  18.630  0.00  0.00    +0.000 A 
ATOM      7  C   UNL     1       2.039   4.623  19.346  0.00  0.00    +0.000 A 
ATOM      8  C   UNL     1       1.219   3.572  19.769  0.00  0.00    +0.000 A 
ATOM      9  C   UNL     1       1.579   2.261  19.465  0.00  0.00    +0.000 A 
ATOM     10  N   UNL     1       2.674   1.881  18.758  0.00  0.00    +0.000 NA
ATOM     11  C   UNL     1       3.418   2.935  18.381  0.00  0.00    +0.000 A 
ATOM     12  N   UNL     1       4.570   2.901  17.655  0.00  0.00    +0.000 N 
ATOM     13  H   UNL     1       5.018   2.074  17.290  0.00  0.00    +0.000 HD
ENDBRANCH   2   4
BRANCH   3  14
ATOM     14  N   UNL     1       7.301   5.105  14.842  0.00  0.00    +0.000 N 
ATOM     15  H   UNL     1       8.095   5.526  15.310  0.00  0.00    +0.000 HD
BRANCH  14  16
ATOM     16  C   UNL     1       7.417   4.961  13.490  0.00  0.00    +0.000 C 
ATOM     17  S   UNL     1       6.541   3.825  12.657  0.00  0.00    +0.000 S 
BRANCH  16  18
ATOM     18  N   UNL     1       8.279   5.792  12.865  0.00  0.00    +0.000 N 
ATOM     19  H   UNL     1       9.096   5.380  12.437  0.00  0.00    +0.000 HD
ATOM     20  H   UNL     1       7.974   6.714  12.585  0.00  0.00    +0.000 HD
ENDBRANCH  16  18
ENDBRANCH  14  16
ENDBRANCH   3  14
TORSDOF 4
ENDMDL
MODEL 6
REMARK VINA RESULT:      -6.4      2.947      3.354
REMARK  Name = 
REMARK  5 active torsions:
REMARK  status: ('A' for Active; 'I' for Inactive)
REMARK    1  A    between atoms: C_1  and  C_2
REMARK    2  A    between atoms: C_2  and  C_8
REMARK    3  A    between atoms: N_3  and  N_4
REMARK    4  A    between atoms: N_4  and  C_5
REMARK    5  A    between atoms: C_5  and  N_6
REMARK                            x       y       z     vdW  Elec       q    Type
REMARK                         _______ _______ _______ _____ _____    ______ ____
ROOT
ATOM      1  C   UNL     1       7.165   4.719  16.351  0.00  0.00    +0.000 C 
ATOM      2  C   UNL     1       6.092   5.491  17.092  0.00  0.00    +0.000 C 
ATOM      3  N   UNL     1       6.114   6.757  17.404  0.00  0.00    +0.000 NA
ENDROOT
BRANCH   2   4
ATOM      4  C   UNL     1       4.922   4.722  17.478  0.00  0.00    +0.000 A 
ATOM      5  N   UNL     1       3.678   5.178  17.426  0.00  0.00    +0.000 NA
ATOM      6  C   UNL     1       2.893   4.147  17.882  0.00  0.00    +0.000 A 
ATOM      7  C   UNL     1       1.507   4.030  18.040  0.00  0.00    +0.000 A 
ATOM      8  C   UNL     1       1.026   2.822  18.555  0.00  0.00    +0.000 A 
ATOM      9  C   UNL     1       1.928   1.810  18.878  0.00  0.00    +0.000 A 
ATOM     10  N   UNL     1       3.275   1.869  18.724  0.00  0.00    +0.000 NA
ATOM     11  C   UNL     1       3.672   3.052  18.227  0.00  0.00    +0.000 A 
ATOM     12  N   UNL     1       4.951   3.429  17.945  0.00  0.00    +0.000 N 
ATOM     13  H   UNL     1       5.777   2.863  18.062  0.00  0.00    +0.000 HD
ENDBRANCH   2   4
BRANCH   3  14
ATOM     14  N   UNL     1       7.201   7.511  17.059  0.00  0.00    +0.000 N 
ATOM     15  H   UNL     1       7.469   7.645  16.092  0.00  0.00    +0.000 HD
BRANCH  14  16
ATOM     16  C   UNL     1       8.015   8.094  17.986  0.00  0.00    +0.000 C 
ATOM     17  S   UNL     1       8.390   9.709  17.923  0.00  0.00    +0.000 S 
BRANCH  16  18
ATOM     18  N   UNL     1       8.498   7.290  18.959  0.00  0.00    +0.000 N 
ATOM     19  H   UNL     1       9.179   7.683  19.592  0.00  0.00    +0.000 HD
ATOM     20  H   UNL     1       7.991   6.455  19.219  0.00  0.00    +0.000 HD
ENDBRANCH  16  18
ENDBRANCH  14  16
ENDBRANCH   3  14
TORSDOF 4
ENDMDL
MODEL 7
REMARK VINA RESULT:      -6.3      2.551      6.668
REMARK  Name = 
REMARK  5 active torsions:
REMARK  status: ('A' for Active; 'I' for Inactive)
REMARK    1  A    between atoms: C_1  and  C_2
REMARK    2  A    between atoms: C_2  and  C_8
REMARK    3  A    between atoms: N_3  and  N_4
REMARK    4  A    between atoms: N_4  and  C_5
REMARK    5  A    between atoms: C_5  and  N_6
REMARK                            x       y       z     vdW  Elec       q    Type
REMARK                         _______ _______ _______ _____ _____    ______ ____
ROOT
ATOM      1  C   UNL     1       6.524   5.873  18.488  0.00  0.00    +0.000 C 
ATOM      2  C   UNL     1       5.990   4.669  17.739  0.00  0.00    +0.000 C 
ATOM      3  N   UNL     1       5.285   3.690  18.233  0.00  0.00    +0.000 NA
ENDROOT
BRANCH   2   4
ATOM      4  C   UNL     1       6.300   4.627  16.321  0.00  0.00    +0.000 A 
ATOM      5  N   UNL     1       5.737   3.793  15.457  0.00  0.00    +0.000 NA
ATOM      6  C   UNL     1       6.316   4.079  14.245  0.00  0.00    +0.000 A 
ATOM      7  C   UNL     1       6.118   3.542  12.967  0.00  0.00    +0.000 A 
ATOM      8  C   UNL     1       6.900   4.062  11.931  0.00  0.00    +0.000 A 
ATOM      9  C   UNL     1       7.820   5.070  12.210  0.00  0.00    +0.000 A 
ATOM     10  N   UNL     1       8.034   5.636  13.425  0.00  0.00    +0.000 NA
ATOM     11  C   UNL     1       7.253   5.094  14.375  0.00  0.00    +0.000 A 
ATOM     12  N   UNL     1       7.214   5.440  15.692  0.00  0.00    +0.000 N 
ATOM     13  H   UNL     1       7.761   6.163  16.133  0.00  0.00    +0.000 HD
ENDBRANCH   2   4
BRANCH   3  14
ATOM     14  N   UNL     1       4.977   3.695  19.565  0.00  0.00    +0.000 N 
ATOM     15  H   UNL     1       5.226   4.473  20.165  0.00  0.00    +0.000 HD
BRANCH  14  16
ATOM     16  C   UNL     1       4.355   2.648  20.181  0.00  0.00    +0.000 C 
ATOM     17  S   UNL     1       2.748   2.707  20.589  0.00  0.00    +0.000 S 
BRANCH  16  18
ATOM     18  N   UNL     1       5.114   1.561  20.437  0.00  0.00    +0.000 N 
ATOM     19  H   UNL     1       5.050   1.155  21.360  0.00  0.00    +0.000 HD
ATOM     20  H   UNL     1       5.487   1.015  19.673  0.00  0.00    +0.000 HD
ENDBRANCH  16  18
ENDBRANCH  14  16
ENDBRANCH   3  14
TORSDOF 4
ENDMDL
MODEL 8
REMARK VINA RESULT:      -6.2      1.012      1.047
REMARK  Name = 
REMARK  5 active torsions:
REMARK  status: ('A' for Active; 'I' for Inactive)
REMARK    1  A    between atoms: C_1  and  C_2
REMARK    2  A    between atoms: C_2  and  C_8
REMARK    3  A    between atoms: N_3  and  N_4
REMARK    4  A    between atoms: N_4  and  C_5
REMARK    5  A    between atoms: C_5  and  N_6
REMARK                            x       y       z     vdW  Elec       q    Type
REMARK                         _______ _______ _______ _____ _____    ______ ____
ROOT
ATOM      1  C   UNL     1       7.591   5.204  18.198  0.00  0.00    +0.000 C 
ATOM      2  C   UNL     1       6.336   4.697  17.516  0.00  0.00    +0.000 C 
ATOM      3  N   UNL     1       6.166   4.498  16.239  0.00  0.00    +0.000 NA
ENDROOT
BRANCH   2   4
ATOM      4  C   UNL     1       5.222   4.398  18.399  0.00  0.00    +0.000 A 
ATOM      5  N   UNL     1       4.180   5.196  18.582  0.00  0.00    +0.000 NA
ATOM      6  C   UNL     1       3.379   4.546  19.489  0.00  0.00    +0.000 A 
ATOM      7  C   UNL     1       2.144   4.885  20.055  0.00  0.00    +0.000 A 
ATOM      8  C   UNL     1       1.598   3.987  20.977  0.00  0.00    +0.000 A 
ATOM      9  C   UNL     1       2.291   2.818  21.283  0.00  0.00    +0.000 A 
ATOM     10  N   UNL     1       3.479   2.436  20.748  0.00  0.00    +0.000 NA
ATOM     11  C   UNL     1       3.948   3.340  19.871  0.00  0.00    +0.000 A 
ATOM     12  N   UNL     1       5.104   3.256  19.155  0.00  0.00    +0.000 N 
ATOM     13  H   UNL     1       5.763   2.493  19.178  0.00  0.00    +0.000 HD
ENDBRANCH   2   4
BRANCH   3  14
ATOM     14  N   UNL     1       7.193   4.772  15.378  0.00  0.00    +0.000 N 
ATOM     15  H   UNL     1       8.063   5.178  15.701  0.00  0.00    +0.000 HD
BRANCH  14  16
ATOM     16  C   UNL     1       7.102   4.557  14.034  0.00  0.00    +0.000 C 
ATOM     17  S   UNL     1       8.035   5.401  12.952  0.00  0.00    +0.000 S 
BRANCH  16  18
ATOM     18  N   UNL     1       6.217   3.621  13.629  0.00  0.00    +0.000 N 
ATOM     19  H   UNL     1       5.299   3.937  13.350  0.00  0.00    +0.000 HD
ATOM     20  H   UNL     1       6.545   2.710  13.340  0.00  0.00    +0.000 HD
ENDBRANCH  16  18
ENDBRANCH  14  16
ENDBRANCH   3  14
TORSDOF 4
ENDMDL
MODEL 9
REMARK VINA RESULT:      -6.2      2.278      6.592
REMARK  Name = 
REMARK  5 active torsions:
REMARK  status: ('A' for Active; 'I' for Inactive)
REMARK    1  A    between atoms: C_1  and  C_2
REMARK    2  A    between atoms: C_2  and  C_8
REMARK    3  A    between atoms: N_3  and  N_4
REMARK    4  A    between atoms: N_4  and  C_5
REMARK    5  A    between atoms: C_5  and  N_6
REMARK                            x       y       z     vdW  Elec       q    Type
REMARK                         _______ _______ _______ _____ _____    ______ ____
ROOT
ATOM      1  C   UNL     1       6.734   5.664  18.785  0.00  0.00    +0.000 C 
ATOM      2  C   UNL     1       5.661   5.079  17.889  0.00  0.00    +0.000 C 
ATOM      3  N   UNL     1       4.453   4.735  18.238  0.00  0.00    +0.000 NA
ENDROOT
BRANCH   2   4
ATOM      4  C   UNL     1       6.038   4.901  16.498  0.00  0.00    +0.000 A 
ATOM      5  N   UNL     1       5.466   4.034  15.674  0.00  0.00    +0.000 NA
ATOM      6  C   UNL     1       6.121   4.184  14.476  0.00  0.00    +0.000 A 
ATOM      7  C   UNL     1       5.952   3.556  13.236  0.00  0.00    +0.000 A 
ATOM      8  C   UNL     1       6.815   3.941  12.205  0.00  0.00    +0.000 A 
ATOM      9  C   UNL     1       7.782   4.913  12.453  0.00  0.00    +0.000 A 
ATOM     10  N   UNL     1       7.971   5.564  13.629  0.00  0.00    +0.000 NA
ATOM     11  C   UNL     1       7.112   5.149  14.575  0.00  0.00    +0.000 A 
ATOM     12  N   UNL     1       7.030   5.605  15.856  0.00  0.00    +0.000 N 
ATOM     13  H   UNL     1       7.600   6.328  16.267  0.00  0.00    +0.000 HD
ENDBRANCH   2   4
BRANCH   3  14
ATOM     14  N   UNL     1       4.066   4.885  19.541  0.00  0.00    +0.000 N 
ATOM     15  H   UNL     1       4.735   5.090  20.273  0.00  0.00    +0.000 HD
BRANCH  14  16
ATOM     16  C   UNL     1       2.772   4.732  19.945  0.00  0.00    +0.000 C 
ATOM     17  S   UNL     1       1.642   3.986  18.986  0.00  0.00    +0.000 S 
BRANCH  16  18
ATOM     18  N   UNL     1       2.458   5.216  21.166  0.00  0.00    +0.000 N 
ATOM     19  H   UNL     1       3.206   5.301  21.840  0.00  0.00    +0.000 HD
ATOM     20  H   UNL     1       1.602   5.736  21.297  0.00  0.00    +0.000 HD
ENDBRANCH  16  18
ENDBRANCH  14  16
ENDBRANCH   3  14
TORSDOF 4
ENDMDL
