MODEL 1
REMARK VINA RESULT:      -8.5      0.000      0.000
REMARK  Name = 
REMARK  7 active torsions:
REMARK  status: ('A' for Active; 'I' for Inactive)
REMARK    1  A    between atoms: C_1  and  C_2
REMARK    2  A    between atoms: C_2  and  C_3
REMARK    3  A    between atoms: C_3  and  O_4
REMARK    4  A    between atoms: O_4  and  C_5
REMARK    5  A    between atoms: C_5  and  C_7
REMARK    6  A    between atoms: C_13  and  N_14
REMARK    7  A    between atoms: C_15  and  C_17
REMARK                            x       y       z     vdW  Elec       q    Type
REMARK                         _______ _______ _______ _____ _____    ______ ____
ROOT
ATOM      1  C   UNL     1       6.623   4.642  16.206  0.00  0.00    +0.000 A 
ATOM      2  C   UNL     1       7.408   4.648  15.033  0.00  0.00    +0.000 A 
ATOM      3  C   UNL     1       6.845   4.360  13.788  0.00  0.00    +0.000 A 
ATOM      4  C   UNL     1       5.490   4.076  13.708  0.00  0.00    +0.000 A 
ATOM      5 CL   UNL     1       4.785   3.697  12.184  0.00  0.00    +0.000 Cl
ATOM      6  C   UNL     1       4.699   4.080  14.855  0.00  0.00    +0.000 A 
ATOM      7  C   UNL     1       5.242   4.334  16.131  0.00  0.00    +0.000 A 
ENDROOT
BRANCH   7   8
ATOM      8  N   UNL     1       4.419   4.267  17.297  0.00  0.00    +0.000 N 
ATOM      9  C   UNL     1       3.845   3.109  17.808  0.00  0.00    +0.000 C 
ATOM     10  O   UNL     1       4.054   1.992  17.339  0.00  0.00    +0.000 OA
ATOM     11  H   UNL     1       4.348   5.122  17.841  0.00  0.00    +0.000 HD
BRANCH   9  12
ATOM     12  C   UNL     1       2.983   3.194  19.019  0.00  0.00    +0.000 A 
ATOM     13  C   UNL     1       1.727   3.799  19.032  0.00  0.00    +0.000 A 
ATOM     14  F   UNL     1       1.192   4.298  17.911  0.00  0.00    +0.000 F 
ATOM     15  C   UNL     1       0.978   3.902  20.210  0.00  0.00    +0.000 A 
ATOM     16  C   UNL     1       1.471   3.379  21.402  0.00  0.00    +0.000 A 
ATOM     17  C   UNL     1       2.708   2.745  21.407  0.00  0.00    +0.000 A 
ATOM     18  C   UNL     1       3.451   2.655  20.228  0.00  0.00    +0.000 A 
ATOM     19  F   UNL     1       4.627   2.022  20.311  0.00  0.00    +0.000 F 
ENDBRANCH   9  12
ENDBRANCH   7   8
BRANCH   1  20
ATOM     20  C   UNL     1       7.383   4.817  17.476  0.00  0.00    +0.000 C 
ATOM     21  O   UNL     1       8.305   4.085  17.807  0.00  0.00    +0.000 OA
BRANCH  20  22
ATOM     22  O   UNL     1       6.884   5.841  18.209  0.00  0.00    +0.000 OA
BRANCH  22  23
ATOM     23  C   UNL     1       7.821   6.881  18.524  0.00  0.00    +0.000 C 
BRANCH  23  25
ATOM     24  C   UNL     1       8.376   9.273  18.140  0.00  0.00    +0.000 C 
ATOM     25  C   UNL     1       7.766   8.023  17.522  0.00  0.00    +0.000 C 
ENDBRANCH  23  25
ENDBRANCH  22  23
ENDBRANCH  20  22
ENDBRANCH   1  20
TORSDOF 6
ENDMDL
MODEL 2
REMARK VINA RESULT:      -8.2      1.477      1.643
REMARK  Name = 
REMARK  7 active torsions:
REMARK  status: ('A' for Active; 'I' for Inactive)
REMARK    1  A    between atoms: C_1  and  C_2
REMARK    2  A    between atoms: C_2  and  C_3
REMARK    3  A    between atoms: C_3  and  O_4
REMARK    4  A    between atoms: O_4  and  C_5
REMARK    5  A    between atoms: C_5  and  C_7
REMARK    6  A    between atoms: C_13  and  N_14
REMARK    7  A    between atoms: C_15  and  C_17
REMARK                            x       y       z     vdW  Elec       q    Type
REMARK                         _______ _______ _______ _____ _____    ______ ____
ROOT
ATOM      1  C   UNL     1       6.677   4.875  16.376  0.00  0.00    +0.000 A 
ATOM      2  C   UNL     1       7.523   5.218  15.301  0.00  0.00    +0.000 A 
ATOM      3  C   UNL     1       7.276   4.743  14.011  0.00  0.00    +0.000 A 
ATOM      4  C   UNL     1       6.173   3.932  13.788  0.00  0.00    +0.000 A 
ATOM      5 CL   UNL     1       5.866   3.320  12.209  0.00  0.00    +0.000 Cl
ATOM      6  C   UNL     1       5.321   3.595  14.839  0.00  0.00    +0.000 A 
ATOM      7  C   UNL     1       5.561   4.031  16.157  0.00  0.00    +0.000 A 
ENDROOT
BRANCH   7   8
ATOM      8  N   UNL     1       4.705   3.617  17.225  0.00  0.00    +0.000 N 
ATOM      9  C   UNL     1       3.678   4.378  17.770  0.00  0.00    +0.000 C 
ATOM     10  O   UNL     1       3.350   5.477  17.329  0.00  0.00    +0.000 OA
ATOM     11  H   UNL     1       4.799   2.650  17.520  0.00  0.00    +0.000 HD
BRANCH   9  12
ATOM     12  C   UNL     1       2.883   3.827  18.902  0.00  0.00    +0.000 A 
ATOM     13  C   UNL     1       2.820   4.420  20.162  0.00  0.00    +0.000 A 
ATOM     14  F   UNL     1       3.444   5.578  20.409  0.00  0.00    +0.000 F 
ATOM     15  C   UNL     1       2.101   3.834  21.211  0.00  0.00    +0.000 A 
ATOM     16  C   UNL     1       1.412   2.642  21.007  0.00  0.00    +0.000 A 
ATOM     17  C   UNL     1       1.436   2.048  19.751  0.00  0.00    +0.000 A 
ATOM     18  C   UNL     1       2.162   2.637  18.714  0.00  0.00    +0.000 A 
ATOM     19  F   UNL     1       2.129   2.011  17.531  0.00  0.00    +0.000 F 
ENDBRANCH   9  12
ENDBRANCH   7   8
BRANCH   1  20
ATOM     20  C   UNL     1       7.146   5.327  17.717  0.00  0.00    +0.000 C 
ATOM     21  O   UNL     1       7.594   4.561  18.560  0.00  0.00    +0.000 OA
BRANCH  20  22
ATOM     22  O   UNL     1       6.960   6.659  17.878  0.00  0.00    +0.000 OA
BRANCH  22  23
ATOM     23  C   UNL     1       8.128   7.396  18.266  0.00  0.00    +0.000 C 
BRANCH  23  25
ATOM     24  C   UNL     1       8.897   9.712  18.743  0.00  0.00    +0.000 C 
ATOM     25  C   UNL     1       8.069   8.844  17.806  0.00  0.00    +0.000 C 
ENDBRANCH  23  25
ENDBRANCH  22  23
ENDBRANCH  20  22
ENDBRANCH   1  20
TORSDOF 6
ENDMDL
MODEL 3
REMARK VINA RESULT:      -8.1      0.512      1.762
REMARK  Name = 
REMARK  7 active torsions:
REMARK  status: ('A' for Active; 'I' for Inactive)
REMARK    1  A    between atoms: C_1  and  C_2
REMARK    2  A    between atoms: C_2  and  C_3
REMARK    3  A    between atoms: C_3  and  O_4
REMARK    4  A    between atoms: O_4  and  C_5
REMARK    5  A    between atoms: C_5  and  C_7
REMARK    6  A    between atoms: C_13  and  N_14
REMARK    7  A    between atoms: C_15  and  C_17
REMARK                            x       y       z     vdW  Elec       q    Type
REMARK                         _______ _______ _______ _____ _____    ______ ____
ROOT
ATOM      1  C   UNL     1       6.618   4.823  16.301  0.00  0.00    +0.000 A 
ATOM      2  C   UNL     1       7.406   4.861  15.131  0.00  0.00    +0.000 A 
ATOM      3  C   UNL     1       6.878   4.483  13.895  0.00  0.00    +0.000 A 
ATOM      4  C   UNL     1       5.554   4.076  13.820  0.00  0.00    +0.000 A 
ATOM      5 CL   UNL     1       4.893   3.586  12.308  0.00  0.00    +0.000 Cl
ATOM      6  C   UNL     1       4.759   4.046  14.965  0.00  0.00    +0.000 A 
ATOM      7  C   UNL     1       5.271   4.389  16.233  0.00  0.00    +0.000 A 
ENDROOT
BRANCH   7   8
ATOM      8  N   UNL     1       4.450   4.287  17.398  0.00  0.00    +0.000 N 
ATOM      9  C   UNL     1       3.870   3.115  17.870  0.00  0.00    +0.000 C 
ATOM     10  O   UNL     1       4.070   2.015  17.361  0.00  0.00    +0.000 OA
ATOM     11  H   UNL     1       4.387   5.122  17.973  0.00  0.00    +0.000 HD
BRANCH   9  12
ATOM     12  C   UNL     1       3.013   3.163  19.086  0.00  0.00    +0.000 A 
ATOM     13  C   UNL     1       3.417   2.693  20.335  0.00  0.00    +0.000 A 
ATOM     14  F   UNL     1       4.652   2.211  20.521  0.00  0.00    +0.000 F 
ATOM     15  C   UNL     1       2.554   2.710  21.437  0.00  0.00    +0.000 A 
ATOM     16  C   UNL     1       1.266   3.221  21.310  0.00  0.00    +0.000 A 
ATOM     17  C   UNL     1       0.851   3.724  20.082  0.00  0.00    +0.000 A 
ATOM     18  C   UNL     1       1.717   3.695  18.988  0.00  0.00    +0.000 A 
ATOM     19  F   UNL     1       1.249   4.206  17.842  0.00  0.00    +0.000 F 
ENDBRANCH   9  12
ENDBRANCH   7   8
BRANCH   1  20
ATOM     20  C   UNL     1       7.353   5.106  17.567  0.00  0.00    +0.000 C 
ATOM     21  O   UNL     1       7.329   4.357  18.533  0.00  0.00    +0.000 OA
BRANCH  20  22
ATOM     22  O   UNL     1       7.987   6.302  17.508  0.00  0.00    +0.000 OA
BRANCH  22  23
ATOM     23  C   UNL     1       7.176   7.440  17.833  0.00  0.00    +0.000 C 
BRANCH  23  25
ATOM     24  C   UNL     1       8.730   9.171  18.710  0.00  0.00    +0.000 C 
ATOM     25  C   UNL     1       7.879   8.751  17.520  0.00  0.00    +0.000 C 
ENDBRANCH  23  25
ENDBRANCH  22  23
ENDBRANCH  20  22
ENDBRANCH   1  20
TORSDOF 6
ENDMDL
MODEL 4
REMARK VINA RESULT:      -8.1      0.986      1.944
REMARK  Name = 
REMARK  7 active torsions:
REMARK  status: ('A' for Active; 'I' for Inactive)
REMARK    1  A    between atoms: C_1  and  C_2
REMARK    2  A    between atoms: C_2  and  C_3
REMARK    3  A    between atoms: C_3  and  O_4
REMARK    4  A    between atoms: O_4  and  C_5
REMARK    5  A    between atoms: C_5  and  C_7
REMARK    6  A    between atoms: C_13  and  N_14
REMARK    7  A    between atoms: C_15  and  C_17
REMARK                            x       y       z     vdW  Elec       q    Type
REMARK                         _______ _______ _______ _____ _____    ______ ____
ROOT
ATOM      1  C   UNL     1       6.739   4.477  16.040  0.00  0.00    +0.000 A 
ATOM      2  C   UNL     1       7.519   4.805  14.911  0.00  0.00    +0.000 A 
ATOM      3  C   UNL     1       7.063   4.538  13.618  0.00  0.00    +0.000 A 
ATOM      4  C   UNL     1       5.818   3.953  13.447  0.00  0.00    +0.000 A 
ATOM      5 CL   UNL     1       5.249   3.598  11.862  0.00  0.00    +0.000 Cl
ATOM      6  C   UNL     1       5.029   3.636  14.553  0.00  0.00    +0.000 A 
ATOM      7  C   UNL     1       5.475   3.861  15.871  0.00  0.00    +0.000 A 
ENDROOT
BRANCH   7   8
ATOM      8  N   UNL     1       4.672   3.466  16.985  0.00  0.00    +0.000 N 
ATOM      9  C   UNL     1       3.774   4.287  17.657  0.00  0.00    +0.000 C 
ATOM     10  O   UNL     1       3.522   5.437  17.304  0.00  0.00    +0.000 OA
ATOM     11  H   UNL     1       4.692   2.479  17.220  0.00  0.00    +0.000 HD
BRANCH   9  12
ATOM     12  C   UNL     1       3.022   3.747  18.823  0.00  0.00    +0.000 A 
ATOM     13  C   UNL     1       3.634   3.237  19.967  0.00  0.00    +0.000 A 
ATOM     14  F   UNL     1       4.965   3.259  20.103  0.00  0.00    +0.000 F 
ATOM     15  C   UNL     1       2.884   2.689  21.014  0.00  0.00    +0.000 A 
ATOM     16  C   UNL     1       1.494   2.660  20.941  0.00  0.00    +0.000 A 
ATOM     17  C   UNL     1       0.861   3.191  19.823  0.00  0.00    +0.000 A 
ATOM     18  C   UNL     1       1.618   3.727  18.780  0.00  0.00    +0.000 A 
ATOM     19  F   UNL     1       0.937   4.227  17.742  0.00  0.00    +0.000 F 
ENDBRANCH   9  12
ENDBRANCH   7   8
BRANCH   1  20
ATOM     20  C   UNL     1       7.414   4.678  17.353  0.00  0.00    +0.000 C 
ATOM     21  O   UNL     1       8.374   4.015  17.718  0.00  0.00    +0.000 OA
BRANCH  20  22
ATOM     22  O   UNL     1       6.793   5.637  18.082  0.00  0.00    +0.000 OA
BRANCH  22  23
ATOM     23  C   UNL     1       7.589   6.230  19.117  0.00  0.00    +0.000 C 
BRANCH  23  25
ATOM     24  C   UNL     1       7.562   8.103  17.483  0.00  0.00    +0.000 C 
ATOM     25  C   UNL     1       8.330   7.466  18.633  0.00  0.00    +0.000 C 
ENDBRANCH  23  25
ENDBRANCH  22  23
ENDBRANCH  20  22
ENDBRANCH   1  20
TORSDOF 6
ENDMDL
MODEL 5
REMARK VINA RESULT:      -8.0      1.462      1.516
REMARK  Name = 
REMARK  7 active torsions:
REMARK  status: ('A' for Active; 'I' for Inactive)
REMARK    1  A    between atoms: C_1  and  C_2
REMARK    2  A    between atoms: C_2  and  C_3
REMARK    3  A    between atoms: C_3  and  O_4
REMARK    4  A    between atoms: O_4  and  C_5
REMARK    5  A    between atoms: C_5  and  C_7
REMARK    6  A    between atoms: C_13  and  N_14
REMARK    7  A    between atoms: C_15  and  C_17
REMARK                            x       y       z     vdW  Elec       q    Type
REMARK                         _______ _______ _______ _____ _____    ______ ____
ROOT
ATOM      1  C   UNL     1       6.641   4.772  16.094  0.00  0.00    +0.000 A 
ATOM      2  C   UNL     1       7.423   5.077  14.960  0.00  0.00    +0.000 A 
ATOM      3  C   UNL     1       7.066   4.609  13.693  0.00  0.00    +0.000 A 
ATOM      4  C   UNL     1       5.919   3.844  13.552  0.00  0.00    +0.000 A 
ATOM      5 CL   UNL     1       5.477   3.242  12.002  0.00  0.00    +0.000 Cl
ATOM      6  C   UNL     1       5.129   3.546  14.662  0.00  0.00    +0.000 A 
ATOM      7  C   UNL     1       5.479   3.974  15.958  0.00  0.00    +0.000 A 
ENDROOT
BRANCH   7   8
ATOM      8  N   UNL     1       4.684   3.599  17.085  0.00  0.00    +0.000 N 
ATOM      9  C   UNL     1       3.682   4.376  17.654  0.00  0.00    +0.000 C 
ATOM     10  O   UNL     1       3.322   5.455  17.187  0.00  0.00    +0.000 OA
ATOM     11  H   UNL     1       4.800   2.645  17.414  0.00  0.00    +0.000 HD
BRANCH   9  12
ATOM     12  C   UNL     1       2.951   3.867  18.847  0.00  0.00    +0.000 A 
ATOM     13  C   UNL     1       2.175   2.709  18.841  0.00  0.00    +0.000 A 
ATOM     14  F   UNL     1       2.090   1.944  17.746  0.00  0.00    +0.000 F 
ATOM     15  C   UNL     1       1.463   2.300  19.975  0.00  0.00    +0.000 A 
ATOM     16  C   UNL     1       1.532   3.042  21.151  0.00  0.00    +0.000 A 
ATOM     17  C   UNL     1       2.324   4.184  21.189  0.00  0.00    +0.000 A 
ATOM     18  C   UNL     1       3.023   4.587  20.050  0.00  0.00    +0.000 A 
ATOM     19  F   UNL     1       3.772   5.691  20.168  0.00  0.00    +0.000 F 
ENDBRANCH   9  12
ENDBRANCH   7   8
BRANCH   1  20
ATOM     20  C   UNL     1       7.222   5.207  17.396  0.00  0.00    +0.000 C 
ATOM     21  O   UNL     1       6.988   4.638  18.453  0.00  0.00    +0.000 OA
BRANCH  20  22
ATOM     22  O   UNL     1       7.979   6.321  17.247  0.00  0.00    +0.000 OA
BRANCH  22  23
ATOM     23  C   UNL     1       7.892   7.267  18.323  0.00  0.00    +0.000 C 
BRANCH  23  25
ATOM     24  C   UNL     1       8.854   9.502  18.828  0.00  0.00    +0.000 C 
ATOM     25  C   UNL     1       8.026   8.701  17.835  0.00  0.00    +0.000 C 
ENDBRANCH  23  25
ENDBRANCH  22  23
ENDBRANCH  20  22
ENDBRANCH   1  20
TORSDOF 6
ENDMDL
MODEL 6
REMARK VINA RESULT:      -7.9      1.338      1.678
REMARK  Name = 
REMARK  7 active torsions:
REMARK  status: ('A' for Active; 'I' for Inactive)
REMARK    1  A    between atoms: C_1  and  C_2
REMARK    2  A    between atoms: C_2  and  C_3
REMARK    3  A    between atoms: C_3  and  O_4
REMARK    4  A    between atoms: O_4  and  C_5
REMARK    5  A    between atoms: C_5  and  C_7
REMARK    6  A    between atoms: C_13  and  N_14
REMARK    7  A    between atoms: C_15  and  C_17
REMARK                            x       y       z     vdW  Elec       q    Type
REMARK                         _______ _______ _______ _____ _____    ______ ____
ROOT
ATOM      1  C   UNL     1       6.584   5.242  15.769  0.00  0.00    +0.000 A 
ATOM      2  C   UNL     1       7.487   5.118  14.693  0.00  0.00    +0.000 A 
ATOM      3  C   UNL     1       7.122   4.454  13.519  0.00  0.00    +0.000 A 
ATOM      4  C   UNL     1       5.846   3.923  13.412  0.00  0.00    +0.000 A 
ATOM      5 CL   UNL     1       5.387   3.084  11.981  0.00  0.00    +0.000 Cl
ATOM      6  C   UNL     1       4.937   4.050  14.462  0.00  0.00    +0.000 A 
ATOM      7  C   UNL     1       5.286   4.684  15.672  0.00  0.00    +0.000 A 
ENDROOT
BRANCH   7   8
ATOM      8  N   UNL     1       4.355   4.742  16.754  0.00  0.00    +0.000 N 
ATOM      9  C   UNL     1       4.055   3.689  17.611  0.00  0.00    +0.000 C 
ATOM     10  O   UNL     1       4.629   2.603  17.567  0.00  0.00    +0.000 OA
ATOM     11  H   UNL     1       3.974   5.660  16.965  0.00  0.00    +0.000 HD
BRANCH   9  12
ATOM     12  C   UNL     1       3.040   3.886  18.682  0.00  0.00    +0.000 A 
ATOM     13  C   UNL     1       3.165   4.831  19.700  0.00  0.00    +0.000 A 
ATOM     14  F   UNL     1       4.207   5.670  19.736  0.00  0.00    +0.000 F 
ATOM     15  C   UNL     1       2.209   4.940  20.717  0.00  0.00    +0.000 A 
ATOM     16  C   UNL     1       1.090   4.111  20.719  0.00  0.00    +0.000 A 
ATOM     17  C   UNL     1       0.930   3.183  19.697  0.00  0.00    +0.000 A 
ATOM     18  C   UNL     1       1.893   3.076  18.693  0.00  0.00    +0.000 A 
ATOM     19  F   UNL     1       1.663   2.166  17.739  0.00  0.00    +0.000 F 
ENDBRANCH   9  12
ENDBRANCH   7   8
BRANCH   1  20
ATOM     20  C   UNL     1       7.158   5.838  17.009  0.00  0.00    +0.000 C 
ATOM     21  O   UNL     1       7.018   5.336  18.116  0.00  0.00    +0.000 OA
BRANCH  20  22
ATOM     22  O   UNL     1       7.790   7.007  16.745  0.00  0.00    +0.000 OA
BRANCH  22  23
ATOM     23  C   UNL     1       7.412   8.109  17.582  0.00  0.00    +0.000 C 
BRANCH  23  25
ATOM     24  C   UNL     1       8.786  10.055  18.291  0.00  0.00    +0.000 C 
ATOM     25  C   UNL     1       8.554   8.563  18.478  0.00  0.00    +0.000 C 
ENDBRANCH  23  25
ENDBRANCH  22  23
ENDBRANCH  20  22
ENDBRANCH   1  20
TORSDOF 6
ENDMDL
MODEL 7
REMARK VINA RESULT:      -7.4      1.444      1.761
REMARK  Name = 
REMARK  7 active torsions:
REMARK  status: ('A' for Active; 'I' for Inactive)
REMARK    1  A    between atoms: C_1  and  C_2
REMARK    2  A    between atoms: C_2  and  C_3
REMARK    3  A    between atoms: C_3  and  O_4
REMARK    4  A    between atoms: O_4  and  C_5
REMARK    5  A    between atoms: C_5  and  C_7
REMARK    6  A    between atoms: C_13  and  N_14
REMARK    7  A    between atoms: C_15  and  C_17
REMARK                            x       y       z     vdW  Elec       q    Type
REMARK                         _______ _______ _______ _____ _____    ______ ____
ROOT
ATOM      1  C   UNL     1       6.380   5.590  16.100  0.00  0.00    +0.000 A 
ATOM      2  C   UNL     1       7.351   5.649  15.078  0.00  0.00    +0.000 A 
ATOM      3  C   UNL     1       7.239   4.859  13.933  0.00  0.00    +0.000 A 
ATOM      4  C   UNL     1       6.149   4.013  13.797  0.00  0.00    +0.000 A 
ATOM      5 CL   UNL     1       6.008   3.015  12.402  0.00  0.00    +0.000 Cl
ATOM      6  C   UNL     1       5.175   3.953  14.793  0.00  0.00    +0.000 A 
ATOM      7  C   UNL     1       5.275   4.713  15.976  0.00  0.00    +0.000 A 
ENDROOT
BRANCH   7   8
ATOM      8  N   UNL     1       4.294   4.582  17.007  0.00  0.00    +0.000 N 
ATOM      9  C   UNL     1       4.398   3.745  18.111  0.00  0.00    +0.000 C 
ATOM     10  O   UNL     1       5.400   3.075  18.354  0.00  0.00    +0.000 OA
ATOM     11  H   UNL     1       3.519   5.238  16.969  0.00  0.00    +0.000 HD
BRANCH   9  12
ATOM     12  C   UNL     1       3.282   3.691  19.095  0.00  0.00    +0.000 A 
ATOM     13  C   UNL     1       2.463   2.577  19.272  0.00  0.00    +0.000 A 
ATOM     14  F   UNL     1       2.680   1.447  18.587  0.00  0.00    +0.000 F 
ATOM     15  C   UNL     1       1.390   2.594  20.172  0.00  0.00    +0.000 A 
ATOM     16  C   UNL     1       1.130   3.732  20.930  0.00  0.00    +0.000 A 
ATOM     17  C   UNL     1       1.952   4.845  20.792  0.00  0.00    +0.000 A 
ATOM     18  C   UNL     1       3.014   4.820  19.886  0.00  0.00    +0.000 A 
ATOM     19  F   UNL     1       3.766   5.925  19.816  0.00  0.00    +0.000 F 
ENDBRANCH   9  12
ENDBRANCH   7   8
BRANCH   1  20
ATOM     20  C   UNL     1       6.706   6.372  17.326  0.00  0.00    +0.000 C 
ATOM     21  O   UNL     1       6.415   5.997  18.454  0.00  0.00    +0.000 OA
BRANCH  20  22
ATOM     22  O   UNL     1       7.304   7.547  17.014  0.00  0.00    +0.000 OA
BRANCH  22  23
ATOM     23  C   UNL     1       8.195   8.064  18.013  0.00  0.00    +0.000 C 
BRANCH  23  25
ATOM     24  C   UNL     1       9.167  10.071  19.110  0.00  0.00    +0.000 C 
ATOM     25  C   UNL     1       8.269   9.582  17.983  0.00  0.00    +0.000 C 
ENDBRANCH  23  25
ENDBRANCH  22  23
ENDBRANCH  20  22
ENDBRANCH   1  20
TORSDOF 6
ENDMDL
MODEL 8
REMARK VINA RESULT:      -7.4      1.068      1.938
REMARK  Name = 
REMARK  7 active torsions:
REMARK  status: ('A' for Active; 'I' for Inactive)
REMARK    1  A    between atoms: C_1  and  C_2
REMARK    2  A    between atoms: C_2  and  C_3
REMARK    3  A    between atoms: C_3  and  O_4
REMARK    4  A    between atoms: O_4  and  C_5
REMARK    5  A    between atoms: C_5  and  C_7
REMARK    6  A    between atoms: C_13  and  N_14
REMARK    7  A    between atoms: C_15  and  C_17
REMARK                            x       y       z     vdW  Elec       q    Type
REMARK                         _______ _______ _______ _____ _____    ______ ____
ROOT
ATOM      1  C   UNL     1       6.816   5.414  16.217  0.00  0.00    +0.000 A 
ATOM      2  C   UNL     1       7.489   5.576  14.989  0.00  0.00    +0.000 A 
ATOM      3  C   UNL     1       7.096   4.866  13.852  0.00  0.00    +0.000 A 
ATOM      4  C   UNL     1       6.017   4.000  13.936  0.00  0.00    +0.000 A 
ATOM      5 CL   UNL     1       5.532   3.101  12.551  0.00  0.00    +0.000 Cl
ATOM      6  C   UNL     1       5.333   3.838  15.140  0.00  0.00    +0.000 A 
ATOM      7  C   UNL     1       5.726   4.514  16.313  0.00  0.00    +0.000 A 
ENDROOT
BRANCH   7   8
ATOM      8  N   UNL     1       5.045   4.280  17.548  0.00  0.00    +0.000 N 
ATOM      9  C   UNL     1       3.713   3.904  17.670  0.00  0.00    +0.000 C 
ATOM     10  O   UNL     1       2.993   3.659  16.704  0.00  0.00    +0.000 OA
ATOM     11  H   UNL     1       5.623   4.287  18.383  0.00  0.00    +0.000 HD
BRANCH   9  12
ATOM     12  C   UNL     1       3.127   3.721  19.027  0.00  0.00    +0.000 A 
ATOM     13  C   UNL     1       3.398   2.623  19.842  0.00  0.00    +0.000 A 
ATOM     14  F   UNL     1       4.267   1.679  19.460  0.00  0.00    +0.000 F 
ATOM     15  C   UNL     1       2.780   2.470  21.089  0.00  0.00    +0.000 A 
ATOM     16  C   UNL     1       1.886   3.431  21.551  0.00  0.00    +0.000 A 
ATOM     17  C   UNL     1       1.623   4.549  20.767  0.00  0.00    +0.000 A 
ATOM     18  C   UNL     1       2.239   4.689  19.523  0.00  0.00    +0.000 A 
ATOM     19  F   UNL     1       1.944   5.796  18.831  0.00  0.00    +0.000 F 
ENDBRANCH   9  12
ENDBRANCH   7   8
BRANCH   1  20
ATOM     20  C   UNL     1       7.438   6.116  17.376  0.00  0.00    +0.000 C 
ATOM     21  O   UNL     1       7.787   5.538  18.396  0.00  0.00    +0.000 OA
BRANCH  20  22
ATOM     22  O   UNL     1       7.508   7.451  17.160  0.00  0.00    +0.000 OA
BRANCH  22  23
ATOM     23  C   UNL     1       8.178   8.202  18.183  0.00  0.00    +0.000 C 
BRANCH  23  25
ATOM     24  C   UNL     1       9.226  10.371  18.793  0.00  0.00    +0.000 C 
ATOM     25  C   UNL     1       8.247   9.684  17.852  0.00  0.00    +0.000 C 
ENDBRANCH  23  25
ENDBRANCH  22  23
ENDBRANCH  20  22
ENDBRANCH   1  20
TORSDOF 6
ENDMDL
MODEL 9
REMARK VINA RESULT:      -7.3      0.894      1.075
REMARK  Name = 
REMARK  7 active torsions:
REMARK  status: ('A' for Active; 'I' for Inactive)
REMARK    1  A    between atoms: C_1  and  C_2
REMARK    2  A    between atoms: C_2  and  C_3
REMARK    3  A    between atoms: C_3  and  O_4
REMARK    4  A    between atoms: O_4  and  C_5
REMARK    5  A    between atoms: C_5  and  C_7
REMARK    6  A    between atoms: C_13  and  N_14
REMARK    7  A    between atoms: C_15  and  C_17
REMARK                            x       y       z     vdW  Elec       q    Type
REMARK                         _______ _______ _______ _____ _____    ______ ____
ROOT
ATOM      1  C   UNL     1       6.642   5.487  16.404  0.00  0.00    +0.000 A 
ATOM      2  C   UNL     1       7.401   5.666  15.228  0.00  0.00    +0.000 A 
ATOM      3  C   UNL     1       7.101   4.957  14.063  0.00  0.00    +0.000 A 
ATOM      4  C   UNL     1       6.033   4.073  14.064  0.00  0.00    +0.000 A 
ATOM      5 CL   UNL     1       5.664   3.174  12.643  0.00  0.00    +0.000 Cl
ATOM      6  C   UNL     1       5.266   3.895  15.215  0.00  0.00    +0.000 A 
ATOM      7  C   UNL     1       5.563   4.570  16.416  0.00  0.00    +0.000 A 
ENDROOT
BRANCH   7   8
ATOM      8  N   UNL     1       4.798   4.319  17.597  0.00  0.00    +0.000 N 
ATOM      9  C   UNL     1       3.591   3.630  17.639  0.00  0.00    +0.000 C 
ATOM     10  O   UNL     1       3.089   3.094  16.654  0.00  0.00    +0.000 OA
ATOM     11  H   UNL     1       5.239   4.575  18.475  0.00  0.00    +0.000 HD
BRANCH   9  12
ATOM     12  C   UNL     1       2.889   3.467  18.942  0.00  0.00    +0.000 A 
ATOM     13  C   UNL     1       1.629   4.000  19.212  0.00  0.00    +0.000 A 
ATOM     14  F   UNL     1       0.944   4.657  18.268  0.00  0.00    +0.000 F 
ATOM     15  C   UNL     1       1.034   3.866  20.472  0.00  0.00    +0.000 A 
ATOM     16  C   UNL     1       1.688   3.172  21.486  0.00  0.00    +0.000 A 
ATOM     17  C   UNL     1       2.932   2.606  21.230  0.00  0.00    +0.000 A 
ATOM     18  C   UNL     1       3.520   2.753  19.973  0.00  0.00    +0.000 A 
ATOM     19  F   UNL     1       4.714   2.171  19.801  0.00  0.00    +0.000 F 
ENDBRANCH   9  12
ENDBRANCH   7   8
BRANCH   1  20
ATOM     20  C   UNL     1       7.167   6.192  17.607  0.00  0.00    +0.000 C 
ATOM     21  O   UNL     1       7.114   5.718  18.734  0.00  0.00    +0.000 OA
BRANCH  20  22
ATOM     22  O   UNL     1       7.648   7.417  17.287  0.00  0.00    +0.000 OA
BRANCH  22  23
ATOM     23  C   UNL     1       8.352   8.092  18.339  0.00  0.00    +0.000 C 
BRANCH  23  25
ATOM     24  C   UNL     1       9.247  10.241  19.212  0.00  0.00    +0.000 C 
ATOM     25  C   UNL     1       8.419   9.594  18.111  0.00  0.00    +0.000 C 
ENDBRANCH  23  25
ENDBRANCH  22  23
ENDBRANCH  20  22
ENDBRANCH   1  20
TORSDOF 6
ENDMDL
