MODEL 1
REMARK VINA RESULT:      -8.9      0.000      0.000
REMARK  Name = 
REMARK  5 active torsions:
REMARK  status: ('A' for Active; 'I' for Inactive)
REMARK    1  A    between atoms: N_2  and  C_4
REMARK    2  A    between atoms: C_10  and  C_11
REMARK    3  A    between atoms: C_11  and  O_12
REMARK    4  A    between atoms: O_12  and  C_13
REMARK    5  A    between atoms: C_17  and  C_18
REMARK                            x       y       z     vdW  Elec       q    Type
REMARK                         _______ _______ _______ _____ _____    ______ ____
ROOT
ATOM      1  O   UNL     1       3.016   5.609  19.809  0.00  0.00    +0.000 OA
ENDROOT
BRANCH   1   2
ATOM      2  C   UNL     1       2.558   6.844  19.397  0.00  0.00    +0.000 A 
ATOM      3  C   UNL     1       2.804   7.209  18.085  0.00  0.00    +0.000 A 
ATOM      4  C   UNL     1       2.338   8.444  17.651  0.00  0.00    +0.000 A 
ATOM      5  C   UNL     1       1.634   9.255  18.537  0.00  0.00    +0.000 A 
ATOM      6  C   UNL     1       1.412   8.810  19.839  0.00  0.00    +0.000 A 
ATOM      7  N   UNL     1       1.885   7.619  20.271  0.00  0.00    +0.000 NA
BRANCH   6   8
ATOM      8  C   UNL     1       0.618   9.557  20.822  0.00  0.00    +0.000 A 
ATOM      9  C   UNL     1      -0.296  10.553  20.444  0.00  0.00    +0.000 A 
ATOM     10  C   UNL     1      -0.996  11.271  21.410  0.00  0.00    +0.000 A 
ATOM     11  C   UNL     1      -0.763  10.976  22.741  0.00  0.00    +0.000 A 
ATOM     12  F   UNL     1      -1.422  11.675  23.677  0.00  0.00    +0.000 F 
ATOM     13  N   UNL     1       0.095  10.029  23.162  0.00  0.00    +0.000 NA
ATOM     14  C   UNL     1       0.761   9.353  22.197  0.00  0.00    +0.000 A 
ENDBRANCH   6   8
ENDBRANCH   1   2
BRANCH   1  15
ATOM     15  C   UNL     1       2.709   4.572  18.866  0.00  0.00    +0.000 C 
BRANCH  15  22
ATOM     16  C   UNL     1       6.662   4.678  14.959  0.00  0.00    +0.000 A 
ATOM     17  C   UNL     1       7.271   4.928  16.172  0.00  0.00    +0.000 A 
ATOM     18  N   UNL     1       6.315   4.625  17.097  0.00  0.00    +0.000 N 
ATOM     19  C   UNL     1       5.194   4.220  16.439  0.00  0.00    +0.000 A 
ATOM     20  N   UNL     1       5.363   4.237  15.140  0.00  0.00    +0.000 NA
ATOM     21  O   UNL     1       4.055   3.882  17.022  0.00  0.00    +0.000 OA
ATOM     22  C   UNL     1       3.986   3.822  18.448  0.00  0.00    +0.000 C 
ATOM     23  C   UNL     1       5.203   4.283  19.274  0.00  0.00    +0.000 C 
ATOM     24  C   UNL     1       6.429   4.750  18.517  0.00  0.00    +0.000 C 
BRANCH  16  26
ATOM     25  O   UNL     1       8.161   5.666  13.544  0.00  0.00    +0.000 OA
ATOM     26  N   UNL     1       7.236   4.841  13.643  0.00  0.00    +0.000 N 
ATOM     27  O   UNL     1       6.777   4.163  12.717  0.00  0.00    +0.000 OA
ENDBRANCH  16  26
ENDBRANCH  15  22
ENDBRANCH   1  15
TORSDOF 5
ENDMDL
MODEL 2
REMARK VINA RESULT:      -8.8      0.803      1.031
REMARK  Name = 
REMARK  5 active torsions:
REMARK  status: ('A' for Active; 'I' for Inactive)
REMARK    1  A    between atoms: N_2  and  C_4
REMARK    2  A    between atoms: C_10  and  C_11
REMARK    3  A    between atoms: C_11  and  O_12
REMARK    4  A    between atoms: O_12  and  C_13
REMARK    5  A    between atoms: C_17  and  C_18
REMARK                            x       y       z     vdW  Elec       q    Type
REMARK                         _______ _______ _______ _____ _____    ______ ____
ROOT
ATOM      1  O   UNL     1       2.647   6.065  19.944  0.00  0.00    +0.000 OA
ENDROOT
BRANCH   1   2
ATOM      2  C   UNL     1       2.199   7.306  19.538  0.00  0.00    +0.000 A 
ATOM      3  C   UNL     1       2.400   7.652  18.213  0.00  0.00    +0.000 A 
ATOM      4  C   UNL     1       1.941   8.893  17.786  0.00  0.00    +0.000 A 
ATOM      5  C   UNL     1       1.291   9.727  18.692  0.00  0.00    +0.000 A 
ATOM      6  C   UNL     1       1.113   9.299  20.006  0.00  0.00    +0.000 A 
ATOM      7  N   UNL     1       1.578   8.102  20.431  0.00  0.00    +0.000 NA
BRANCH   6   8
ATOM      8  C   UNL     1       0.375  10.072  21.012  0.00  0.00    +0.000 A 
ATOM      9  C   UNL     1      -0.136   9.485  22.180  0.00  0.00    +0.000 A 
ATOM     10  C   UNL     1      -0.871  10.245  23.088  0.00  0.00    +0.000 A 
ATOM     11  C   UNL     1      -1.081  11.581  22.803  0.00  0.00    +0.000 A 
ATOM     12  F   UNL     1      -1.801  12.314  23.665  0.00  0.00    +0.000 F 
ATOM     13  N   UNL     1      -0.611  12.199  21.704  0.00  0.00    +0.000 NA
ATOM     14  C   UNL     1       0.096  11.431  20.842  0.00  0.00    +0.000 A 
ENDBRANCH   6   8
ENDBRANCH   1   2
BRANCH   1  15
ATOM     15  C   UNL     1       2.351   5.039  18.987  0.00  0.00    +0.000 C 
BRANCH  15  22
ATOM     16  C   UNL     1       6.441   4.722  15.236  0.00  0.00    +0.000 A 
ATOM     17  C   UNL     1       7.016   5.029  16.452  0.00  0.00    +0.000 A 
ATOM     18  N   UNL     1       6.015   4.827  17.357  0.00  0.00    +0.000 N 
ATOM     19  C   UNL     1       4.902   4.424  16.686  0.00  0.00    +0.000 A 
ATOM     20  N   UNL     1       5.118   4.346  15.395  0.00  0.00    +0.000 NA
ATOM     21  O   UNL     1       3.730   4.172  17.246  0.00  0.00    +0.000 OA
ATOM     22  C   UNL     1       3.608   4.211  18.669  0.00  0.00    +0.000 C 
ATOM     23  C   UNL     1       4.814   4.678  19.509  0.00  0.00    +0.000 C 
ATOM     24  C   UNL     1       6.085   5.043  18.769  0.00  0.00    +0.000 C 
BRANCH  16  26
ATOM     25  O   UNL     1       7.972   5.614  13.792  0.00  0.00    +0.000 OA
ATOM     26  N   UNL     1       7.068   4.772  13.935  0.00  0.00    +0.000 N 
ATOM     27  O   UNL     1       6.670   3.991  13.064  0.00  0.00    +0.000 OA
ENDBRANCH  16  26
ENDBRANCH  15  22
ENDBRANCH   1  15
TORSDOF 5
ENDMDL
MODEL 3
REMARK VINA RESULT:      -7.8      4.012      9.406
REMARK  Name = 
REMARK  5 active torsions:
REMARK  status: ('A' for Active; 'I' for Inactive)
REMARK    1  A    between atoms: N_2  and  C_4
REMARK    2  A    between atoms: C_10  and  C_11
REMARK    3  A    between atoms: C_11  and  O_12
REMARK    4  A    between atoms: O_12  and  C_13
REMARK    5  A    between atoms: C_17  and  C_18
REMARK                            x       y       z     vdW  Elec       q    Type
REMARK                         _______ _______ _______ _____ _____    ______ ____
ROOT
ATOM      1  O   UNL     1       3.935   4.381  19.008  0.00  0.00    +0.000 OA
ENDROOT
BRANCH   1   2
ATOM      2  C   UNL     1       5.143   4.762  18.460  0.00  0.00    +0.000 A 
ATOM      3  C   UNL     1       6.122   5.212  19.329  0.00  0.00    +0.000 A 
ATOM      4  C   UNL     1       7.349   5.585  18.794  0.00  0.00    +0.000 A 
ATOM      5  C   UNL     1       7.553   5.481  17.420  0.00  0.00    +0.000 A 
ATOM      6  C   UNL     1       6.522   5.003  16.613  0.00  0.00    +0.000 A 
ATOM      7  N   UNL     1       5.319   4.660  17.128  0.00  0.00    +0.000 NA
BRANCH   6   8
ATOM      8  C   UNL     1       6.665   4.785  15.168  0.00  0.00    +0.000 A 
ATOM      9  C   UNL     1       5.915   3.820  14.479  0.00  0.00    +0.000 A 
ATOM     10  C   UNL     1       6.115   3.613  13.116  0.00  0.00    +0.000 A 
ATOM     11  C   UNL     1       7.067   4.380  12.471  0.00  0.00    +0.000 A 
ATOM     12  F   UNL     1       7.275   4.175  11.162  0.00  0.00    +0.000 F 
ATOM     13  N   UNL     1       7.810   5.324  13.077  0.00  0.00    +0.000 NA
ATOM     14  C   UNL     1       7.593   5.496  14.402  0.00  0.00    +0.000 A 
ENDBRANCH   6   8
ENDBRANCH   1   2
BRANCH   1  15
ATOM     15  C   UNL     1       3.480   5.297  20.014  0.00  0.00    +0.000 C 
BRANCH  15  22
ATOM     16  C   UNL     1       0.370   9.716  21.314  0.00  0.00    +0.000 A 
ATOM     17  C   UNL     1       0.903   9.938  20.060  0.00  0.00    +0.000 A 
ATOM     18  N   UNL     1       1.419   8.729  19.696  0.00  0.00    +0.000 N 
ATOM     19  C   UNL     1       1.198   7.845  20.706  0.00  0.00    +0.000 A 
ATOM     20  N   UNL     1       0.562   8.404  21.707  0.00  0.00    +0.000 NA
ATOM     21  O   UNL     1       1.597   6.584  20.710  0.00  0.00    +0.000 OA
ATOM     22  C   UNL     1       2.218   6.040  19.544  0.00  0.00    +0.000 C 
ATOM     23  C   UNL     1       2.528   6.976  18.358  0.00  0.00    +0.000 C 
ATOM     24  C   UNL     1       2.122   8.429  18.487  0.00  0.00    +0.000 C 
BRANCH  16  26
ATOM     25  O   UNL     1      -0.179  10.509  23.387  0.00  0.00    +0.000 OA
ATOM     26  N   UNL     1      -0.300  10.676  22.160  0.00  0.00    +0.000 N 
ATOM     27  O   UNL     1      -0.942  11.584  21.620  0.00  0.00    +0.000 OA
ENDBRANCH  16  26
ENDBRANCH  15  22
ENDBRANCH   1  15
TORSDOF 5
ENDMDL
MODEL 4
REMARK VINA RESULT:      -7.7      3.389      8.137
REMARK  Name = 
REMARK  5 active torsions:
REMARK  status: ('A' for Active; 'I' for Inactive)
REMARK    1  A    between atoms: N_2  and  C_4
REMARK    2  A    between atoms: C_10  and  C_11
REMARK    3  A    between atoms: C_11  and  O_12
REMARK    4  A    between atoms: O_12  and  C_13
REMARK    5  A    between atoms: C_17  and  C_18
REMARK                            x       y       z     vdW  Elec       q    Type
REMARK                         _______ _______ _______ _____ _____    ______ ____
ROOT
ATOM      1  O   UNL     1       4.026   7.241  16.822  0.00  0.00    +0.000 OA
ENDROOT
BRANCH   1   2
ATOM      2  C   UNL     1       4.115   5.878  17.020  0.00  0.00    +0.000 A 
ATOM      3  C   UNL     1       4.947   5.165  16.175  0.00  0.00    +0.000 A 
ATOM      4  C   UNL     1       5.057   3.794  16.371  0.00  0.00    +0.000 A 
ATOM      5  C   UNL     1       4.347   3.195  17.408  0.00  0.00    +0.000 A 
ATOM      6  C   UNL     1       3.542   3.985  18.228  0.00  0.00    +0.000 A 
ATOM      7  N   UNL     1       3.414   5.315  18.025  0.00  0.00    +0.000 NA
BRANCH   6   8
ATOM      8  C   UNL     1       2.816   3.460  19.391  0.00  0.00    +0.000 A 
ATOM      9  C   UNL     1       1.414   3.447  19.454  0.00  0.00    +0.000 A 
ATOM     10  C   UNL     1       0.765   2.982  20.596  0.00  0.00    +0.000 A 
ATOM     11  C   UNL     1       1.537   2.541  21.654  0.00  0.00    +0.000 A 
ATOM     12  F   UNL     1       0.918   2.107  22.762  0.00  0.00    +0.000 F 
ATOM     13  N   UNL     1       2.882   2.523  21.648  0.00  0.00    +0.000 NA
ATOM     14  C   UNL     1       3.481   2.985  20.524  0.00  0.00    +0.000 A 
ENDBRANCH   6   8
ENDBRANCH   1   2
BRANCH   1  15
ATOM     15  C   UNL     1       3.791   7.955  18.043  0.00  0.00    +0.000 C 
BRANCH  15  22
ATOM     16  C   UNL     1       0.242   9.828  21.890  0.00  0.00    +0.000 A 
ATOM     17  C   UNL     1       0.168  10.681  20.807  0.00  0.00    +0.000 A 
ATOM     18  N   UNL     1       0.843  10.026  19.818  0.00  0.00    +0.000 N 
ATOM     19  C   UNL     1       1.294   8.843  20.315  0.00  0.00    +0.000 A 
ATOM     20  N   UNL     1       0.950   8.683  21.570  0.00  0.00    +0.000 NA
ATOM     21  O   UNL     1       2.021   7.966  19.641  0.00  0.00    +0.000 OA
ATOM     22  C   UNL     1       2.286   8.190  18.255  0.00  0.00    +0.000 C 
ATOM     23  C   UNL     1       1.829   9.516  17.613  0.00  0.00    +0.000 C 
ATOM     24  C   UNL     1       1.090  10.503  18.493  0.00  0.00    +0.000 C 
BRANCH  16  26
ATOM     25  O   UNL     1       0.329   9.555  24.158  0.00  0.00    +0.000 OA
ATOM     26  N   UNL     1      -0.310  10.040  23.208  0.00  0.00    +0.000 N 
ATOM     27  O   UNL     1      -1.365  10.677  23.304  0.00  0.00    +0.000 OA
ENDBRANCH  16  26
ENDBRANCH  15  22
ENDBRANCH   1  15
TORSDOF 5
ENDMDL
MODEL 5
REMARK VINA RESULT:      -7.6      4.589     10.060
REMARK  Name = 
REMARK  5 active torsions:
REMARK  status: ('A' for Active; 'I' for Inactive)
REMARK    1  A    between atoms: N_2  and  C_4
REMARK    2  A    between atoms: C_10  and  C_11
REMARK    3  A    between atoms: C_11  and  O_12
REMARK    4  A    between atoms: O_12  and  C_13
REMARK    5  A    between atoms: C_17  and  C_18
REMARK                            x       y       z     vdW  Elec       q    Type
REMARK                         _______ _______ _______ _____ _____    ______ ____
ROOT
ATOM      1  O   UNL     1       1.929   8.203  20.324  0.00  0.00    +0.000 OA
ENDROOT
BRANCH   1   2
ATOM      2  C   UNL     1       2.210   6.920  19.903  0.00  0.00    +0.000 A 
ATOM      3  C   UNL     1       1.568   5.881  20.555  0.00  0.00    +0.000 A 
ATOM      4  C   UNL     1       1.831   4.583  20.133  0.00  0.00    +0.000 A 
ATOM      5  C   UNL     1       2.709   4.377  19.073  0.00  0.00    +0.000 A 
ATOM      6  C   UNL     1       3.305   5.477  18.457  0.00  0.00    +0.000 A 
ATOM      7  N   UNL     1       3.069   6.739  18.880  0.00  0.00    +0.000 NA
BRANCH   6   8
ATOM      8  C   UNL     1       4.183   5.366  17.286  0.00  0.00    +0.000 A 
ATOM      9  C   UNL     1       4.578   4.126  16.761  0.00  0.00    +0.000 A 
ATOM     10  C   UNL     1       5.450   4.065  15.676  0.00  0.00    +0.000 A 
ATOM     11  C   UNL     1       5.912   5.253  15.141  0.00  0.00    +0.000 A 
ATOM     12  F   UNL     1       6.764   5.201  14.107  0.00  0.00    +0.000 F 
ATOM     13  N   UNL     1       5.563   6.470  15.597  0.00  0.00    +0.000 NA
ATOM     14  C   UNL     1       4.717   6.492  16.654  0.00  0.00    +0.000 A 
ENDBRANCH   6   8
ENDBRANCH   1   2
BRANCH   1  15
ATOM     15  C   UNL     1       0.960   8.230  21.382  0.00  0.00    +0.000 C 
BRANCH  15  22
ATOM     16  C   UNL     1      -1.028  13.261  22.661  0.00  0.00    +0.000 A 
ATOM     17  C   UNL     1      -0.680  13.279  21.325  0.00  0.00    +0.000 A 
ATOM     18  N   UNL     1      -0.462  11.968  21.017  0.00  0.00    +0.000 N 
ATOM     19  C   UNL     1      -0.670  11.223  22.136  0.00  0.00    +0.000 A 
ATOM     20  N   UNL     1      -1.017  11.969  23.157  0.00  0.00    +0.000 NA
ATOM     21  O   UNL     1      -0.513   9.911  22.212  0.00  0.00    +0.000 OA
ATOM     22  C   UNL     1      -0.205   9.170  21.030  0.00  0.00    +0.000 C 
ATOM     23  C   UNL     1       0.068   9.936  19.720  0.00  0.00    +0.000 C 
ATOM     24  C   UNL     1      -0.037  11.447  19.755  0.00  0.00    +0.000 C 
BRANCH  16  26
ATOM     25  O   UNL     1      -2.255  15.146  23.068  0.00  0.00    +0.000 OA
ATOM     26  N   UNL     1      -1.360  14.394  23.493  0.00  0.00    +0.000 N 
ATOM     27  O   UNL     1      -0.742  14.542  24.553  0.00  0.00    +0.000 OA
ENDBRANCH  16  26
ENDBRANCH  15  22
ENDBRANCH   1  15
TORSDOF 5
ENDMDL
MODEL 6
REMARK VINA RESULT:      -7.6      2.218      3.565
REMARK  Name = 
REMARK  5 active torsions:
REMARK  status: ('A' for Active; 'I' for Inactive)
REMARK    1  A    between atoms: N_2  and  C_4
REMARK    2  A    between atoms: C_10  and  C_11
REMARK    3  A    between atoms: C_11  and  O_12
REMARK    4  A    between atoms: O_12  and  C_13
REMARK    5  A    between atoms: C_17  and  C_18
REMARK                            x       y       z     vdW  Elec       q    Type
REMARK                         _______ _______ _______ _____ _____    ______ ____
ROOT
ATOM      1  O   UNL     1       5.586   3.740  19.046  0.00  0.00    +0.000 OA
ENDROOT
BRANCH   1   2
ATOM      2  C   UNL     1       4.301   4.011  19.473  0.00  0.00    +0.000 A 
ATOM      3  C   UNL     1       3.621   2.998  20.125  0.00  0.00    +0.000 A 
ATOM      4  C   UNL     1       2.331   3.261  20.573  0.00  0.00    +0.000 A 
ATOM      5  C   UNL     1       1.782   4.524  20.365  0.00  0.00    +0.000 A 
ATOM      6  C   UNL     1       2.539   5.496  19.714  0.00  0.00    +0.000 A 
ATOM      7  N   UNL     1       3.784   5.237  19.256  0.00  0.00    +0.000 NA
BRANCH   6   8
ATOM      8  C   UNL     1       2.078   6.876  19.516  0.00  0.00    +0.000 A 
ATOM      9  C   UNL     1       2.235   7.550  18.295  0.00  0.00    +0.000 A 
ATOM     10  C   UNL     1       1.826   8.875  18.163  0.00  0.00    +0.000 A 
ATOM     11  C   UNL     1       1.266   9.499  19.262  0.00  0.00    +0.000 A 
ATOM     12  F   UNL     1       0.884  10.779  19.145  0.00  0.00    +0.000 F 
ATOM     13  N   UNL     1       1.084   8.903  20.454  0.00  0.00    +0.000 NA
ATOM     14  C   UNL     1       1.496   7.616  20.549  0.00  0.00    +0.000 A 
ENDBRANCH   6   8
ENDBRANCH   1   2
BRANCH   1  15
ATOM     15  C   UNL     1       6.490   4.819  19.320  0.00  0.00    +0.000 C 
BRANCH  15  22
ATOM     16  C   UNL     1       6.041   4.215  13.813  0.00  0.00    +0.000 A 
ATOM     17  C   UNL     1       5.540   5.460  14.136  0.00  0.00    +0.000 A 
ATOM     18  N   UNL     1       5.922   5.649  15.432  0.00  0.00    +0.000 N 
ATOM     19  C   UNL     1       6.612   4.550  15.842  0.00  0.00    +0.000 A 
ATOM     20  N   UNL     1       6.708   3.656  14.889  0.00  0.00    +0.000 NA
ATOM     21  O   UNL     1       7.102   4.375  17.059  0.00  0.00    +0.000 OA
ATOM     22  C   UNL     1       7.014   5.435  18.012  0.00  0.00    +0.000 C 
ATOM     23  C   UNL     1       6.231   6.710  17.639  0.00  0.00    +0.000 C 
ATOM     24  C   UNL     1       5.618   6.778  16.255  0.00  0.00    +0.000 C 
BRANCH  16  26
ATOM     25  O   UNL     1       4.759   3.264  12.176  0.00  0.00    +0.000 OA
ATOM     26  N   UNL     1       5.916   3.524  12.550  0.00  0.00    +0.000 N 
ATOM     27  O   UNL     1       6.950   3.237  11.936  0.00  0.00    +0.000 OA
ENDBRANCH  16  26
ENDBRANCH  15  22
ENDBRANCH   1  15
TORSDOF 5
ENDMDL
MODEL 7
REMARK VINA RESULT:      -7.6      2.192      2.741
REMARK  Name = 
REMARK  5 active torsions:
REMARK  status: ('A' for Active; 'I' for Inactive)
REMARK    1  A    between atoms: N_2  and  C_4
REMARK    2  A    between atoms: C_10  and  C_11
REMARK    3  A    between atoms: C_11  and  O_12
REMARK    4  A    between atoms: O_12  and  C_13
REMARK    5  A    between atoms: C_17  and  C_18
REMARK                            x       y       z     vdW  Elec       q    Type
REMARK                         _______ _______ _______ _____ _____    ______ ____
ROOT
ATOM      1  O   UNL     1       2.752   7.153  18.791  0.00  0.00    +0.000 OA
ENDROOT
BRANCH   1   2
ATOM      2  C   UNL     1       1.937   7.928  19.591  0.00  0.00    +0.000 A 
ATOM      3  C   UNL     1       1.564   7.403  20.816  0.00  0.00    +0.000 A 
ATOM      4  C   UNL     1       0.755   8.178  21.639  0.00  0.00    +0.000 A 
ATOM      5  C   UNL     1       0.365   9.445  21.214  0.00  0.00    +0.000 A 
ATOM      6  C   UNL     1       0.797   9.910  19.973  0.00  0.00    +0.000 A 
ATOM      7  N   UNL     1       1.564   9.150  19.159  0.00  0.00    +0.000 NA
BRANCH   6   8
ATOM      8  C   UNL     1       0.503  11.258  19.471  0.00  0.00    +0.000 A 
ATOM      9  C   UNL     1       1.465  12.035  18.807  0.00  0.00    +0.000 A 
ATOM     10  C   UNL     1       1.159  13.327  18.387  0.00  0.00    +0.000 A 
ATOM     11  C   UNL     1      -0.109  13.816  18.644  0.00  0.00    +0.000 A 
ATOM     12  F   UNL     1      -0.404  15.065  18.256  0.00  0.00    +0.000 F 
ATOM     13  N   UNL     1      -1.072  13.116  19.269  0.00  0.00    +0.000 NA
ATOM     14  C   UNL     1      -0.740  11.864  19.667  0.00  0.00    +0.000 A 
ENDBRANCH   6   8
ENDBRANCH   1   2
BRANCH   1  15
ATOM     15  C   UNL     1       2.361   5.773  18.789  0.00  0.00    +0.000 C 
BRANCH  15  22
ATOM     16  C   UNL     1       6.498   4.952  15.169  0.00  0.00    +0.000 A 
ATOM     17  C   UNL     1       7.066   5.329  16.370  0.00  0.00    +0.000 A 
ATOM     18  N   UNL     1       6.039   5.250  17.266  0.00  0.00    +0.000 N 
ATOM     19  C   UNL     1       4.920   4.849  16.604  0.00  0.00    +0.000 A 
ATOM     20  N   UNL     1       5.156   4.656  15.329  0.00  0.00    +0.000 NA
ATOM     21  O   UNL     1       3.727   4.701  17.155  0.00  0.00    +0.000 OA
ATOM     22  C   UNL     1       3.580   4.862  18.568  0.00  0.00    +0.000 C 
ATOM     23  C   UNL     1       4.792   5.336  19.394  0.00  0.00    +0.000 C 
ATOM     24  C   UNL     1       6.093   5.577  18.657  0.00  0.00    +0.000 C 
BRANCH  16  26
ATOM     25  O   UNL     1       6.697   4.022  13.090  0.00  0.00    +0.000 OA
ATOM     26  N   UNL     1       7.151   4.865  13.884  0.00  0.00    +0.000 N 
ATOM     27  O   UNL     1       8.104   5.620  13.660  0.00  0.00    +0.000 OA
ENDBRANCH  16  26
ENDBRANCH  15  22
ENDBRANCH   1  15
TORSDOF 5
ENDMDL
MODEL 8
REMARK VINA RESULT:      -7.6      4.730      9.296
REMARK  Name = 
REMARK  5 active torsions:
REMARK  status: ('A' for Active; 'I' for Inactive)
REMARK    1  A    between atoms: N_2  and  C_4
REMARK    2  A    between atoms: C_10  and  C_11
REMARK    3  A    between atoms: C_11  and  O_12
REMARK    4  A    between atoms: O_12  and  C_13
REMARK    5  A    between atoms: C_17  and  C_18
REMARK                            x       y       z     vdW  Elec       q    Type
REMARK                         _______ _______ _______ _____ _____    ______ ____
ROOT
ATOM      1  O   UNL     1       1.711   8.328  19.722  0.00  0.00    +0.000 OA
ENDROOT
BRANCH   1   2
ATOM      2  C   UNL     1       2.254   7.067  19.578  0.00  0.00    +0.000 A 
ATOM      3  C   UNL     1       1.883   6.105  20.501  0.00  0.00    +0.000 A 
ATOM      4  C   UNL     1       2.411   4.827  20.362  0.00  0.00    +0.000 A 
ATOM      5  C   UNL     1       3.273   4.559  19.302  0.00  0.00    +0.000 A 
ATOM      6  C   UNL     1       3.586   5.577  18.404  0.00  0.00    +0.000 A 
ATOM      7  N   UNL     1       3.093   6.828  18.550  0.00  0.00    +0.000 NA
BRANCH   6   8
ATOM      8  C   UNL     1       4.423   5.374  17.215  0.00  0.00    +0.000 A 
ATOM      9  C   UNL     1       4.842   4.098  16.805  0.00  0.00    +0.000 A 
ATOM     10  C   UNL     1       5.674   3.952  15.697  0.00  0.00    +0.000 A 
ATOM     11  C   UNL     1       6.072   5.092  15.023  0.00  0.00    +0.000 A 
ATOM     12  F   UNL     1       6.885   4.959  13.965  0.00  0.00    +0.000 F 
ATOM     13  N   UNL     1       5.697   6.338  15.365  0.00  0.00    +0.000 NA
ATOM     14  C   UNL     1       4.891   6.444  16.449  0.00  0.00    +0.000 A 
ENDBRANCH   6   8
ENDBRANCH   1   2
BRANCH   1  15
ATOM     15  C   UNL     1       1.227   8.564  21.051  0.00  0.00    +0.000 C 
BRANCH  15  22
ATOM     16  C   UNL     1       1.534  14.041  20.151  0.00  0.00    +0.000 A 
ATOM     17  C   UNL     1       0.647  13.518  19.231  0.00  0.00    +0.000 A 
ATOM     18  N   UNL     1       0.416  12.248  19.672  0.00  0.00    +0.000 N 
ATOM     19  C   UNL     1       1.147  12.045  20.801  0.00  0.00    +0.000 A 
ATOM     20  N   UNL     1       1.840  13.109  21.127  0.00  0.00    +0.000 NA
ATOM     21  O   UNL     1       1.193  10.909  21.480  0.00  0.00    +0.000 OA
ATOM     22  C   UNL     1       0.347   9.825  21.093  0.00  0.00    +0.000 C 
ATOM     23  C   UNL     1      -0.502   9.960  19.812  0.00  0.00    +0.000 C 
ATOM     24  C   UNL     1      -0.411  11.263  19.045  0.00  0.00    +0.000 C 
BRANCH  16  26
ATOM     25  O   UNL     1       3.232  15.477  19.622  0.00  0.00    +0.000 OA
ATOM     26  N   UNL     1       2.112  15.364  20.152  0.00  0.00    +0.000 N 
ATOM     27  O   UNL     1       1.470  16.283  20.673  0.00  0.00    +0.000 OA
ENDBRANCH  16  26
ENDBRANCH  15  22
ENDBRANCH   1  15
TORSDOF 5
ENDMDL
MODEL 9
REMARK VINA RESULT:      -7.6      2.252      3.608
REMARK  Name = 
REMARK  5 active torsions:
REMARK  status: ('A' for Active; 'I' for Inactive)
REMARK    1  A    between atoms: N_2  and  C_4
REMARK    2  A    between atoms: C_10  and  C_11
REMARK    3  A    between atoms: C_11  and  O_12
REMARK    4  A    between atoms: O_12  and  C_13
REMARK    5  A    between atoms: C_17  and  C_18
REMARK                            x       y       z     vdW  Elec       q    Type
REMARK                         _______ _______ _______ _____ _____    ______ ____
ROOT
ATOM      1  O   UNL     1       5.895   3.909  19.118  0.00  0.00    +0.000 OA
ENDROOT
BRANCH   1   2
ATOM      2  C   UNL     1       4.558   4.048  19.433  0.00  0.00    +0.000 A 
ATOM      3  C   UNL     1       3.864   2.903  19.782  0.00  0.00    +0.000 A 
ATOM      4  C   UNL     1       2.521   3.029  20.116  0.00  0.00    +0.000 A 
ATOM      5  C   UNL     1       1.932   4.291  20.103  0.00  0.00    +0.000 A 
ATOM      6  C   UNL     1       2.703   5.399  19.756  0.00  0.00    +0.000 A 
ATOM      7  N   UNL     1       4.004   5.277  19.408  0.00  0.00    +0.000 NA
BRANCH   6   8
ATOM      8  C   UNL     1       2.193   6.776  19.787  0.00  0.00    +0.000 A 
ATOM      9  C   UNL     1       1.577   7.320  20.924  0.00  0.00    +0.000 A 
ATOM     10  C   UNL     1       1.065   8.616  20.896  0.00  0.00    +0.000 A 
ATOM     11  C   UNL     1       1.182   9.340  19.725  0.00  0.00    +0.000 A 
ATOM     12  F   UNL     1       0.678  10.582  19.687  0.00  0.00    +0.000 F 
ATOM     13  N   UNL     1       1.768   8.874  18.607  0.00  0.00    +0.000 NA
ATOM     14  C   UNL     1       2.251   7.610  18.668  0.00  0.00    +0.000 A 
ENDBRANCH   6   8
ENDBRANCH   1   2
BRANCH   1  15
ATOM     15  C   UNL     1       6.621   5.136  19.271  0.00  0.00    +0.000 C 
BRANCH  15  22
ATOM     16  C   UNL     1       5.860   4.179  13.848  0.00  0.00    +0.000 A 
ATOM     17  C   UNL     1       5.256   5.385  14.146  0.00  0.00    +0.000 A 
ATOM     18  N   UNL     1       5.705   5.684  15.399  0.00  0.00    +0.000 N 
ATOM     19  C   UNL     1       6.531   4.684  15.811  0.00  0.00    +0.000 A 
ATOM     20  N   UNL     1       6.653   3.751  14.898  0.00  0.00    +0.000 NA
ATOM     21  O   UNL     1       7.119   4.628  16.995  0.00  0.00    +0.000 OA
ATOM     22  C   UNL     1       6.988   5.727  17.898  0.00  0.00    +0.000 C 
ATOM     23  C   UNL     1       6.054   6.894  17.522  0.00  0.00    +0.000 C 
ATOM     24  C   UNL     1       5.344   6.822  16.186  0.00  0.00    +0.000 C 
BRANCH  16  26
ATOM     25  O   UNL     1       6.763   2.911  12.174  0.00  0.00    +0.000 OA
ATOM     26  N   UNL     1       5.720   3.409  12.634  0.00  0.00    +0.000 N 
ATOM     27  O   UNL     1       4.593   3.299  12.138  0.00  0.00    +0.000 OA
ENDBRANCH  16  26
ENDBRANCH  15  22
ENDBRANCH   1  15
TORSDOF 5
ENDMDL
