MODEL 1
REMARK VINA RESULT:      -8.8      0.000      0.000
REMARK  Name = 
REMARK  4 active torsions:
REMARK  status: ('A' for Active; 'I' for Inactive)
REMARK    1  A    between atoms: C_7  and  C_8
REMARK    2  A    between atoms: C_11  and  C_12
REMARK    3  A    between atoms: C_14  and  N_15
REMARK    4  A    between atoms: C_20  and  O_21
REMARK                            x       y       z     vdW  Elec       q    Type
REMARK                         _______ _______ _______ _____ _____    ______ ____
ROOT
ATOM      1  C   UNL     1       4.129   5.370  19.529  0.00  0.00    +0.000 A 
ATOM      2  C   UNL     1       3.098   4.522  19.903  0.00  0.00    +0.000 A 
ATOM      3  C   UNL     1       1.982   5.325  20.228  0.00  0.00    +0.000 A 
ATOM      4  C   UNL     1       2.364   6.633  20.027  0.00  0.00    +0.000 A 
ATOM      5  O   UNL     1       3.666   6.664  19.611  0.00  0.00    +0.000 OA
ENDROOT
BRANCH   1  12
ATOM      6  O   UNL     1       7.293   5.209  14.023  0.00  0.00    +0.000 OA
ATOM      7  C   UNL     1       6.845   5.166  15.164  0.00  0.00    +0.000 C 
ATOM      8  N   UNL     1       7.607   4.760  16.213  0.00  0.00    +0.000 N 
ATOM      9  C   UNL     1       7.228   4.706  17.524  0.00  0.00    +0.000 C 
ATOM     10  O   UNL     1       8.012   4.331  18.391  0.00  0.00    +0.000 OA
ATOM     11  C   UNL     1       5.833   5.132  17.805  0.00  0.00    +0.000 C 
ATOM     12  C   UNL     1       5.436   5.050  19.088  0.00  0.00    +0.000 C 
ATOM     13  C   UNL     1       4.984   5.606  16.681  0.00  0.00    +0.000 C 
ATOM     14  O   UNL     1       3.856   6.068  16.795  0.00  0.00    +0.000 OA
ATOM     15  N   UNL     1       5.568   5.534  15.445  0.00  0.00    +0.000 N 
ATOM     16  H   UNL     1       8.555   4.482  16.002  0.00  0.00    +0.000 HD
ATOM     17  H   UNL     1       5.009   5.864  14.670  0.00  0.00    +0.000 HD
ENDBRANCH   1  12
BRANCH   4  18
ATOM     18  C   UNL     1       1.684   7.922  20.126  0.00  0.00    +0.000 A 
ATOM     19  C   UNL     1       1.124   8.334  21.349  0.00  0.00    +0.000 A 
ATOM     20  C   UNL     1       0.488   9.581  21.451  0.00  0.00    +0.000 A 
ATOM     21  C   UNL     1       0.400  10.432  20.341  0.00  0.00    +0.000 A 
ATOM     22  C   UNL     1       0.944  10.029  19.123  0.00  0.00    +0.000 A 
ATOM     23  C   UNL     1       1.574   8.786  19.020  0.00  0.00    +0.000 A 
BRANCH  20  24
ATOM     24  N   UNL     1      -0.093  10.008  22.730  0.00  0.00    +0.000 N 
ATOM     25  O   UNL     1       0.463   9.631  23.772  0.00  0.00    +0.000 OA
ATOM     26  O   UNL     1      -1.107  10.720  22.694  0.00  0.00    +0.000 OA
ENDBRANCH  20  24
BRANCH  23  27
ATOM     27  O   UNL     1       2.105   8.419  17.812  0.00  0.00    +0.000 OA
ATOM     28  H   UNL     1       1.899   7.487  17.632  0.00  0.00    +0.000 HD
ENDBRANCH  23  27
ENDBRANCH   4  18
TORSDOF 4
ENDMDL
MODEL 2
REMARK VINA RESULT:      -8.2      1.769      7.933
REMARK  Name = 
REMARK  4 active torsions:
REMARK  status: ('A' for Active; 'I' for Inactive)
REMARK    1  A    between atoms: C_7  and  C_8
REMARK    2  A    between atoms: C_11  and  C_12
REMARK    3  A    between atoms: C_14  and  N_15
REMARK    4  A    between atoms: C_20  and  O_21
REMARK                            x       y       z     vdW  Elec       q    Type
REMARK                         _______ _______ _______ _____ _____    ______ ____
ROOT
ATOM      1  C   UNL     1       2.336   6.351  19.329  0.00  0.00    +0.000 A 
ATOM      2  C   UNL     1       1.668   5.284  18.749  0.00  0.00    +0.000 A 
ATOM      3  C   UNL     1       2.594   4.592  17.937  0.00  0.00    +0.000 A 
ATOM      4  C   UNL     1       3.798   5.250  18.061  0.00  0.00    +0.000 A 
ATOM      5  O   UNL     1       3.643   6.320  18.898  0.00  0.00    +0.000 OA
ENDROOT
BRANCH   1  12
ATOM      6  O   UNL     1       0.486  12.426  19.157  0.00  0.00    +0.000 OA
ATOM      7  C   UNL     1       0.816  11.267  19.384  0.00  0.00    +0.000 C 
ATOM      8  N   UNL     1       0.766  10.744  20.637  0.00  0.00    +0.000 N 
ATOM      9  C   UNL     1       1.074   9.464  20.999  0.00  0.00    +0.000 C 
ATOM     10  O   UNL     1       0.979   9.099  22.167  0.00  0.00    +0.000 OA
ATOM     11  C   UNL     1       1.513   8.574  19.894  0.00  0.00    +0.000 C 
ATOM     12  C   UNL     1       1.853   7.320  20.243  0.00  0.00    +0.000 C 
ATOM     13  C   UNL     1       1.552   9.111  18.508  0.00  0.00    +0.000 C 
ATOM     14  O   UNL     1       1.806   8.456  17.505  0.00  0.00    +0.000 OA
ATOM     15  N   UNL     1       1.237  10.438  18.394  0.00  0.00    +0.000 N 
ATOM     16  H   UNL     1       0.457  11.363  21.373  0.00  0.00    +0.000 HD
ATOM     17  H   UNL     1       1.246  10.817  17.457  0.00  0.00    +0.000 HD
ENDBRANCH   1  12
BRANCH   4  18
ATOM     18  C   UNL     1       5.143   5.024  17.539  0.00  0.00    +0.000 A 
ATOM     19  C   UNL     1       5.364   4.976  16.151  0.00  0.00    +0.000 A 
ATOM     20  C   UNL     1       6.659   4.779  15.647  0.00  0.00    +0.000 A 
ATOM     21  C   UNL     1       7.749   4.628  16.515  0.00  0.00    +0.000 A 
ATOM     22  C   UNL     1       7.539   4.666  17.892  0.00  0.00    +0.000 A 
ATOM     23  C   UNL     1       6.249   4.857  18.394  0.00  0.00    +0.000 A 
BRANCH  20  24
ATOM     24  N   UNL     1       6.885   4.732  14.197  0.00  0.00    +0.000 N 
ATOM     25  O   UNL     1       6.193   3.949  13.529  0.00  0.00    +0.000 OA
ATOM     26  O   UNL     1       7.755   5.477  13.724  0.00  0.00    +0.000 OA
ENDBRANCH  20  24
BRANCH  23  27
ATOM     27  O   UNL     1       6.074   4.897  19.752  0.00  0.00    +0.000 OA
ATOM     28  H   UNL     1       6.275   5.788  20.083  0.00  0.00    +0.000 HD
ENDBRANCH  23  27
ENDBRANCH   4  18
TORSDOF 4
ENDMDL
MODEL 3
REMARK VINA RESULT:      -8.1      3.467      8.690
REMARK  Name = 
REMARK  4 active torsions:
REMARK  status: ('A' for Active; 'I' for Inactive)
REMARK    1  A    between atoms: C_7  and  C_8
REMARK    2  A    between atoms: C_11  and  C_12
REMARK    3  A    between atoms: C_14  and  N_15
REMARK    4  A    between atoms: C_20  and  O_21
REMARK                            x       y       z     vdW  Elec       q    Type
REMARK                         _______ _______ _______ _____ _____    ______ ____
ROOT
ATOM      1  C   UNL     1       5.375   5.170  17.755  0.00  0.00    +0.000 A 
ATOM      2  C   UNL     1       6.671   4.892  18.163  0.00  0.00    +0.000 A 
ATOM      3  C   UNL     1       7.416   4.557  17.010  0.00  0.00    +0.000 A 
ATOM      4  C   UNL     1       6.556   4.658  15.940  0.00  0.00    +0.000 A 
ATOM      5  O   UNL     1       5.318   5.022  16.389  0.00  0.00    +0.000 OA
ENDROOT
BRANCH   1  12
ATOM      6  O   UNL     1       1.484   2.611  22.077  0.00  0.00    +0.000 OA
ATOM      7  C   UNL     1       2.121   3.263  21.255  0.00  0.00    +0.000 C 
ATOM      8  N   UNL     1       1.797   4.550  20.962  0.00  0.00    +0.000 N 
ATOM      9  C   UNL     1       2.451   5.378  20.096  0.00  0.00    +0.000 C 
ATOM     10  O   UNL     1       2.071   6.532  19.919  0.00  0.00    +0.000 OA
ATOM     11  C   UNL     1       3.630   4.787  19.413  0.00  0.00    +0.000 C 
ATOM     12  C   UNL     1       4.262   5.582  18.530  0.00  0.00    +0.000 C 
ATOM     13  C   UNL     1       4.024   3.391  19.734  0.00  0.00    +0.000 C 
ATOM     14  O   UNL     1       5.024   2.825  19.309  0.00  0.00    +0.000 OA
ATOM     15  N   UNL     1       3.192   2.741  20.605  0.00  0.00    +0.000 N 
ATOM     16  H   UNL     1       0.997   4.935  21.444  0.00  0.00    +0.000 HD
ATOM     17  H   UNL     1       3.452   1.794  20.844  0.00  0.00    +0.000 HD
ENDBRANCH   1  12
BRANCH   4  18
ATOM     18  C   UNL     1       6.702   4.500  14.495  0.00  0.00    +0.000 A 
ATOM     19  C   UNL     1       5.855   3.626  13.789  0.00  0.00    +0.000 A 
ATOM     20  C   UNL     1       5.982   3.489  12.398  0.00  0.00    +0.000 A 
ATOM     21  C   UNL     1       6.948   4.217  11.691  0.00  0.00    +0.000 A 
ATOM     22  C   UNL     1       7.797   5.080  12.383  0.00  0.00    +0.000 A 
ATOM     23  C   UNL     1       7.675   5.213  13.769  0.00  0.00    +0.000 A 
BRANCH  20  24
ATOM     24  N   UNL     1       5.093   2.576  11.665  0.00  0.00    +0.000 N 
ATOM     25  O   UNL     1       5.521   1.444  11.397  0.00  0.00    +0.000 OA
ATOM     26  O   UNL     1       3.967   2.992  11.358  0.00  0.00    +0.000 OA
ENDBRANCH  20  24
BRANCH  23  27
ATOM     27  O   UNL     1       8.519   6.073  14.420  0.00  0.00    +0.000 OA
ATOM     28  H   UNL     1       8.300   6.989  14.184  0.00  0.00    +0.000 HD
ENDBRANCH  23  27
ENDBRANCH   4  18
TORSDOF 4
ENDMDL
MODEL 4
REMARK VINA RESULT:      -7.7      3.697      8.712
REMARK  Name = 
REMARK  4 active torsions:
REMARK  status: ('A' for Active; 'I' for Inactive)
REMARK    1  A    between atoms: C_7  and  C_8
REMARK    2  A    between atoms: C_11  and  C_12
REMARK    3  A    between atoms: C_14  and  N_15
REMARK    4  A    between atoms: C_20  and  O_21
REMARK                            x       y       z     vdW  Elec       q    Type
REMARK                         _______ _______ _______ _____ _____    ______ ____
ROOT
ATOM      1  C   UNL     1       5.421   4.981  17.632  0.00  0.00    +0.000 A 
ATOM      2  C   UNL     1       6.742   4.799  18.015  0.00  0.00    +0.000 A 
ATOM      3  C   UNL     1       7.490   4.526  16.848  0.00  0.00    +0.000 A 
ATOM      4  C   UNL     1       6.605   4.566  15.793  0.00  0.00    +0.000 A 
ATOM      5  O   UNL     1       5.351   4.835  16.266  0.00  0.00    +0.000 OA
ENDROOT
BRANCH   1  12
ATOM      6  O   UNL     1      -0.020   2.207  19.380  0.00  0.00    +0.000 OA
ATOM      7  C   UNL     1       0.963   2.900  19.138  0.00  0.00    +0.000 C 
ATOM      8  N   UNL     1       1.087   4.160  19.632  0.00  0.00    +0.000 N 
ATOM      9  C   UNL     1       2.145   5.004  19.459  0.00  0.00    +0.000 C 
ATOM     10  O   UNL     1       2.150   6.121  19.966  0.00  0.00    +0.000 OA
ATOM     11  C   UNL     1       3.261   4.470  18.636  0.00  0.00    +0.000 C 
ATOM     12  C   UNL     1       4.295   5.305  18.428  0.00  0.00    +0.000 C 
ATOM     13  C   UNL     1       3.166   3.085  18.105  0.00  0.00    +0.000 C 
ATOM     14  O   UNL     1       4.053   2.502  17.494  0.00  0.00    +0.000 OA
ATOM     15  N   UNL     1       1.989   2.441  18.375  0.00  0.00    +0.000 N 
ATOM     16  H   UNL     1       0.320   4.500  20.196  0.00  0.00    +0.000 HD
ATOM     17  H   UNL     1       1.912   1.494  18.032  0.00  0.00    +0.000 HD
ENDBRANCH   1  12
BRANCH   4  18
ATOM     18  C   UNL     1       6.737   4.427  14.345  0.00  0.00    +0.000 A 
ATOM     19  C   UNL     1       5.923   3.518  13.645  0.00  0.00    +0.000 A 
ATOM     20  C   UNL     1       6.035   3.398  12.251  0.00  0.00    +0.000 A 
ATOM     21  C   UNL     1       6.954   4.177  11.536  0.00  0.00    +0.000 A 
ATOM     22  C   UNL     1       7.772   5.073  12.223  0.00  0.00    +0.000 A 
ATOM     23  C   UNL     1       7.665   5.191  13.611  0.00  0.00    +0.000 A 
BRANCH  20  24
ATOM     24  N   UNL     1       5.180   2.449  11.524  0.00  0.00    +0.000 N 
ATOM     25  O   UNL     1       4.061   2.840  11.161  0.00  0.00    +0.000 OA
ATOM     26  O   UNL     1       5.628   1.313  11.315  0.00  0.00    +0.000 OA
ENDBRANCH  20  24
BRANCH  23  27
ATOM     27  O   UNL     1       8.476   6.085  14.257  0.00  0.00    +0.000 OA
ATOM     28  H   UNL     1       8.475   5.899  15.210  0.00  0.00    +0.000 HD
ENDBRANCH  23  27
ENDBRANCH   4  18
TORSDOF 4
ENDMDL
MODEL 5
REMARK VINA RESULT:      -7.6      1.552      8.355
REMARK  Name = 
REMARK  4 active torsions:
REMARK  status: ('A' for Active; 'I' for Inactive)
REMARK    1  A    between atoms: C_7  and  C_8
REMARK    2  A    between atoms: C_11  and  C_12
REMARK    3  A    between atoms: C_14  and  N_15
REMARK    4  A    between atoms: C_20  and  O_21
REMARK                            x       y       z     vdW  Elec       q    Type
REMARK                         _______ _______ _______ _____ _____    ______ ____
ROOT
ATOM      1  C   UNL     1       2.205   7.509  18.169  0.00  0.00    +0.000 A 
ATOM      2  C   UNL     1       1.559   6.285  18.248  0.00  0.00    +0.000 A 
ATOM      3  C   UNL     1       2.501   5.285  17.918  0.00  0.00    +0.000 A 
ATOM      4  C   UNL     1       3.691   5.931  17.665  0.00  0.00    +0.000 A 
ATOM      5  O   UNL     1       3.513   7.278  17.810  0.00  0.00    +0.000 OA
ENDROOT
BRANCH   1  12
ATOM      6  O   UNL     1      -0.183  10.662  23.141  0.00  0.00    +0.000 OA
ATOM      7  C   UNL     1       0.236  10.214  22.078  0.00  0.00    +0.000 C 
ATOM      8  N   UNL     1       0.250  10.964  20.945  0.00  0.00    +0.000 N 
ATOM      9  C   UNL     1       0.722  10.585  19.722  0.00  0.00    +0.000 C 
ATOM     10  O   UNL     1       0.693  11.357  18.768  0.00  0.00    +0.000 OA
ATOM     11  C   UNL     1       1.264   9.204  19.645  0.00  0.00    +0.000 C 
ATOM     12  C   UNL     1       1.700   8.806  18.436  0.00  0.00    +0.000 C 
ATOM     13  C   UNL     1       1.286   8.369  20.874  0.00  0.00    +0.000 C 
ATOM     14  O   UNL     1       1.788   7.256  20.961  0.00  0.00    +0.000 OA
ATOM     15  N   UNL     1       0.721   8.950  21.978  0.00  0.00    +0.000 N 
ATOM     16  H   UNL     1      -0.116  11.903  21.021  0.00  0.00    +0.000 HD
ATOM     17  H   UNL     1       0.738   8.401  22.826  0.00  0.00    +0.000 HD
ENDBRANCH   1  12
BRANCH   4  18
ATOM     18  C   UNL     1       5.042   5.487  17.331  0.00  0.00    +0.000 A 
ATOM     19  C   UNL     1       5.435   5.371  15.985  0.00  0.00    +0.000 A 
ATOM     20  C   UNL     1       6.739   4.964  15.662  0.00  0.00    +0.000 A 
ATOM     21  C   UNL     1       7.667   4.668  16.670  0.00  0.00    +0.000 A 
ATOM     22  C   UNL     1       7.284   4.773  18.006  0.00  0.00    +0.000 A 
ATOM     23  C   UNL     1       5.985   5.173  18.328  0.00  0.00    +0.000 A 
BRANCH  20  24
ATOM     24  N   UNL     1       7.146   4.846  14.256  0.00  0.00    +0.000 N 
ATOM     25  O   UNL     1       6.556   4.014  13.551  0.00  0.00    +0.000 OA
ATOM     26  O   UNL     1       8.055   5.586  13.855  0.00  0.00    +0.000 OA
ENDBRANCH  20  24
BRANCH  23  27
ATOM     27  O   UNL     1       5.639   5.273  19.650  0.00  0.00    +0.000 OA
ATOM     28  H   UNL     1       5.296   6.163  19.833  0.00  0.00    +0.000 HD
ENDBRANCH  23  27
ENDBRANCH   4  18
TORSDOF 4
ENDMDL
MODEL 6
REMARK VINA RESULT:      -7.4      1.258      2.142
REMARK  Name = 
REMARK  4 active torsions:
REMARK  status: ('A' for Active; 'I' for Inactive)
REMARK    1  A    between atoms: C_7  and  C_8
REMARK    2  A    between atoms: C_11  and  C_12
REMARK    3  A    between atoms: C_14  and  N_15
REMARK    4  A    between atoms: C_20  and  O_21
REMARK                            x       y       z     vdW  Elec       q    Type
REMARK                         _______ _______ _______ _____ _____    ______ ____
ROOT
ATOM      1  C   UNL     1       3.119   6.620  18.212  0.00  0.00    +0.000 A 
ATOM      2  C   UNL     1       2.408   5.733  19.007  0.00  0.00    +0.000 A 
ATOM      3  C   UNL     1       1.543   6.494  19.824  0.00  0.00    +0.000 A 
ATOM      4  C   UNL     1       1.744   7.815  19.491  0.00  0.00    +0.000 A 
ATOM      5  O   UNL     1       2.703   7.894  18.520  0.00  0.00    +0.000 OA
ENDROOT
BRANCH   1  12
ATOM      6  O   UNL     1       8.887   3.978  17.872  0.00  0.00    +0.000 OA
ATOM      7  C   UNL     1       7.797   4.528  17.748  0.00  0.00    +0.000 C 
ATOM      8  N   UNL     1       7.364   4.987  16.545  0.00  0.00    +0.000 N 
ATOM      9  C   UNL     1       6.163   5.580  16.282  0.00  0.00    +0.000 C 
ATOM     10  O   UNL     1       5.876   5.946  15.146  0.00  0.00    +0.000 OA
ATOM     11  C   UNL     1       5.257   5.733  17.449  0.00  0.00    +0.000 C 
ATOM     12  C   UNL     1       4.084   6.348  17.211  0.00  0.00    +0.000 C 
ATOM     13  C   UNL     1       5.692   5.216  18.772  0.00  0.00    +0.000 C 
ATOM     14  O   UNL     1       5.003   5.199  19.785  0.00  0.00    +0.000 OA
ATOM     15  N   UNL     1       6.957   4.695  18.802  0.00  0.00    +0.000 N 
ATOM     16  H   UNL     1       7.993   4.866  15.762  0.00  0.00    +0.000 HD
ATOM     17  H   UNL     1       7.265   4.327  19.691  0.00  0.00    +0.000 HD
ENDBRANCH   1  12
BRANCH   4  18
ATOM     18  C   UNL     1       1.144   9.078  19.915  0.00  0.00    +0.000 A 
ATOM     19  C   UNL     1       0.635   9.217  21.219  0.00  0.00    +0.000 A 
ATOM     20  C   UNL     1       0.076  10.435  21.633  0.00  0.00    +0.000 A 
ATOM     21  C   UNL     1       0.015  11.529  20.760  0.00  0.00    +0.000 A 
ATOM     22  C   UNL     1       0.508  11.398  19.462  0.00  0.00    +0.000 A 
ATOM     23  C   UNL     1       1.061  10.184  19.047  0.00  0.00    +0.000 A 
BRANCH  20  24
ATOM     24  N   UNL     1      -0.451  10.576  22.997  0.00  0.00    +0.000 N 
ATOM     25  O   UNL     1       0.039   9.862  23.883  0.00  0.00    +0.000 OA
ATOM     26  O   UNL     1      -1.357  11.402  23.182  0.00  0.00    +0.000 OA
ENDBRANCH  20  24
BRANCH  23  27
ATOM     27  O   UNL     1       1.544  10.087  17.769  0.00  0.00    +0.000 OA
ATOM     28  H   UNL     1       2.505   9.948  17.792  0.00  0.00    +0.000 HD
ENDBRANCH  23  27
ENDBRANCH   4  18
TORSDOF 4
ENDMDL
MODEL 7
REMARK VINA RESULT:      -7.4      3.228      8.468
REMARK  Name = 
REMARK  4 active torsions:
REMARK  status: ('A' for Active; 'I' for Inactive)
REMARK    1  A    between atoms: C_7  and  C_8
REMARK    2  A    between atoms: C_11  and  C_12
REMARK    3  A    between atoms: C_14  and  N_15
REMARK    4  A    between atoms: C_20  and  O_21
REMARK                            x       y       z     vdW  Elec       q    Type
REMARK                         _______ _______ _______ _____ _____    ______ ____
ROOT
ATOM      1  C   UNL     1       0.872  10.057  18.858  0.00  0.00    +0.000 A 
ATOM      2  C   UNL     1       1.851  10.226  17.890  0.00  0.00    +0.000 A 
ATOM      3  C   UNL     1       2.570   9.013  17.797  0.00  0.00    +0.000 A 
ATOM      4  C   UNL     1       1.996   8.142  18.696  0.00  0.00    +0.000 A 
ATOM      5  O   UNL     1       0.973   8.774  19.345  0.00  0.00    +0.000 OA
ENDROOT
BRANCH   1  12
ATOM      6  O   UNL     1      -4.984  11.786  17.103  0.00  0.00    +0.000 OA
ATOM      7  C   UNL     1      -3.868  11.594  17.576  0.00  0.00    +0.000 C 
ATOM      8  N   UNL     1      -3.417  12.300  18.646  0.00  0.00    +0.000 N 
ATOM      9  C   UNL     1      -2.214  12.148  19.274  0.00  0.00    +0.000 C 
ATOM     10  O   UNL     1      -1.919  12.838  20.245  0.00  0.00    +0.000 OA
ATOM     11  C   UNL     1      -1.323  11.104  18.707  0.00  0.00    +0.000 C 
ATOM     12  C   UNL     1      -0.120  10.968  19.295  0.00  0.00    +0.000 C 
ATOM     13  C   UNL     1      -1.800  10.298  17.553  0.00  0.00    +0.000 C 
ATOM     14  O   UNL     1      -1.200   9.353  17.057  0.00  0.00    +0.000 OA
ATOM     15  N   UNL     1      -3.028  10.658  17.065  0.00  0.00    +0.000 N 
ATOM     16  H   UNL     1      -4.041  12.999  19.022  0.00  0.00    +0.000 HD
ATOM     17  H   UNL     1      -3.373  10.112  16.288  0.00  0.00    +0.000 HD
ENDBRANCH   1  12
BRANCH   4  18
ATOM     18  C   UNL     1       2.224   6.743  19.050  0.00  0.00    +0.000 A 
ATOM     19  C   UNL     1       2.571   5.810  18.056  0.00  0.00    +0.000 A 
ATOM     20  C   UNL     1       2.809   4.470  18.397  0.00  0.00    +0.000 A 
ATOM     21  C   UNL     1       2.705   4.040  19.727  0.00  0.00    +0.000 A 
ATOM     22  C   UNL     1       2.353   4.956  20.717  0.00  0.00    +0.000 A 
ATOM     23  C   UNL     1       2.111   6.289  20.378  0.00  0.00    +0.000 A 
BRANCH  20  24
ATOM     24  N   UNL     1       3.173   3.499  17.356  0.00  0.00    +0.000 N 
ATOM     25  O   UNL     1       4.296   3.599  16.841  0.00  0.00    +0.000 OA
ATOM     26  O   UNL     1       2.337   2.637  17.054  0.00  0.00    +0.000 OA
ENDBRANCH  20  24
BRANCH  23  27
ATOM     27  O   UNL     1       1.774   7.168  21.373  0.00  0.00    +0.000 OA
ATOM     28  H   UNL     1       0.990   7.676  21.110  0.00  0.00    +0.000 HD
ENDBRANCH  23  27
ENDBRANCH   4  18
TORSDOF 4
ENDMDL
MODEL 8
REMARK VINA RESULT:      -7.4      2.560      3.611
REMARK  Name = 
REMARK  4 active torsions:
REMARK  status: ('A' for Active; 'I' for Inactive)
REMARK    1  A    between atoms: C_7  and  C_8
REMARK    2  A    between atoms: C_11  and  C_12
REMARK    3  A    between atoms: C_14  and  N_15
REMARK    4  A    between atoms: C_20  and  O_21
REMARK                            x       y       z     vdW  Elec       q    Type
REMARK                         _______ _______ _______ _____ _____    ______ ____
ROOT
ATOM      1  C   UNL     1       3.151   7.274  18.581  0.00  0.00    +0.000 A 
ATOM      2  C   UNL     1       2.702   7.894  17.425  0.00  0.00    +0.000 A 
ATOM      3  C   UNL     1       1.698   8.815  17.799  0.00  0.00    +0.000 A 
ATOM      4  C   UNL     1       1.580   8.737  19.169  0.00  0.00    +0.000 A 
ATOM      5  O   UNL     1       2.454   7.799  19.644  0.00  0.00    +0.000 OA
ENDROOT
BRANCH   1  12
ATOM      6  O   UNL     1       3.592   0.936  18.571  0.00  0.00    +0.000 OA
ATOM      7  C   UNL     1       3.697   2.158  18.620  0.00  0.00    +0.000 C 
ATOM      8  N   UNL     1       4.890   2.761  18.861  0.00  0.00    +0.000 N 
ATOM      9  C   UNL     1       5.131   4.104  18.903  0.00  0.00    +0.000 C 
ATOM     10  O   UNL     1       6.260   4.535  19.119  0.00  0.00    +0.000 OA
ATOM     11  C   UNL     1       3.951   4.973  18.663  0.00  0.00    +0.000 C 
ATOM     12  C   UNL     1       4.168   6.300  18.736  0.00  0.00    +0.000 C 
ATOM     13  C   UNL     1       2.638   4.342  18.370  0.00  0.00    +0.000 C 
ATOM     14  O   UNL     1       1.617   4.946  18.066  0.00  0.00    +0.000 OA
ATOM     15  N   UNL     1       2.630   2.974  18.421  0.00  0.00    +0.000 N 
ATOM     16  H   UNL     1       5.681   2.151  19.013  0.00  0.00    +0.000 HD
ATOM     17  H   UNL     1       1.748   2.527  18.212  0.00  0.00    +0.000 HD
ENDBRANCH   1  12
BRANCH   4  18
ATOM     18  C   UNL     1       0.780   9.443  20.166  0.00  0.00    +0.000 A 
ATOM     19  C   UNL     1      -0.141  10.429  19.766  0.00  0.00    +0.000 A 
ATOM     20  C   UNL     1      -0.923  11.094  20.722  0.00  0.00    +0.000 A 
ATOM     21  C   UNL     1      -0.802  10.790  22.084  0.00  0.00    +0.000 A 
ATOM     22  C   UNL     1       0.114   9.822  22.491  0.00  0.00    +0.000 A 
ATOM     23  C   UNL     1       0.897   9.162  21.541  0.00  0.00    +0.000 A 
BRANCH  20  24
ATOM     24  N   UNL     1      -1.886  12.121  20.299  0.00  0.00    +0.000 N 
ATOM     25  O   UNL     1      -1.771  12.584  19.155  0.00  0.00    +0.000 OA
ATOM     26  O   UNL     1      -2.756  12.464  21.111  0.00  0.00    +0.000 OA
ENDBRANCH  20  24
BRANCH  23  27
ATOM     27  O   UNL     1       1.784   8.210  21.970  0.00  0.00    +0.000 OA
ATOM     28  H   UNL     1       2.655   8.614  22.113  0.00  0.00    +0.000 HD
ENDBRANCH  23  27
ENDBRANCH   4  18
TORSDOF 4
ENDMDL
MODEL 9
REMARK VINA RESULT:      -7.3      3.351      4.734
REMARK  Name = 
REMARK  4 active torsions:
REMARK  status: ('A' for Active; 'I' for Inactive)
REMARK    1  A    between atoms: C_7  and  C_8
REMARK    2  A    between atoms: C_11  and  C_12
REMARK    3  A    between atoms: C_14  and  N_15
REMARK    4  A    between atoms: C_20  and  O_21
REMARK                            x       y       z     vdW  Elec       q    Type
REMARK                         _______ _______ _______ _____ _____    ______ ____
ROOT
ATOM      1  C   UNL     1       6.950   5.579  17.088  0.00  0.00    +0.000 A 
ATOM      2  C   UNL     1       7.699   5.502  18.252  0.00  0.00    +0.000 A 
ATOM      3  C   UNL     1       6.795   5.392  19.333  0.00  0.00    +0.000 A 
ATOM      4  C   UNL     1       5.529   5.391  18.791  0.00  0.00    +0.000 A 
ATOM      5  O   UNL     1       5.620   5.511  17.433  0.00  0.00    +0.000 OA
ENDROOT
BRANCH   1  12
ATOM      6  O   UNL     1       5.921   2.517  11.617  0.00  0.00    +0.000 OA
ATOM      7  C   UNL     1       6.252   3.212  12.573  0.00  0.00    +0.000 C 
ATOM      8  N   UNL     1       7.161   4.214  12.445  0.00  0.00    +0.000 N 
ATOM      9  C   UNL     1       7.577   5.068  13.425  0.00  0.00    +0.000 C 
ATOM     10  O   UNL     1       8.400   5.948  13.187  0.00  0.00    +0.000 OA
ATOM     11  C   UNL     1       6.964   4.856  14.761  0.00  0.00    +0.000 C 
ATOM     12  C   UNL     1       7.391   5.669  15.745  0.00  0.00    +0.000 C 
ATOM     13  C   UNL     1       5.947   3.785  14.925  0.00  0.00    +0.000 C 
ATOM     14  O   UNL     1       5.305   3.572  15.947  0.00  0.00    +0.000 OA
ATOM     15  N   UNL     1       5.719   3.027  13.808  0.00  0.00    +0.000 N 
ATOM     16  H   UNL     1       7.560   4.346  11.526  0.00  0.00    +0.000 HD
ATOM     17  H   UNL     1       5.021   2.302  13.899  0.00  0.00    +0.000 HD
ENDBRANCH   1  12
BRANCH   4  18
ATOM     18  C   UNL     1       4.183   5.254  19.342  0.00  0.00    +0.000 A 
ATOM     19  C   UNL     1       3.870   4.173  20.185  0.00  0.00    +0.000 A 
ATOM     20  C   UNL     1       2.583   4.051  20.731  0.00  0.00    +0.000 A 
ATOM     21  C   UNL     1       1.592   5.001  20.447  0.00  0.00    +0.000 A 
ATOM     22  C   UNL     1       1.890   6.071  19.605  0.00  0.00    +0.000 A 
ATOM     23  C   UNL     1       3.170   6.190  19.058  0.00  0.00    +0.000 A 
BRANCH  20  24
ATOM     24  N   UNL     1       2.262   2.921  21.613  0.00  0.00    +0.000 N 
ATOM     25  O   UNL     1       1.079   2.772  21.954  0.00  0.00    +0.000 OA
ATOM     26  O   UNL     1       3.193   2.183  21.966  0.00  0.00    +0.000 OA
ENDBRANCH  20  24
BRANCH  23  27
ATOM     27  O   UNL     1       3.436   7.256  18.240  0.00  0.00    +0.000 OA
ATOM     28  H   UNL     1       3.185   7.040  17.327  0.00  0.00    +0.000 HD
ENDBRANCH  23  27
ENDBRANCH   4  18
TORSDOF 4
ENDMDL
