MODEL 1
REMARK VINA RESULT:      -6.7      0.000      0.000
REMARK  Name = 
REMARK  4 active torsions:
REMARK  status: ('A' for Active; 'I' for Inactive)
REMARK    1  A    between atoms: C_1  and  C_2
REMARK    2  A    between atoms: C_2  and  N_3
REMARK    3  A    between atoms: N_3  and  C_4
REMARK    4  A    between atoms: C_4  and  C_5
REMARK                            x       y       z     vdW  Elec       q    Type
REMARK                         _______ _______ _______ _____ _____    ______ ____
ROOT
ATOM      1  N   UNL     1       1.938   3.732  18.810  0.00  0.00    +0.000 N 
ATOM      2  C   UNL     1       2.732   4.699  18.207  0.00  0.00    +0.000 C 
ATOM      3  O   UNL     1       3.232   4.467  17.097  0.00  0.00    +0.000 OA
ATOM      4  N   UNL     1       2.963   5.927  18.788  0.00  0.00    +0.000 N 
ATOM      5  C   UNL     1       3.495   6.996  17.926  0.00  0.00    +0.000 C 
ATOM      6  C   UNL     1       2.464   8.119  17.788  0.00  0.00    +0.000 C 
ATOM      7  N   UNL     1       1.824   8.414  19.057  0.00  0.00    +0.000 N 
ATOM      8  C   UNL     1       1.911   7.599  20.165  0.00  0.00    +0.000 A 
ATOM      9  N   UNL     1       1.157   8.056  21.144  0.00  0.00    +0.000 NA
ATOM     10  C   UNL     1       0.580   9.208  20.654  0.00  0.00    +0.000 A 
ATOM     11  C   UNL     1      -0.308  10.097  21.278  0.00  0.00    +0.000 A 
ATOM     12  C   UNL     1      -0.748  11.221  20.568  0.00  0.00    +0.000 A 
ATOM     13  C   UNL     1      -0.319  11.453  19.259  0.00  0.00    +0.000 A 
ATOM     14  C   UNL     1       0.559  10.574  18.616  0.00  0.00    +0.000 A 
ATOM     15  C   UNL     1       0.991   9.461  19.347  0.00  0.00    +0.000 A 
ATOM     16  C   UNL     1       2.801   6.394  20.168  0.00  0.00    +0.000 C 
ENDROOT
BRANCH   1  18
ATOM     17  C   UNL     1       3.134   1.563  18.436  0.00  0.00    +0.000 C 
ATOM     18  C   UNL     1       1.908   2.424  18.139  0.00  0.00    +0.000 C 
ENDBRANCH   1  18
BRANCH   1  19
ATOM     19  C   UNL     1       1.129   3.912  20.020  0.00  0.00    +0.000 C 
ATOM     20  C   UNL     1       1.403   3.052  21.245  0.00  0.00    +0.000 C 
ENDBRANCH   1  19
TORSDOF 2
ENDMDL
MODEL 2
REMARK VINA RESULT:      -6.5      2.424      4.003
REMARK  Name = 
REMARK  4 active torsions:
REMARK  status: ('A' for Active; 'I' for Inactive)
REMARK    1  A    between atoms: C_1  and  C_2
REMARK    2  A    between atoms: C_2  and  N_3
REMARK    3  A    between atoms: N_3  and  C_4
REMARK    4  A    between atoms: C_4  and  C_5
REMARK                            x       y       z     vdW  Elec       q    Type
REMARK                         _______ _______ _______ _____ _____    ______ ____
ROOT
ATOM      1  N   UNL     1       6.364   5.711  18.099  0.00  0.00    +0.000 N 
ATOM      2  C   UNL     1       5.298   5.012  18.650  0.00  0.00    +0.000 C 
ATOM      3  O   UNL     1       5.521   4.003  19.333  0.00  0.00    +0.000 OA
ATOM      4  N   UNL     1       3.991   5.420  18.490  0.00  0.00    +0.000 N 
ATOM      5  C   UNL     1       2.985   4.846  19.398  0.00  0.00    +0.000 C 
ATOM      6  C   UNL     1       2.403   5.940  20.296  0.00  0.00    +0.000 C 
ATOM      7  N   UNL     1       2.147   7.160  19.553  0.00  0.00    +0.000 N 
ATOM      8  C   UNL     1       2.636   7.401  18.287  0.00  0.00    +0.000 A 
ATOM      9  N   UNL     1       2.333   8.620  17.891  0.00  0.00    +0.000 NA
ATOM     10  C   UNL     1       1.616   9.174  18.930  0.00  0.00    +0.000 A 
ATOM     11  C   UNL     1       1.045  10.451  19.039  0.00  0.00    +0.000 A 
ATOM     12  C   UNL     1       0.340  10.778  20.205  0.00  0.00    +0.000 A 
ATOM     13  C   UNL     1       0.212   9.855  21.245  0.00  0.00    +0.000 A 
ATOM     14  C   UNL     1       0.783   8.580  21.159  0.00  0.00    +0.000 A 
ATOM     15  C   UNL     1       1.476   8.273  19.983  0.00  0.00    +0.000 A 
ATOM     16  C   UNL     1       3.371   6.338  17.529  0.00  0.00    +0.000 C 
ENDROOT
BRANCH   1  18
ATOM     17  C   UNL     1       8.381   5.396  19.550  0.00  0.00    +0.000 C 
ATOM     18  C   UNL     1       7.681   5.070  18.233  0.00  0.00    +0.000 C 
ENDBRANCH   1  18
BRANCH   1  19
ATOM     19  C   UNL     1       6.288   7.014  17.430  0.00  0.00    +0.000 C 
ATOM     20  C   UNL     1       7.494   7.941  17.448  0.00  0.00    +0.000 C 
ENDBRANCH   1  19
TORSDOF 2
ENDMDL
MODEL 3
REMARK VINA RESULT:      -6.2      3.617      5.773
REMARK  Name = 
REMARK  4 active torsions:
REMARK  status: ('A' for Active; 'I' for Inactive)
REMARK    1  A    between atoms: C_1  and  C_2
REMARK    2  A    between atoms: C_2  and  N_3
REMARK    3  A    between atoms: N_3  and  C_4
REMARK    4  A    between atoms: C_4  and  C_5
REMARK                            x       y       z     vdW  Elec       q    Type
REMARK                         _______ _______ _______ _____ _____    ______ ____
ROOT
ATOM      1  N   UNL     1       6.488   5.197  15.645  0.00  0.00    +0.000 N 
ATOM      2  C   UNL     1       5.532   6.149  15.975  0.00  0.00    +0.000 C 
ATOM      3  O   UNL     1       5.088   6.894  15.091  0.00  0.00    +0.000 OA
ATOM      4  N   UNL     1       5.036   6.278  17.253  0.00  0.00    +0.000 N 
ATOM      5  C   UNL     1       3.788   7.042  17.423  0.00  0.00    +0.000 C 
ATOM      6  C   UNL     1       2.670   6.119  17.912  0.00  0.00    +0.000 C 
ATOM      7  N   UNL     1       3.143   5.201  18.932  0.00  0.00    +0.000 N 
ATOM      8  C   UNL     1       4.476   4.986  19.208  0.00  0.00    +0.000 A 
ATOM      9  N   UNL     1       4.621   4.035  20.108  0.00  0.00    +0.000 NA
ATOM     10  C   UNL     1       3.341   3.638  20.430  0.00  0.00    +0.000 A 
ATOM     11  C   UNL     1       2.913   2.659  21.339  0.00  0.00    +0.000 A 
ATOM     12  C   UNL     1       1.538   2.447  21.504  0.00  0.00    +0.000 A 
ATOM     13  C   UNL     1       0.607   3.189  20.773  0.00  0.00    +0.000 A 
ATOM     14  C   UNL     1       1.015   4.163  19.855  0.00  0.00    +0.000 A 
ATOM     15  C   UNL     1       2.393   4.363  19.711  0.00  0.00    +0.000 A 
ATOM     16  C   UNL     1       5.542   5.804  18.545  0.00  0.00    +0.000 C 
ENDROOT
BRANCH   1  18
ATOM     17  C   UNL     1       6.549   4.150  13.370  0.00  0.00    +0.000 C 
ATOM     18  C   UNL     1       7.025   5.282  14.278  0.00  0.00    +0.000 C 
ENDBRANCH   1  18
BRANCH   1  19
ATOM     19  C   UNL     1       6.977   4.126  16.519  0.00  0.00    +0.000 C 
ATOM     20  C   UNL     1       7.980   4.449  17.617  0.00  0.00    +0.000 C 
ENDBRANCH   1  19
TORSDOF 2
ENDMDL
MODEL 4
REMARK VINA RESULT:      -6.1      1.995      3.554
REMARK  Name = 
REMARK  4 active torsions:
REMARK  status: ('A' for Active; 'I' for Inactive)
REMARK    1  A    between atoms: C_1  and  C_2
REMARK    2  A    between atoms: C_2  and  N_3
REMARK    3  A    between atoms: N_3  and  C_4
REMARK    4  A    between atoms: C_4  and  C_5
REMARK                            x       y       z     vdW  Elec       q    Type
REMARK                         _______ _______ _______ _____ _____    ______ ____
ROOT
ATOM      1  N   UNL     1       5.384   5.553  18.130  0.00  0.00    +0.000 N 
ATOM      2  C   UNL     1       4.334   5.149  18.944  0.00  0.00    +0.000 C 
ATOM      3  O   UNL     1       4.525   4.258  19.783  0.00  0.00    +0.000 OA
ATOM      4  N   UNL     1       3.086   5.729  18.874  0.00  0.00    +0.000 N 
ATOM      5  C   UNL     1       2.167   5.500  20.002  0.00  0.00    +0.000 C 
ATOM      6  C   UNL     1       1.888   6.819  20.726  0.00  0.00    +0.000 C 
ATOM      7  N   UNL     1       1.685   7.910  19.790  0.00  0.00    +0.000 N 
ATOM      8  C   UNL     1       1.996   7.834  18.450  0.00  0.00    +0.000 A 
ATOM      9  N   UNL     1       1.801   8.994  17.857  0.00  0.00    +0.000 NA
ATOM     10  C   UNL     1       1.338   9.836  18.845  0.00  0.00    +0.000 A 
ATOM     11  C   UNL     1       0.969  11.188  18.766  0.00  0.00    +0.000 A 
ATOM     12  C   UNL     1       0.508  11.831  19.921  0.00  0.00    +0.000 A 
ATOM     13  C   UNL     1       0.423  11.145  21.135  0.00  0.00    +0.000 A 
ATOM     14  C   UNL     1       0.796   9.800  21.237  0.00  0.00    +0.000 A 
ATOM     15  C   UNL     1       1.247   9.176  20.068  0.00  0.00    +0.000 A 
ATOM     16  C   UNL     1       2.451   6.546  17.835  0.00  0.00    +0.000 C 
ENDROOT
BRANCH   1  18
ATOM     17  C   UNL     1       7.821   5.529  18.707  0.00  0.00    +0.000 C 
ATOM     18  C   UNL     1       6.607   4.741  18.220  0.00  0.00    +0.000 C 
ENDBRANCH   1  18
BRANCH   1  19
ATOM     19  C   UNL     1       5.380   6.708  17.225  0.00  0.00    +0.000 C 
ATOM     20  C   UNL     1       5.260   6.489  15.725  0.00  0.00    +0.000 C 
ENDBRANCH   1  19
TORSDOF 2
ENDMDL
MODEL 5
REMARK VINA RESULT:      -5.8      3.545      7.252
REMARK  Name = 
REMARK  4 active torsions:
REMARK  status: ('A' for Active; 'I' for Inactive)
REMARK    1  A    between atoms: C_1  and  C_2
REMARK    2  A    between atoms: C_2  and  N_3
REMARK    3  A    between atoms: N_3  and  C_4
REMARK    4  A    between atoms: C_4  and  C_5
REMARK                            x       y       z     vdW  Elec       q    Type
REMARK                         _______ _______ _______ _____ _____    ______ ____
ROOT
ATOM      1  N   UNL     1      -3.123  11.810  18.455  0.00  0.00    +0.000 N 
ATOM      2  C   UNL     1      -2.444  11.868  19.665  0.00  0.00    +0.000 C 
ATOM      3  O   UNL     1      -3.075  12.101  20.705  0.00  0.00    +0.000 OA
ATOM      4  N   UNL     1      -1.087  11.646  19.756  0.00  0.00    +0.000 N 
ATOM      5  C   UNL     1      -0.533  11.366  21.092  0.00  0.00    +0.000 C 
ATOM      6  C   UNL     1       0.012   9.936  21.144  0.00  0.00    +0.000 C 
ATOM      7  N   UNL     1       0.739   9.598  19.934  0.00  0.00    +0.000 N 
ATOM      8  C   UNL     1       0.690  10.348  18.779  0.00  0.00    +0.000 A 
ATOM      9  N   UNL     1       1.365   9.761  17.811  0.00  0.00    +0.000 NA
ATOM     10  C   UNL     1       1.873   8.606  18.367  0.00  0.00    +0.000 A 
ATOM     11  C   UNL     1       2.669   7.610  17.783  0.00  0.00    +0.000 A 
ATOM     12  C   UNL     1       3.078   6.525  18.568  0.00  0.00    +0.000 A 
ATOM     13  C   UNL     1       2.695   6.429  19.908  0.00  0.00    +0.000 A 
ATOM     14  C   UNL     1       1.892   7.407  20.507  0.00  0.00    +0.000 A 
ATOM     15  C   UNL     1       1.502   8.486  19.704  0.00  0.00    +0.000 A 
ATOM     16  C   UNL     1      -0.029  11.661  18.741  0.00  0.00    +0.000 C 
ENDROOT
BRANCH   1  18
ATOM     17  C   UNL     1      -5.506  11.050  18.309  0.00  0.00    +0.000 C 
ATOM     18  C   UNL     1      -4.537  12.215  18.500  0.00  0.00    +0.000 C 
ENDBRANCH   1  18
BRANCH   1  19
ATOM     19  C   UNL     1      -2.566  11.368  17.173  0.00  0.00    +0.000 C 
ATOM     20  C   UNL     1      -2.502   9.882  16.851  0.00  0.00    +0.000 C 
ENDBRANCH   1  19
TORSDOF 2
ENDMDL
MODEL 6
REMARK VINA RESULT:      -5.6      4.160      6.457
REMARK  Name = 
REMARK  4 active torsions:
REMARK  status: ('A' for Active; 'I' for Inactive)
REMARK    1  A    between atoms: C_1  and  C_2
REMARK    2  A    between atoms: C_2  and  N_3
REMARK    3  A    between atoms: N_3  and  C_4
REMARK    4  A    between atoms: C_4  and  C_5
REMARK                            x       y       z     vdW  Elec       q    Type
REMARK                         _______ _______ _______ _____ _____    ______ ____
ROOT
ATOM      1  N   UNL     1       6.393   5.018  14.484  0.00  0.00    +0.000 N 
ATOM      2  C   UNL     1       6.832   5.265  15.778  0.00  0.00    +0.000 C 
ATOM      3  O   UNL     1       7.617   6.201  15.985  0.00  0.00    +0.000 OA
ATOM      4  N   UNL     1       6.402   4.519  16.854  0.00  0.00    +0.000 N 
ATOM      5  C   UNL     1       6.625   5.076  18.198  0.00  0.00    +0.000 C 
ATOM      6  C   UNL     1       5.283   5.388  18.865  0.00  0.00    +0.000 C 
ATOM      7  N   UNL     1       4.312   4.334  18.630  0.00  0.00    +0.000 N 
ATOM      8  C   UNL     1       4.478   3.338  17.692  0.00  0.00    +0.000 A 
ATOM      9  N   UNL     1       3.405   2.576  17.624  0.00  0.00    +0.000 NA
ATOM     10  C   UNL     1       2.531   3.090  18.557  0.00  0.00    +0.000 A 
ATOM     11  C   UNL     1       1.241   2.660  18.904  0.00  0.00    +0.000 A 
ATOM     12  C   UNL     1       0.548   3.347  19.909  0.00  0.00    +0.000 A 
ATOM     13  C   UNL     1       1.124   4.445  20.551  0.00  0.00    +0.000 A 
ATOM     14  C   UNL     1       2.405   4.896  20.213  0.00  0.00    +0.000 A 
ATOM     15  C   UNL     1       3.082   4.190  19.211  0.00  0.00    +0.000 A 
ATOM     16  C   UNL     1       5.760   3.203  16.929  0.00  0.00    +0.000 C 
ENDROOT
BRANCH   1  18
ATOM     17  C   UNL     1       8.351   5.169  12.928  0.00  0.00    +0.000 C 
ATOM     18  C   UNL     1       7.055   5.801  13.428  0.00  0.00    +0.000 C 
ENDBRANCH   1  18
BRANCH   1  19
ATOM     19  C   UNL     1       5.335   4.081  14.095  0.00  0.00    +0.000 C 
ATOM     20  C   UNL     1       5.310   3.516  12.683  0.00  0.00    +0.000 C 
ENDBRANCH   1  19
TORSDOF 2
ENDMDL
MODEL 7
REMARK VINA RESULT:      -5.6      4.427      8.063
REMARK  Name = 
REMARK  4 active torsions:
REMARK  status: ('A' for Active; 'I' for Inactive)
REMARK    1  A    between atoms: C_1  and  C_2
REMARK    2  A    between atoms: C_2  and  N_3
REMARK    3  A    between atoms: N_3  and  C_4
REMARK    4  A    between atoms: C_4  and  C_5
REMARK                            x       y       z     vdW  Elec       q    Type
REMARK                         _______ _______ _______ _____ _____    ______ ____
ROOT
ATOM      1  N   UNL     1      -4.538  12.412  20.243  0.00  0.00    +0.000 N 
ATOM      2  C   UNL     1      -3.663  12.400  21.322  0.00  0.00    +0.000 C 
ATOM      3  O   UNL     1      -4.119  12.398  22.473  0.00  0.00    +0.000 OA
ATOM      4  N   UNL     1      -2.295  12.362  21.157  0.00  0.00    +0.000 N 
ATOM      5  C   UNL     1      -1.482  11.983  22.324  0.00  0.00    +0.000 C 
ATOM      6  C   UNL     1      -0.775  10.651  22.061  0.00  0.00    +0.000 C 
ATOM      7  N   UNL     1      -0.244  10.587  20.712  0.00  0.00    +0.000 N 
ATOM      8  C   UNL     1      -0.586  11.472  19.713  0.00  0.00    +0.000 A 
ATOM      9  N   UNL     1      -0.034  11.123  18.568  0.00  0.00    +0.000 NA
ATOM     10  C   UNL     1       0.696   9.987  18.845  0.00  0.00    +0.000 A 
ATOM     11  C   UNL     1       1.484   9.202  17.990  0.00  0.00    +0.000 A 
ATOM     12  C   UNL     1       2.150   8.089  18.518  0.00  0.00    +0.000 A 
ATOM     13  C   UNL     1       2.028   7.758  19.870  0.00  0.00    +0.000 A 
ATOM     14  C   UNL     1       1.239   8.523  20.737  0.00  0.00    +0.000 A 
ATOM     15  C   UNL     1       0.589   9.635  20.189  0.00  0.00    +0.000 A 
ATOM     16  C   UNL     1      -1.447  12.663  20.000  0.00  0.00    +0.000 C 
ENDROOT
BRANCH   1  18
ATOM     17  C   UNL     1      -6.796  11.340  20.404  0.00  0.00    +0.000 C 
ATOM     18  C   UNL     1      -5.957  12.604  20.579  0.00  0.00    +0.000 C 
ENDBRANCH   1  18
BRANCH   1  19
ATOM     19  C   UNL     1      -4.173  12.232  18.834  0.00  0.00    +0.000 C 
ATOM     20  C   UNL     1      -4.075  10.829  18.255  0.00  0.00    +0.000 C 
ENDBRANCH   1  19
TORSDOF 2
ENDMDL
MODEL 8
REMARK VINA RESULT:      -5.5      4.305      7.954
REMARK  Name = 
REMARK  4 active torsions:
REMARK  status: ('A' for Active; 'I' for Inactive)
REMARK    1  A    between atoms: C_1  and  C_2
REMARK    2  A    between atoms: C_2  and  N_3
REMARK    3  A    between atoms: N_3  and  C_4
REMARK    4  A    between atoms: C_4  and  C_5
REMARK                            x       y       z     vdW  Elec       q    Type
REMARK                         _______ _______ _______ _____ _____    ______ ____
ROOT
ATOM      1  N   UNL     1      -4.480  12.113  18.763  0.00  0.00    +0.000 N 
ATOM      2  C   UNL     1      -3.741  12.372  19.910  0.00  0.00    +0.000 C 
ATOM      3  O   UNL     1      -4.331  12.630  20.968  0.00  0.00    +0.000 OA
ATOM      4  N   UNL     1      -2.364  12.323  19.922  0.00  0.00    +0.000 N 
ATOM      5  C   UNL     1      -1.699  12.244  21.234  0.00  0.00    +0.000 C 
ATOM      6  C   UNL     1      -0.977  10.902  21.376  0.00  0.00    +0.000 C 
ATOM      7  N   UNL     1      -0.288  10.534  20.152  0.00  0.00    +0.000 N 
ATOM      8  C   UNL     1      -0.501  11.154  18.940  0.00  0.00    +0.000 A 
ATOM      9  N   UNL     1       0.181  10.559  17.983  0.00  0.00    +0.000 NA
ATOM     10  C   UNL     1       0.863   9.534  18.603  0.00  0.00    +0.000 A 
ATOM     11  C   UNL     1       1.741   8.586  18.056  0.00  0.00    +0.000 A 
ATOM     12  C   UNL     1       2.330   7.641  18.905  0.00  0.00    +0.000 A 
ATOM     13  C   UNL     1       2.044   7.634  20.273  0.00  0.00    +0.000 A 
ATOM     14  C   UNL     1       1.163   8.564  20.836  0.00  0.00    +0.000 A 
ATOM     15  C   UNL     1       0.593   9.503  19.969  0.00  0.00    +0.000 A 
ATOM     16  C   UNL     1      -1.380  12.362  18.836  0.00  0.00    +0.000 C 
ENDROOT
BRANCH   1  18
ATOM     17  C   UNL     1      -6.584  12.717  17.545  0.00  0.00    +0.000 C 
ATOM     18  C   UNL     1      -5.928  12.350  18.874  0.00  0.00    +0.000 C 
ENDBRANCH   1  18
BRANCH   1  19
ATOM     19  C   UNL     1      -3.951  11.616  17.489  0.00  0.00    +0.000 C 
ATOM     20  C   UNL     1      -3.705  10.126  17.306  0.00  0.00    +0.000 C 
ENDBRANCH   1  19
TORSDOF 2
ENDMDL
MODEL 9
REMARK VINA RESULT:      -5.5      9.044     11.747
REMARK  Name = 
REMARK  4 active torsions:
REMARK  status: ('A' for Active; 'I' for Inactive)
REMARK    1  A    between atoms: C_1  and  C_2
REMARK    2  A    between atoms: C_2  and  N_3
REMARK    3  A    between atoms: N_3  and  C_4
REMARK    4  A    between atoms: C_4  and  C_5
REMARK                            x       y       z     vdW  Elec       q    Type
REMARK                         _______ _______ _______ _____ _____    ______ ____
ROOT
ATOM      1  N   UNL     1       4.814  16.265  19.514  0.00  0.00    +0.000 N 
ATOM      2  C   UNL     1       5.954  17.005  19.229  0.00  0.00    +0.000 C 
ATOM      3  O   UNL     1       6.049  18.163  19.659  0.00  0.00    +0.000 OA
ATOM      4  N   UNL     1       7.004  16.487  18.503  0.00  0.00    +0.000 N 
ATOM      5  C   UNL     1       8.291  17.199  18.569  0.00  0.00    +0.000 C 
ATOM      6  C   UNL     1       9.342  16.321  19.253  0.00  0.00    +0.000 C 
ATOM      7  N   UNL     1       9.258  14.942  18.807  0.00  0.00    +0.000 N 
ATOM      8  C   UNL     1       8.193  14.432  18.095  0.00  0.00    +0.000 A 
ATOM      9  N   UNL     1       8.333  13.136  17.906  0.00  0.00    +0.000 NA
ATOM     10  C   UNL     1       9.531  12.807  18.502  0.00  0.00    +0.000 A 
ATOM     11  C   UNL     1      10.169  11.560  18.596  0.00  0.00    +0.000 A 
ATOM     12  C   UNL     1      11.406  11.482  19.247  0.00  0.00    +0.000 A 
ATOM     13  C   UNL     1      11.994  12.621  19.803  0.00  0.00    +0.000 A 
ATOM     14  C   UNL     1      11.369  13.871  19.729  0.00  0.00    +0.000 A 
ATOM     15  C   UNL     1      10.137  13.926  19.067  0.00  0.00    +0.000 A 
ATOM     16  C   UNL     1       7.090  15.324  17.614  0.00  0.00    +0.000 C 
ENDROOT
BRANCH   1  18
ATOM     17  C   UNL     1       3.296  16.396  21.502  0.00  0.00    +0.000 C 
ATOM     18  C   UNL     1       3.723  17.003  20.168  0.00  0.00    +0.000 C 
ENDBRANCH   1  18
BRANCH   1  19
ATOM     19  C   UNL     1       4.624  14.836  19.244  0.00  0.00    +0.000 C 
ATOM     20  C   UNL     1       3.547  14.392  18.265  0.00  0.00    +0.000 C 
ENDBRANCH   1  19
TORSDOF 2
ENDMDL
