MODEL 1
REMARK VINA RESULT:      -7.4      0.000      0.000
REMARK  Name = 
REMARK  2 active torsions:
REMARK  status: ('A' for Active; 'I' for Inactive)
REMARK    1  A    between atoms: C_1  and  C_2
REMARK    2  A    between atoms: C_11  and  N_12
REMARK                            x       y       z     vdW  Elec       q    Type
REMARK                         _______ _______ _______ _____ _____    ______ ____
ROOT
ATOM      1  C   UNL     1       7.309   6.538  17.627  0.00  0.00    +0.000 C 
ATOM      2  C   UNL     1       6.692   5.732  16.525  0.00  0.00    +0.000 A 
ATOM      3  N   UNL     1       7.439   5.748  15.381  0.00  0.00    +0.000 NA
ATOM      4  C   UNL     1       7.007   5.016  14.349  0.00  0.00    +0.000 A 
ATOM      5  C   UNL     1       7.744   4.985  13.171  0.00  0.00    +0.000 A 
ATOM      6  C   UNL     1       7.325   4.234  12.072  0.00  0.00    +0.000 A 
ATOM      7  C   UNL     1       6.145   3.508  12.155  0.00  0.00    +0.000 A 
ATOM      8  C   UNL     1       5.404   3.531  13.339  0.00  0.00    +0.000 A 
ATOM      9  C   UNL     1       5.820   4.268  14.442  0.00  0.00    +0.000 A 
ATOM     10  N   UNL     1       5.091   4.258  15.575  0.00  0.00    +0.000 NA
ATOM     11  C   UNL     1       5.503   4.989  16.648  0.00  0.00    +0.000 A 
ENDROOT
BRANCH  11  12
ATOM     12  N   UNL     1       4.686   4.920  17.758  0.00  0.00    +0.000 N 
ATOM     13  C   UNL     1       5.013   3.931  18.793  0.00  0.00    +0.000 C 
ATOM     14  C   UNL     1       3.763   3.144  19.185  0.00  0.00    +0.000 C 
ATOM     15  C   UNL     1       2.628   4.078  19.594  0.00  0.00    +0.000 C 
ATOM     16  C   UNL     1       2.355   5.099  18.498  0.00  0.00    +0.000 C 
ATOM     17  C   UNL     1       3.618   5.854  18.083  0.00  0.00    +0.000 C 
ENDBRANCH  11  12
TORSDOF 1
ENDMDL
MODEL 2
REMARK VINA RESULT:      -7.1      2.306      5.906
REMARK  Name = 
REMARK  2 active torsions:
REMARK  status: ('A' for Active; 'I' for Inactive)
REMARK    1  A    between atoms: C_1  and  C_2
REMARK    2  A    between atoms: C_11  and  N_12
REMARK                            x       y       z     vdW  Elec       q    Type
REMARK                         _______ _______ _______ _____ _____    ______ ____
ROOT
ATOM      1  C   UNL     1       5.019   3.759  15.597  0.00  0.00    +0.000 C 
ATOM      2  C   UNL     1       4.388   4.095  16.913  0.00  0.00    +0.000 A 
ATOM      3  N   UNL     1       3.228   3.408  17.130  0.00  0.00    +0.000 NA
ATOM      4  C   UNL     1       2.608   3.593  18.300  0.00  0.00    +0.000 A 
ATOM      5  C   UNL     1       1.435   2.900  18.575  0.00  0.00    +0.000 A 
ATOM      6  C   UNL     1       0.758   3.067  19.783  0.00  0.00    +0.000 A 
ATOM      7  C   UNL     1       1.264   3.948  20.729  0.00  0.00    +0.000 A 
ATOM      8  C   UNL     1       2.446   4.642  20.461  0.00  0.00    +0.000 A 
ATOM      9  C   UNL     1       3.132   4.473  19.263  0.00  0.00    +0.000 A 
ATOM     10  N   UNL     1       4.277   5.146  19.040  0.00  0.00    +0.000 NA
ATOM     11  C   UNL     1       4.939   4.980  17.861  0.00  0.00    +0.000 A 
ENDROOT
BRANCH  11  12
ATOM     12  N   UNL     1       6.097   5.717  17.723  0.00  0.00    +0.000 N 
ATOM     13  C   UNL     1       7.327   5.184  18.324  0.00  0.00    +0.000 C 
ATOM     14  C   UNL     1       8.034   6.272  19.131  0.00  0.00    +0.000 C 
ATOM     15  C   UNL     1       8.277   7.518  18.285  0.00  0.00    +0.000 C 
ATOM     16  C   UNL     1       6.975   8.006  17.665  0.00  0.00    +0.000 C 
ATOM     17  C   UNL     1       6.254   6.901  16.892  0.00  0.00    +0.000 C 
ENDBRANCH  11  12
TORSDOF 1
ENDMDL
MODEL 3
REMARK VINA RESULT:      -7.1      1.859      3.168
REMARK  Name = 
REMARK  2 active torsions:
REMARK  status: ('A' for Active; 'I' for Inactive)
REMARK    1  A    between atoms: C_1  and  C_2
REMARK    2  A    between atoms: C_11  and  N_12
REMARK                            x       y       z     vdW  Elec       q    Type
REMARK                         _______ _______ _______ _____ _____    ______ ____
ROOT
ATOM      1  C   UNL     1       2.899   6.463  19.155  0.00  0.00    +0.000 C 
ATOM      2  C   UNL     1       3.579   5.539  18.191  0.00  0.00    +0.000 A 
ATOM      3  N   UNL     1       4.284   6.207  17.230  0.00  0.00    +0.000 NA
ATOM      4  C   UNL     1       4.974   5.477  16.348  0.00  0.00    +0.000 A 
ATOM      5  C   UNL     1       5.723   6.113  15.365  0.00  0.00    +0.000 A 
ATOM      6  C   UNL     1       6.455   5.386  14.425  0.00  0.00    +0.000 A 
ATOM      7  C   UNL     1       6.430   3.999  14.470  0.00  0.00    +0.000 A 
ATOM      8  C   UNL     1       5.684   3.355  15.460  0.00  0.00    +0.000 A 
ATOM      9  C   UNL     1       4.960   4.073  16.407  0.00  0.00    +0.000 A 
ATOM     10  N   UNL     1       4.262   3.423  17.358  0.00  0.00    +0.000 NA
ATOM     11  C   UNL     1       3.550   4.134  18.276  0.00  0.00    +0.000 A 
ENDROOT
BRANCH  11  12
ATOM     12  N   UNL     1       2.863   3.379  19.205  0.00  0.00    +0.000 N 
ATOM     13  C   UNL     1       1.418   3.198  19.010  0.00  0.00    +0.000 C 
ATOM     14  C   UNL     1       0.671   3.481  20.312  0.00  0.00    +0.000 C 
ATOM     15  C   UNL     1       1.225   2.645  21.461  0.00  0.00    +0.000 C 
ATOM     16  C   UNL     1       2.728   2.849  21.595  0.00  0.00    +0.000 C 
ATOM     17  C   UNL     1       3.465   2.602  20.278  0.00  0.00    +0.000 C 
ENDBRANCH  11  12
TORSDOF 1
ENDMDL
MODEL 4
REMARK VINA RESULT:      -7.0      0.599      1.333
REMARK  Name = 
REMARK  2 active torsions:
REMARK  status: ('A' for Active; 'I' for Inactive)
REMARK    1  A    between atoms: C_1  and  C_2
REMARK    2  A    between atoms: C_11  and  N_12
REMARK                            x       y       z     vdW  Elec       q    Type
REMARK                         _______ _______ _______ _____ _____    ______ ____
ROOT
ATOM      1  C   UNL     1       6.929   6.222  17.813  0.00  0.00    +0.000 C 
ATOM      2  C   UNL     1       6.445   5.502  16.591  0.00  0.00    +0.000 A 
ATOM      3  N   UNL     1       7.290   5.644  15.528  0.00  0.00    +0.000 NA
ATOM      4  C   UNL     1       6.980   4.998  14.399  0.00  0.00    +0.000 A 
ATOM      5  C   UNL     1       7.822   5.095  13.297  0.00  0.00    +0.000 A 
ATOM      6  C   UNL     1       7.532   4.437  12.101  0.00  0.00    +0.000 A 
ATOM      7  C   UNL     1       6.376   3.673  12.009  0.00  0.00    +0.000 A 
ATOM      8  C   UNL     1       5.531   3.567  13.116  0.00  0.00    +0.000 A 
ATOM      9  C   UNL     1       5.818   4.212  14.315  0.00  0.00    +0.000 A 
ATOM     10  N   UNL     1       4.991   4.077  15.369  0.00  0.00    +0.000 NA
ATOM     11  C   UNL     1       5.277   4.718  16.536  0.00  0.00    +0.000 A 
ENDROOT
BRANCH  11  12
ATOM     12  N   UNL     1       4.366   4.525  17.555  0.00  0.00    +0.000 N 
ATOM     13  C   UNL     1       3.404   5.600  17.830  0.00  0.00    +0.000 C 
ATOM     14  C   UNL     1       3.359   5.898  19.328  0.00  0.00    +0.000 C 
ATOM     15  C   UNL     1       3.083   4.633  20.135  0.00  0.00    +0.000 C 
ATOM     16  C   UNL     1       4.091   3.546  19.787  0.00  0.00    +0.000 C 
ATOM     17  C   UNL     1       4.159   3.282  18.282  0.00  0.00    +0.000 C 
ENDBRANCH  11  12
TORSDOF 1
ENDMDL
MODEL 5
REMARK VINA RESULT:      -7.0      0.971      1.003
REMARK  Name = 
REMARK  2 active torsions:
REMARK  status: ('A' for Active; 'I' for Inactive)
REMARK    1  A    between atoms: C_1  and  C_2
REMARK    2  A    between atoms: C_11  and  N_12
REMARK                            x       y       z     vdW  Elec       q    Type
REMARK                         _______ _______ _______ _____ _____    ______ ____
ROOT
ATOM      1  C   UNL     1       6.406   6.096  17.899  0.00  0.00    +0.000 C 
ATOM      2  C   UNL     1       6.115   5.396  16.607  0.00  0.00    +0.000 A 
ATOM      3  N   UNL     1       7.043   5.666  15.642  0.00  0.00    +0.000 NA
ATOM      4  C   UNL     1       6.908   5.050  14.463  0.00  0.00    +0.000 A 
ATOM      5  C   UNL     1       7.840   5.278  13.457  0.00  0.00    +0.000 A 
ATOM      6  C   UNL     1       7.732   4.656  12.213  0.00  0.00    +0.000 A 
ATOM      7  C   UNL     1       6.669   3.796  11.973  0.00  0.00    +0.000 A 
ATOM      8  C   UNL     1       5.734   3.559  12.982  0.00  0.00    +0.000 A 
ATOM      9  C   UNL     1       5.839   4.168  14.229  0.00  0.00    +0.000 A 
ATOM     10  N   UNL     1       4.929   3.908  15.187  0.00  0.00    +0.000 NA
ATOM     11  C   UNL     1       5.037   4.513  16.402  0.00  0.00    +0.000 A 
ENDROOT
BRANCH  11  12
ATOM     12  N   UNL     1       4.053   4.190  17.314  0.00  0.00    +0.000 N 
ATOM     13  C   UNL     1       4.042   2.826  17.858  0.00  0.00    +0.000 C 
ATOM     14  C   UNL     1       2.633   2.240  17.786  0.00  0.00    +0.000 C 
ATOM     15  C   UNL     1       1.617   3.157  18.460  0.00  0.00    +0.000 C 
ATOM     16  C   UNL     1       1.696   4.562  17.877  0.00  0.00    +0.000 C 
ATOM     17  C   UNL     1       3.117   5.126  17.917  0.00  0.00    +0.000 C 
ENDBRANCH  11  12
TORSDOF 1
ENDMDL
MODEL 6
REMARK VINA RESULT:      -6.7      1.644      6.212
REMARK  Name = 
REMARK  2 active torsions:
REMARK  status: ('A' for Active; 'I' for Inactive)
REMARK    1  A    between atoms: C_1  and  C_2
REMARK    2  A    between atoms: C_11  and  N_12
REMARK                            x       y       z     vdW  Elec       q    Type
REMARK                         _______ _______ _______ _____ _____    ______ ____
ROOT
ATOM      1  C   UNL     1       3.269   7.647  17.703  0.00  0.00    +0.000 C 
ATOM      2  C   UNL     1       3.312   6.255  18.254  0.00  0.00    +0.000 A 
ATOM      3  N   UNL     1       2.318   6.017  19.160  0.00  0.00    +0.000 NA
ATOM      4  C   UNL     1       2.231   4.786  19.676  0.00  0.00    +0.000 A 
ATOM      5  C   UNL     1       1.222   4.491  20.586  0.00  0.00    +0.000 A 
ATOM      6  C   UNL     1       1.100   3.219  21.147  0.00  0.00    +0.000 A 
ATOM      7  C   UNL     1       2.007   2.230  20.793  0.00  0.00    +0.000 A 
ATOM      8  C   UNL     1       3.018   2.520  19.874  0.00  0.00    +0.000 A 
ATOM      9  C   UNL     1       3.141   3.782  19.302  0.00  0.00    +0.000 A 
ATOM     10  N   UNL     1       4.117   4.026  18.407  0.00  0.00    +0.000 NA
ATOM     11  C   UNL     1       4.234   5.267  17.858  0.00  0.00    +0.000 A 
ENDROOT
BRANCH  11  12
ATOM     12  N   UNL     1       5.270   5.421  16.959  0.00  0.00    +0.000 N 
ATOM     13  C   UNL     1       4.930   5.569  15.538  0.00  0.00    +0.000 C 
ATOM     14  C   UNL     1       5.790   4.634  14.689  0.00  0.00    +0.000 C 
ATOM     15  C   UNL     1       7.276   4.842  14.970  0.00  0.00    +0.000 C 
ATOM     16  C   UNL     1       7.562   4.707  16.460  0.00  0.00    +0.000 C 
ATOM     17  C   UNL     1       6.670   5.617  17.305  0.00  0.00    +0.000 C 
ENDBRANCH  11  12
TORSDOF 1
ENDMDL
MODEL 7
REMARK VINA RESULT:      -6.7      2.058      3.255
REMARK  Name = 
REMARK  2 active torsions:
REMARK  status: ('A' for Active; 'I' for Inactive)
REMARK    1  A    between atoms: C_1  and  C_2
REMARK    2  A    between atoms: C_11  and  N_12
REMARK                            x       y       z     vdW  Elec       q    Type
REMARK                         _______ _______ _______ _____ _____    ______ ____
ROOT
ATOM      1  C   UNL     1       2.526   7.426  18.716  0.00  0.00    +0.000 C 
ATOM      2  C   UNL     1       3.241   6.299  18.037  0.00  0.00    +0.000 A 
ATOM      3  N   UNL     1       4.101   6.730  17.067  0.00  0.00    +0.000 NA
ATOM      4  C   UNL     1       4.831   5.808  16.432  0.00  0.00    +0.000 A 
ATOM      5  C   UNL     1       5.736   6.202  15.452  0.00  0.00    +0.000 A 
ATOM      6  C   UNL     1       6.515   5.270  14.766  0.00  0.00    +0.000 A 
ATOM      7  C   UNL     1       6.380   3.921  15.064  0.00  0.00    +0.000 A 
ATOM      8  C   UNL     1       5.478   3.521  16.052  0.00  0.00    +0.000 A 
ATOM      9  C   UNL     1       4.705   4.445  16.748  0.00  0.00    +0.000 A 
ATOM     10  N   UNL     1       3.854   4.029  17.706  0.00  0.00    +0.000 NA
ATOM     11  C   UNL     1       3.096   4.940  18.377  0.00  0.00    +0.000 A 
ENDROOT
BRANCH  11  12
ATOM     12  N   UNL     1       2.250   4.417  19.334  0.00  0.00    +0.000 N 
ATOM     13  C   UNL     1       2.448   4.832  20.728  0.00  0.00    +0.000 C 
ATOM     14  C   UNL     1       2.458   3.611  21.647  0.00  0.00    +0.000 C 
ATOM     15  C   UNL     1       1.204   2.762  21.451  0.00  0.00    +0.000 C 
ATOM     16  C   UNL     1       1.035   2.389  19.985  0.00  0.00    +0.000 C 
ATOM     17  C   UNL     1       1.067   3.613  19.068  0.00  0.00    +0.000 C 
ENDBRANCH  11  12
TORSDOF 1
ENDMDL
MODEL 8
REMARK VINA RESULT:      -6.7      1.194      1.344
REMARK  Name = 
REMARK  2 active torsions:
REMARK  status: ('A' for Active; 'I' for Inactive)
REMARK    1  A    between atoms: C_1  and  C_2
REMARK    2  A    between atoms: C_11  and  N_12
REMARK                            x       y       z     vdW  Elec       q    Type
REMARK                         _______ _______ _______ _____ _____    ______ ____
ROOT
ATOM      1  C   UNL     1       7.252   5.668  19.151  0.00  0.00    +0.000 C 
ATOM      2  C   UNL     1       6.577   5.155  17.916  0.00  0.00    +0.000 A 
ATOM      3  N   UNL     1       7.339   5.317  16.794  0.00  0.00    +0.000 NA
ATOM      4  C   UNL     1       6.853   4.844  15.641  0.00  0.00    +0.000 A 
ATOM      5  C   UNL     1       7.602   4.968  14.477  0.00  0.00    +0.000 A 
ATOM      6  C   UNL     1       7.129   4.489  13.255  0.00  0.00    +0.000 A 
ATOM      7  C   UNL     1       5.882   3.882  13.200  0.00  0.00    +0.000 A 
ATOM      8  C   UNL     1       5.128   3.750  14.368  0.00  0.00    +0.000 A 
ATOM      9  C   UNL     1       5.597   4.215  15.592  0.00  0.00    +0.000 A 
ATOM     10  N   UNL     1       4.853   4.060  16.704  0.00  0.00    +0.000 NA
ATOM     11  C   UNL     1       5.317   4.525  17.897  0.00  0.00    +0.000 A 
ENDROOT
BRANCH  11  12
ATOM     12  N   UNL     1       4.481   4.325  18.976  0.00  0.00    +0.000 N 
ATOM     13  C   UNL     1       4.461   2.994  19.595  0.00  0.00    +0.000 C 
ATOM     14  C   UNL     1       3.021   2.523  19.790  0.00  0.00    +0.000 C 
ATOM     15  C   UNL     1       2.204   3.551  20.567  0.00  0.00    +0.000 C 
ATOM     16  C   UNL     1       2.286   4.916  19.897  0.00  0.00    +0.000 C 
ATOM     17  C   UNL     1       3.730   5.362  19.669  0.00  0.00    +0.000 C 
ENDBRANCH  11  12
TORSDOF 1
ENDMDL
MODEL 9
REMARK VINA RESULT:      -6.6      1.501      6.211
REMARK  Name = 
REMARK  2 active torsions:
REMARK  status: ('A' for Active; 'I' for Inactive)
REMARK    1  A    between atoms: C_1  and  C_2
REMARK    2  A    between atoms: C_11  and  N_12
REMARK                            x       y       z     vdW  Elec       q    Type
REMARK                         _______ _______ _______ _____ _____    ______ ____
ROOT
ATOM      1  C   UNL     1       4.066   7.000  17.348  0.00  0.00    +0.000 C 
ATOM      2  C   UNL     1       3.984   5.726  18.132  0.00  0.00    +0.000 A 
ATOM      3  N   UNL     1       3.132   5.818  19.196  0.00  0.00    +0.000 NA
ATOM      4  C   UNL     1       2.943   4.720  19.935  0.00  0.00    +0.000 A 
ATOM      5  C   UNL     1       2.069   4.759  21.015  0.00  0.00    +0.000 A 
ATOM      6  C   UNL     1       1.847   3.635  21.811  0.00  0.00    +0.000 A 
ATOM      7  C   UNL     1       2.516   2.454  21.520  0.00  0.00    +0.000 A 
ATOM      8  C   UNL     1       3.390   2.407  20.432  0.00  0.00    +0.000 A 
ATOM      9  C   UNL     1       3.610   3.521  19.628  0.00  0.00    +0.000 A 
ATOM     10  N   UNL     1       4.448   3.440  18.576  0.00  0.00    +0.000 NA
ATOM     11  C   UNL     1       4.662   4.538  17.799  0.00  0.00    +0.000 A 
ENDROOT
BRANCH  11  12
ATOM     12  N   UNL     1       5.542   4.358  16.751  0.00  0.00    +0.000 N 
ATOM     13  C   UNL     1       6.925   4.819  16.928  0.00  0.00    +0.000 C 
ATOM     14  C   UNL     1       7.367   5.640  15.718  0.00  0.00    +0.000 C 
ATOM     15  C   UNL     1       7.160   4.866  14.420  0.00  0.00    +0.000 C 
ATOM     16  C   UNL     1       5.719   4.389  14.306  0.00  0.00    +0.000 C 
ATOM     17  C   UNL     1       5.271   3.602  15.538  0.00  0.00    +0.000 C 
ENDBRANCH  11  12
TORSDOF 1
ENDMDL
