MODEL 1
REMARK VINA RESULT:      -5.5      0.000      0.000
REMARK  Name = 
REMARK  5 active torsions:
REMARK  status: ('A' for Active; 'I' for Inactive)
REMARK    1  A    between atoms: C_1  and  C_2
REMARK    2  A    between atoms: C_2  and  C_3
REMARK    3  A    between atoms: C_2  and  C_4
REMARK    4  A    between atoms: C_7  and  N_8
REMARK    5  A    between atoms: N_11  and  C_12
REMARK                            x       y       z     vdW  Elec       q    Type
REMARK                         _______ _______ _______ _____ _____    ______ ____
ROOT
ATOM      1  C   UNL     1       4.086   4.074  17.894  0.00  0.00    +0.000 A 
ATOM      2  N   UNL     1       4.263   4.482  19.137  0.00  0.00    +0.000 NA
ATOM      3  C   UNL     1       5.559   4.906  19.221  0.00  0.00    +0.000 A 
ATOM      4  C   UNL     1       6.194   4.742  18.014  0.00  0.00    +0.000 A 
ATOM      5  N   UNL     1       5.266   4.191  17.164  0.00  0.00    +0.000 N 
ATOM      6  C   UNL     1       5.406   3.752  15.796  0.00  0.00    +0.000 C 
ENDROOT
BRANCH   1   8
ATOM      7  C   UNL     1       2.550   2.107  17.793  0.00  0.00    +0.000 C 
ATOM      8  C   UNL     1       2.784   3.548  17.343  0.00  0.00    +0.000 C 
ATOM      9  C   UNL     1       1.615   4.437  17.779  0.00  0.00    +0.000 C 
ENDBRANCH   1   8
BRANCH   4  10
ATOM     10  N   UNL     1       7.548   5.075  17.720  0.00  0.00    +0.000 N 
ATOM     11  O   UNL     1       8.365   4.146  17.778  0.00  0.00    +0.000 OA
ATOM     12  O   UNL     1       7.818   6.242  17.433  0.00  0.00    +0.000 OA
ENDBRANCH   4  10
TORSDOF 2
ENDMDL
MODEL 2
REMARK VINA RESULT:      -5.3      2.242      2.668
REMARK  Name = 
REMARK  5 active torsions:
REMARK  status: ('A' for Active; 'I' for Inactive)
REMARK    1  A    between atoms: C_1  and  C_2
REMARK    2  A    between atoms: C_2  and  C_3
REMARK    3  A    between atoms: C_2  and  C_4
REMARK    4  A    between atoms: C_7  and  N_8
REMARK    5  A    between atoms: N_11  and  C_12
REMARK                            x       y       z     vdW  Elec       q    Type
REMARK                         _______ _______ _______ _____ _____    ______ ____
ROOT
ATOM      1  C   UNL     1       2.876   3.589  19.576  0.00  0.00    +0.000 A 
ATOM      2  N   UNL     1       2.634   4.831  19.201  0.00  0.00    +0.000 NA
ATOM      3  C   UNL     1       3.850   5.403  18.959  0.00  0.00    +0.000 A 
ATOM      4  C   UNL     1       4.859   4.503  19.204  0.00  0.00    +0.000 A 
ATOM      5  N   UNL     1       4.247   3.345  19.618  0.00  0.00    +0.000 N 
ATOM      6  C   UNL     1       4.823   2.100  20.068  0.00  0.00    +0.000 C 
ENDROOT
BRANCH   1   8
ATOM      7  C   UNL     1       1.249   2.832  21.313  0.00  0.00    +0.000 C 
ATOM      8  C   UNL     1       1.812   2.575  19.916  0.00  0.00    +0.000 C 
ATOM      9  C   UNL     1       0.688   2.601  18.875  0.00  0.00    +0.000 C 
ENDBRANCH   1   8
BRANCH   4  10
ATOM     10  N   UNL     1       6.256   4.740  19.059  0.00  0.00    +0.000 N 
ATOM     11  O   UNL     1       6.794   4.248  18.058  0.00  0.00    +0.000 OA
ATOM     12  O   UNL     1       6.833   5.405  19.921  0.00  0.00    +0.000 OA
ENDBRANCH   4  10
TORSDOF 2
ENDMDL
MODEL 3
REMARK VINA RESULT:      -5.3      0.850      2.277
REMARK  Name = 
REMARK  5 active torsions:
REMARK  status: ('A' for Active; 'I' for Inactive)
REMARK    1  A    between atoms: C_1  and  C_2
REMARK    2  A    between atoms: C_2  and  C_3
REMARK    3  A    between atoms: C_2  and  C_4
REMARK    4  A    between atoms: C_7  and  N_8
REMARK    5  A    between atoms: N_11  and  C_12
REMARK                            x       y       z     vdW  Elec       q    Type
REMARK                         _______ _______ _______ _____ _____    ______ ____
ROOT
ATOM      1  C   UNL     1       3.955   3.947  17.564  0.00  0.00    +0.000 A 
ATOM      2  N   UNL     1       4.058   3.617  16.289  0.00  0.00    +0.000 NA
ATOM      3  C   UNL     1       5.327   3.950  15.909  0.00  0.00    +0.000 A 
ATOM      4  C   UNL     1       6.012   4.507  16.962  0.00  0.00    +0.000 A 
ATOM      5  N   UNL     1       5.136   4.529  18.020  0.00  0.00    +0.000 N 
ATOM      6  C   UNL     1       5.300   5.063  19.351  0.00  0.00    +0.000 C 
ENDROOT
BRANCH   1   8
ATOM      7  C   UNL     1       1.511   4.416  17.781  0.00  0.00    +0.000 C 
ATOM      8  C   UNL     1       2.723   3.728  18.407  0.00  0.00    +0.000 C 
ATOM      9  C   UNL     1       2.452   2.231  18.587  0.00  0.00    +0.000 C 
ENDBRANCH   1   8
BRANCH   4  10
ATOM     10  N   UNL     1       7.358   4.971  16.943  0.00  0.00    +0.000 N 
ATOM     11  O   UNL     1       7.548   6.080  16.425  0.00  0.00    +0.000 OA
ATOM     12  O   UNL     1       8.234   4.256  17.433  0.00  0.00    +0.000 OA
ENDBRANCH   4  10
TORSDOF 2
ENDMDL
MODEL 4
REMARK VINA RESULT:      -5.2      2.890      4.450
REMARK  Name = 
REMARK  5 active torsions:
REMARK  status: ('A' for Active; 'I' for Inactive)
REMARK    1  A    between atoms: C_1  and  C_2
REMARK    2  A    between atoms: C_2  and  C_3
REMARK    3  A    between atoms: C_2  and  C_4
REMARK    4  A    between atoms: C_7  and  N_8
REMARK    5  A    between atoms: N_11  and  C_12
REMARK                            x       y       z     vdW  Elec       q    Type
REMARK                         _______ _______ _______ _____ _____    ______ ____
ROOT
ATOM      1  C   UNL     1       5.792   5.094  18.277  0.00  0.00    +0.000 A 
ATOM      2  N   UNL     1       5.099   5.314  19.379  0.00  0.00    +0.000 NA
ATOM      3  C   UNL     1       3.963   4.563  19.273  0.00  0.00    +0.000 A 
ATOM      4  C   UNL     1       3.949   3.882  18.081  0.00  0.00    +0.000 A 
ATOM      5  N   UNL     1       5.106   4.230  17.426  0.00  0.00    +0.000 N 
ATOM      6  C   UNL     1       5.575   3.864  16.111  0.00  0.00    +0.000 C 
ENDROOT
BRANCH   1   8
ATOM      7  C   UNL     1       6.985   7.083  17.350  0.00  0.00    +0.000 C 
ATOM      8  C   UNL     1       7.142   5.700  17.980  0.00  0.00    +0.000 C 
ATOM      9  C   UNL     1       7.987   5.788  19.255  0.00  0.00    +0.000 C 
ENDBRANCH   1   8
BRANCH   4  10
ATOM     10  N   UNL     1       2.928   2.999  17.623  0.00  0.00    +0.000 N 
ATOM     11  O   UNL     1       1.934   3.531  17.111  0.00  0.00    +0.000 OA
ATOM     12  O   UNL     1       3.093   1.787  17.763  0.00  0.00    +0.000 OA
ENDBRANCH   4  10
TORSDOF 2
ENDMDL
MODEL 5
REMARK VINA RESULT:      -5.2      3.935      5.108
REMARK  Name = 
REMARK  5 active torsions:
REMARK  status: ('A' for Active; 'I' for Inactive)
REMARK    1  A    between atoms: C_1  and  C_2
REMARK    2  A    between atoms: C_2  and  C_3
REMARK    3  A    between atoms: C_2  and  C_4
REMARK    4  A    between atoms: C_7  and  N_8
REMARK    5  A    between atoms: N_11  and  C_12
REMARK                            x       y       z     vdW  Elec       q    Type
REMARK                         _______ _______ _______ _____ _____    ______ ____
ROOT
ATOM      1  C   UNL     1       4.581   4.429  19.272  0.00  0.00    +0.000 A 
ATOM      2  N   UNL     1       5.053   3.208  19.442  0.00  0.00    +0.000 NA
ATOM      3  C   UNL     1       4.067   2.501  20.070  0.00  0.00    +0.000 A 
ATOM      4  C   UNL     1       2.978   3.303  20.304  0.00  0.00    +0.000 A 
ATOM      5  N   UNL     1       3.304   4.545  19.816  0.00  0.00    +0.000 N 
ATOM      6  C   UNL     1       2.561   5.782  19.853  0.00  0.00    +0.000 C 
ENDROOT
BRANCH   1   8
ATOM      7  C   UNL     1       6.809   5.518  18.965  0.00  0.00    +0.000 C 
ATOM      8  C   UNL     1       5.328   5.547  18.587  0.00  0.00    +0.000 C 
ATOM      9  C   UNL     1       5.165   5.454  17.067  0.00  0.00    +0.000 C 
ENDBRANCH   1   8
BRANCH   4  10
ATOM     10  N   UNL     1       1.761   2.914  20.935  0.00  0.00    +0.000 N 
ATOM     11  O   UNL     1       0.770   2.813  20.199  0.00  0.00    +0.000 OA
ATOM     12  O   UNL     1       1.768   2.707  22.150  0.00  0.00    +0.000 OA
ENDBRANCH   4  10
TORSDOF 2
ENDMDL
MODEL 6
REMARK VINA RESULT:      -5.1      1.252      1.545
REMARK  Name = 
REMARK  5 active torsions:
REMARK  status: ('A' for Active; 'I' for Inactive)
REMARK    1  A    between atoms: C_1  and  C_2
REMARK    2  A    between atoms: C_2  and  C_3
REMARK    3  A    between atoms: C_2  and  C_4
REMARK    4  A    between atoms: C_7  and  N_8
REMARK    5  A    between atoms: N_11  and  C_12
REMARK                            x       y       z     vdW  Elec       q    Type
REMARK                         _______ _______ _______ _____ _____    ______ ____
ROOT
ATOM      1  C   UNL     1       4.242   4.658  18.818  0.00  0.00    +0.000 A 
ATOM      2  N   UNL     1       4.970   5.175  19.790  0.00  0.00    +0.000 NA
ATOM      3  C   UNL     1       6.204   5.420  19.257  0.00  0.00    +0.000 A 
ATOM      4  C   UNL     1       6.240   5.034  17.940  0.00  0.00    +0.000 A 
ATOM      5  N   UNL     1       4.996   4.526  17.654  0.00  0.00    +0.000 N 
ATOM      6  C   UNL     1       4.496   3.919  16.443  0.00  0.00    +0.000 C 
ENDROOT
BRANCH   1   8
ATOM      7  C   UNL     1       2.672   2.821  19.450  0.00  0.00    +0.000 C 
ATOM      8  C   UNL     1       2.793   4.260  18.953  0.00  0.00    +0.000 C 
ATOM      9  C   UNL     1       2.057   5.214  19.899  0.00  0.00    +0.000 C 
ENDBRANCH   1   8
BRANCH   4  10
ATOM     10  N   UNL     1       7.355   5.138  17.059  0.00  0.00    +0.000 N 
ATOM     11  O   UNL     1       7.442   6.188  16.407  0.00  0.00    +0.000 OA
ATOM     12  O   UNL     1       8.149   4.197  17.000  0.00  0.00    +0.000 OA
ENDBRANCH   4  10
TORSDOF 2
ENDMDL
MODEL 7
REMARK VINA RESULT:      -5.1      1.707      2.516
REMARK  Name = 
REMARK  5 active torsions:
REMARK  status: ('A' for Active; 'I' for Inactive)
REMARK    1  A    between atoms: C_1  and  C_2
REMARK    2  A    between atoms: C_2  and  C_3
REMARK    3  A    between atoms: C_2  and  C_4
REMARK    4  A    between atoms: C_7  and  N_8
REMARK    5  A    between atoms: N_11  and  C_12
REMARK                            x       y       z     vdW  Elec       q    Type
REMARK                         _______ _______ _______ _____ _____    ______ ____
ROOT
ATOM      1  C   UNL     1       4.235   4.795  18.420  0.00  0.00    +0.000 A 
ATOM      2  N   UNL     1       3.721   4.413  17.266  0.00  0.00    +0.000 NA
ATOM      3  C   UNL     1       4.762   4.356  16.383  0.00  0.00    +0.000 A 
ATOM      4  C   UNL     1       5.933   4.724  17.000  0.00  0.00    +0.000 A 
ATOM      5  N   UNL     1       5.603   5.027  18.299  0.00  0.00    +0.000 N 
ATOM      6  C   UNL     1       6.426   5.530  19.373  0.00  0.00    +0.000 C 
ENDROOT
BRANCH   1   8
ATOM      7  C   UNL     1       2.542   6.193  19.612  0.00  0.00    +0.000 C 
ATOM      8  C   UNL     1       3.445   4.963  19.694  0.00  0.00    +0.000 C 
ATOM      9  C   UNL     1       2.612   3.710  19.982  0.00  0.00    +0.000 C 
ENDBRANCH   1   8
BRANCH   4  10
ATOM     10  N   UNL     1       7.223   4.783  16.399  0.00  0.00    +0.000 N 
ATOM     11  O   UNL     1       8.125   4.160  16.976  0.00  0.00    +0.000 OA
ATOM     12  O   UNL     1       7.361   5.437  15.364  0.00  0.00    +0.000 OA
ENDBRANCH   4  10
TORSDOF 2
ENDMDL
MODEL 8
REMARK VINA RESULT:      -5.1      1.021      1.021
REMARK  Name = 
REMARK  5 active torsions:
REMARK  status: ('A' for Active; 'I' for Inactive)
REMARK    1  A    between atoms: C_1  and  C_2
REMARK    2  A    between atoms: C_2  and  C_3
REMARK    3  A    between atoms: C_2  and  C_4
REMARK    4  A    between atoms: C_7  and  N_8
REMARK    5  A    between atoms: N_11  and  C_12
REMARK                            x       y       z     vdW  Elec       q    Type
REMARK                         _______ _______ _______ _____ _____    ______ ____
ROOT
ATOM      1  C   UNL     1       4.427   4.052  17.964  0.00  0.00    +0.000 A 
ATOM      2  N   UNL     1       4.580   4.426  19.221  0.00  0.00    +0.000 NA
ATOM      3  C   UNL     1       5.658   5.264  19.243  0.00  0.00    +0.000 A 
ATOM      4  C   UNL     1       6.188   5.395  17.983  0.00  0.00    +0.000 A 
ATOM      5  N   UNL     1       5.420   4.607  17.160  0.00  0.00    +0.000 N 
ATOM      6  C   UNL     1       5.563   4.318  15.753  0.00  0.00    +0.000 C 
ENDROOT
BRANCH   1   8
ATOM      7  C   UNL     1       3.383   1.793  18.186  0.00  0.00    +0.000 C 
ATOM      8  C   UNL     1       3.330   3.142  17.469  0.00  0.00    +0.000 C 
ATOM      9  C   UNL     1       1.958   3.795  17.664  0.00  0.00    +0.000 C 
ENDBRANCH   1   8
BRANCH   4  10
ATOM     10  N   UNL     1       7.315   6.188  17.618  0.00  0.00    +0.000 N 
ATOM     11  O   UNL     1       8.017   6.602  18.549  0.00  0.00    +0.000 OA
ATOM     12  O   UNL     1       7.515   6.409  16.422  0.00  0.00    +0.000 OA
ENDBRANCH   4  10
TORSDOF 2
ENDMDL
MODEL 9
REMARK VINA RESULT:      -5.0      2.135      2.563
REMARK  Name = 
REMARK  5 active torsions:
REMARK  status: ('A' for Active; 'I' for Inactive)
REMARK    1  A    between atoms: C_1  and  C_2
REMARK    2  A    between atoms: C_2  and  C_3
REMARK    3  A    between atoms: C_2  and  C_4
REMARK    4  A    between atoms: C_7  and  N_8
REMARK    5  A    between atoms: N_11  and  C_12
REMARK                            x       y       z     vdW  Elec       q    Type
REMARK                         _______ _______ _______ _____ _____    ______ ____
ROOT
ATOM      1  C   UNL     1       2.876   3.475  19.678  0.00  0.00    +0.000 A 
ATOM      2  N   UNL     1       3.077   4.691  20.149  0.00  0.00    +0.000 NA
ATOM      3  C   UNL     1       4.177   5.176  19.501  0.00  0.00    +0.000 A 
ATOM      4  C   UNL     1       4.670   4.237  18.628  0.00  0.00    +0.000 A 
ATOM      5  N   UNL     1       3.856   3.137  18.748  0.00  0.00    +0.000 N 
ATOM      6  C   UNL     1       3.947   1.842  18.117  0.00  0.00    +0.000 C 
ENDROOT
BRANCH   1   8
ATOM      7  C   UNL     1       1.377   2.806  21.561  0.00  0.00    +0.000 C 
ATOM      8  C   UNL     1       1.740   2.573  20.095  0.00  0.00    +0.000 C 
ATOM      9  C   UNL     1       0.517   2.796  19.201  0.00  0.00    +0.000 C 
ENDBRANCH   1   8
BRANCH   4  10
ATOM     10  N   UNL     1       5.804   4.386  17.778  0.00  0.00    +0.000 N 
ATOM     11  O   UNL     1       5.569   4.524  16.570  0.00  0.00    +0.000 OA
ATOM     12  O   UNL     1       6.926   4.368  18.286  0.00  0.00    +0.000 OA
ENDBRANCH   4  10
TORSDOF 2
ENDMDL
