MODEL 1
REMARK VINA RESULT:      -7.6      0.000      0.000
REMARK  Name = 
REMARK  5 active torsions:
REMARK  status: ('A' for Active; 'I' for Inactive)
REMARK    1  A    between atoms: C_1  and  N_2
REMARK    2  A    between atoms: N_2  and  C_14
REMARK    3  A    between atoms: C_3  and  C_5
REMARK    4  A    between atoms: C_5  and  C_6
REMARK    5  A    between atoms: C_19  and  N_20
REMARK                            x       y       z     vdW  Elec       q    Type
REMARK                         _______ _______ _______ _____ _____    ______ ____
ROOT
ATOM      1  C   UNL     1       2.247   4.638  20.933  0.00  0.00    +0.000 C 
ATOM      2  N   UNL     1       2.476   5.716  19.976  0.00  0.00    +0.000 N 
ATOM      3  C   UNL     1       1.808   6.932  20.218  0.00  0.00    +0.000 C 
ATOM      4  O   UNL     1       1.056   7.079  21.189  0.00  0.00    +0.000 OA
ENDROOT
BRANCH   2   5
ATOM      5  C   UNL     1       3.158   5.422  18.685  0.00  0.00    +0.000 C 
ATOM      6  C   UNL     1       2.202   4.779  17.665  0.00  0.00    +0.000 C 
ATOM      7  C   UNL     1       2.021   3.288  17.876  0.00  0.00    +0.000 C 
ATOM      8  C   UNL     1       3.357   2.561  17.925  0.00  0.00    +0.000 C 
ATOM      9  C   UNL     1       4.371   3.193  18.880  0.00  0.00    +0.000 C 
ATOM     10  C   UNL     1       4.575   4.729  18.721  0.00  0.00    +0.000 C 
BRANCH  10  11
ATOM     11  N   UNL     1       5.388   5.048  17.500  0.00  0.00    +0.000 NA
ATOM     12  C   UNL     1       6.820   4.704  17.605  0.00  0.00    +0.000 C 
ATOM     13  C   UNL     1       7.518   5.957  18.095  0.00  0.00    +0.000 C 
ATOM     14  C   UNL     1       6.768   7.068  17.405  0.00  0.00    +0.000 C 
ATOM     15  C   UNL     1       5.401   6.474  17.091  0.00  0.00    +0.000 C 
ENDBRANCH  10  11
ENDBRANCH   2   5
BRANCH   3  16
ATOM     16  C   UNL     1       2.120   8.119  19.302  0.00  0.00    +0.000 C 
BRANCH  16  17
ATOM     17  C   UNL     1       1.108   9.239  19.333  0.00  0.00    +0.000 A 
ATOM     18  C   UNL     1       0.402   9.596  18.182  0.00  0.00    +0.000 A 
ATOM     19  C   UNL     1      -0.594  10.572  18.246  0.00  0.00    +0.000 A 
ATOM     20  C   UNL     1      -0.889  11.202  19.460  0.00  0.00    +0.000 A 
ATOM     21 CL   UNL     1      -2.156  12.375  19.472  0.00  0.00    +0.000 Cl
ATOM     22  C   UNL     1      -0.171  10.866  20.611  0.00  0.00    +0.000 A 
ATOM     23 CL   UNL     1      -0.486  11.586  22.150  0.00  0.00    +0.000 Cl
ATOM     24  C   UNL     1       0.827   9.892  20.544  0.00  0.00    +0.000 A 
ENDBRANCH  16  17
ENDBRANCH   3  16
TORSDOF 4
ENDMDL
MODEL 2
REMARK VINA RESULT:      -7.5      0.780      1.510
REMARK  Name = 
REMARK  5 active torsions:
REMARK  status: ('A' for Active; 'I' for Inactive)
REMARK    1  A    between atoms: C_1  and  N_2
REMARK    2  A    between atoms: N_2  and  C_14
REMARK    3  A    between atoms: C_3  and  C_5
REMARK    4  A    between atoms: C_5  and  C_6
REMARK    5  A    between atoms: C_19  and  N_20
REMARK                            x       y       z     vdW  Elec       q    Type
REMARK                         _______ _______ _______ _____ _____    ______ ____
ROOT
ATOM      1  C   UNL     1       2.251   4.758  20.972  0.00  0.00    +0.000 C 
ATOM      2  N   UNL     1       2.462   5.820  19.995  0.00  0.00    +0.000 N 
ATOM      3  C   UNL     1       1.790   7.036  20.224  0.00  0.00    +0.000 C 
ATOM      4  O   UNL     1       1.050   7.196  21.201  0.00  0.00    +0.000 OA
ENDROOT
BRANCH   2   5
ATOM      5  C   UNL     1       3.130   5.507  18.701  0.00  0.00    +0.000 C 
ATOM      6  C   UNL     1       2.174   4.812  17.716  0.00  0.00    +0.000 C 
ATOM      7  C   UNL     1       2.036   3.323  17.972  0.00  0.00    +0.000 C 
ATOM      8  C   UNL     1       3.391   2.632  18.017  0.00  0.00    +0.000 C 
ATOM      9  C   UNL     1       4.404   3.317  18.936  0.00  0.00    +0.000 C 
ATOM     10  C   UNL     1       4.565   4.853  18.731  0.00  0.00    +0.000 C 
BRANCH  10  11
ATOM     11  N   UNL     1       5.349   5.158  17.487  0.00  0.00    +0.000 NA
ATOM     12  C   UNL     1       6.754   4.703  17.516  0.00  0.00    +0.000 C 
ATOM     13  C   UNL     1       7.565   5.881  18.021  0.00  0.00    +0.000 C 
ATOM     14  C   UNL     1       6.874   7.071  17.405  0.00  0.00    +0.000 C 
ATOM     15  C   UNL     1       5.454   6.594  17.131  0.00  0.00    +0.000 C 
ENDBRANCH  10  11
ENDBRANCH   2   5
BRANCH   3  16
ATOM     16  C   UNL     1       2.084   8.209  19.284  0.00  0.00    +0.000 C 
BRANCH  16  17
ATOM     17  C   UNL     1       1.047   9.306  19.280  0.00  0.00    +0.000 A 
ATOM     18  C   UNL     1       1.082  10.328  20.232  0.00  0.00    +0.000 A 
ATOM     19  C   UNL     1       0.172  11.383  20.161  0.00  0.00    +0.000 A 
ATOM     20  C   UNL     1      -0.786  11.423  19.141  0.00  0.00    +0.000 A 
ATOM     21 CL   UNL     1      -1.858  12.775  19.096  0.00  0.00    +0.000 Cl
ATOM     22  C   UNL     1      -0.842  10.393  18.199  0.00  0.00    +0.000 A 
ATOM     23 CL   UNL     1      -1.983  10.377  16.900  0.00  0.00    +0.000 Cl
ATOM     24  C   UNL     1       0.068   9.336  18.272  0.00  0.00    +0.000 A 
ENDBRANCH  16  17
ENDBRANCH   3  16
TORSDOF 4
ENDMDL
MODEL 3
REMARK VINA RESULT:      -7.5      1.714      1.840
REMARK  Name = 
REMARK  5 active torsions:
REMARK  status: ('A' for Active; 'I' for Inactive)
REMARK    1  A    between atoms: C_1  and  N_2
REMARK    2  A    between atoms: N_2  and  C_14
REMARK    3  A    between atoms: C_3  and  C_5
REMARK    4  A    between atoms: C_5  and  C_6
REMARK    5  A    between atoms: C_19  and  N_20
REMARK                            x       y       z     vdW  Elec       q    Type
REMARK                         _______ _______ _______ _____ _____    ______ ____
ROOT
ATOM      1  C   UNL     1       2.524   5.506  20.581  0.00  0.00    +0.000 C 
ATOM      2  N   UNL     1       2.539   6.279  19.344  0.00  0.00    +0.000 N 
ATOM      3  C   UNL     1       2.021   7.587  19.407  0.00  0.00    +0.000 C 
ATOM      4  O   UNL     1       1.567   8.057  20.456  0.00  0.00    +0.000 OA
ENDROOT
BRANCH   2   5
ATOM      5  C   UNL     1       2.833   5.596  18.053  0.00  0.00    +0.000 C 
ATOM      6  C   UNL     1       1.630   4.777  17.552  0.00  0.00    +0.000 C 
ATOM      7  C   UNL     1       1.519   3.417  18.214  0.00  0.00    +0.000 C 
ATOM      8  C   UNL     1       2.817   2.630  18.101  0.00  0.00    +0.000 C 
ATOM      9  C   UNL     1       4.057   3.417  18.530  0.00  0.00    +0.000 C 
ATOM     10  C   UNL     1       4.204   4.833  17.898  0.00  0.00    +0.000 C 
BRANCH  10  11
ATOM     11  N   UNL     1       4.642   4.748  16.464  0.00  0.00    +0.000 NA
ATOM     12  C   UNL     1       5.649   3.705  16.187  0.00  0.00    +0.000 C 
ATOM     13  C   UNL     1       6.999   4.385  16.302  0.00  0.00    +0.000 C 
ATOM     14  C   UNL     1       6.747   5.759  15.734  0.00  0.00    +0.000 C 
ATOM     15  C   UNL     1       5.250   5.979  15.904  0.00  0.00    +0.000 C 
ENDBRANCH  10  11
ENDBRANCH   2   5
BRANCH   3  16
ATOM     16  C   UNL     1       2.132   8.466  18.157  0.00  0.00    +0.000 C 
BRANCH  16  17
ATOM     17  C   UNL     1       1.463   9.815  18.257  0.00  0.00    +0.000 A 
ATOM     18  C   UNL     1       0.072   9.920  18.324  0.00  0.00    +0.000 A 
ATOM     19  C   UNL     1      -0.528  11.167  18.508  0.00  0.00    +0.000 A 
ATOM     20  C   UNL     1       0.258  12.320  18.619  0.00  0.00    +0.000 A 
ATOM     21 CL   UNL     1      -0.551  13.824  18.877  0.00  0.00    +0.000 Cl
ATOM     22  C   UNL     1       1.648  12.226  18.529  0.00  0.00    +0.000 A 
ATOM     23 CL   UNL     1       2.689  13.599  18.672  0.00  0.00    +0.000 Cl
ATOM     24  C   UNL     1       2.247  10.977  18.343  0.00  0.00    +0.000 A 
ENDBRANCH  16  17
ENDBRANCH   3  16
TORSDOF 4
ENDMDL
MODEL 4
REMARK VINA RESULT:      -7.5      1.368      1.777
REMARK  Name = 
REMARK  5 active torsions:
REMARK  status: ('A' for Active; 'I' for Inactive)
REMARK    1  A    between atoms: C_1  and  N_2
REMARK    2  A    between atoms: N_2  and  C_14
REMARK    3  A    between atoms: C_3  and  C_5
REMARK    4  A    between atoms: C_5  and  C_6
REMARK    5  A    between atoms: C_19  and  N_20
REMARK                            x       y       z     vdW  Elec       q    Type
REMARK                         _______ _______ _______ _____ _____    ______ ____
ROOT
ATOM      1  C   UNL     1       2.208   4.876  20.730  0.00  0.00    +0.000 C 
ATOM      2  N   UNL     1       2.382   5.800  19.614  0.00  0.00    +0.000 N 
ATOM      3  C   UNL     1       1.972   7.131  19.823  0.00  0.00    +0.000 C 
ATOM      4  O   UNL     1       1.480   7.499  20.895  0.00  0.00    +0.000 OA
ENDROOT
BRANCH   2   5
ATOM      5  C   UNL     1       2.715   5.268  18.263  0.00  0.00    +0.000 C 
ATOM      6  C   UNL     1       1.561   4.438  17.674  0.00  0.00    +0.000 C 
ATOM      7  C   UNL     1       1.526   3.014  18.195  0.00  0.00    +0.000 C 
ATOM      8  C   UNL     1       2.866   2.315  18.013  0.00  0.00    +0.000 C 
ATOM      9  C   UNL     1       4.060   3.123  18.528  0.00  0.00    +0.000 C 
ATOM     10  C   UNL     1       4.128   4.602  18.042  0.00  0.00    +0.000 C 
BRANCH  10  11
ATOM     11  N   UNL     1       4.571   4.686  16.610  0.00  0.00    +0.000 NA
ATOM     12  C   UNL     1       5.638   3.735  16.238  0.00  0.00    +0.000 C 
ATOM     13  C   UNL     1       6.946   4.476  16.429  0.00  0.00    +0.000 C 
ATOM     14  C   UNL     1       6.617   5.884  16.000  0.00  0.00    +0.000 C 
ATOM     15  C   UNL     1       5.109   6.000  16.180  0.00  0.00    +0.000 C 
ENDBRANCH  10  11
ENDBRANCH   2   5
BRANCH   3  16
ATOM     16  C   UNL     1       2.251   8.152  18.715  0.00  0.00    +0.000 C 
BRANCH  16  17
ATOM     17  C   UNL     1       1.349   9.362  18.714  0.00  0.00    +0.000 A 
ATOM     18  C   UNL     1       1.779  10.575  19.258  0.00  0.00    +0.000 A 
ATOM     19  C   UNL     1       0.969  11.708  19.169  0.00  0.00    +0.000 A 
ATOM     20  C   UNL     1      -0.280  11.637  18.540  0.00  0.00    +0.000 A 
ATOM     21 CL   UNL     1      -1.213  13.086  18.437  0.00  0.00    +0.000 Cl
ATOM     22  C   UNL     1      -0.726  10.422  18.014  0.00  0.00    +0.000 A 
ATOM     23 CL   UNL     1      -2.246  10.256  17.209  0.00  0.00    +0.000 Cl
ATOM     24  C   UNL     1       0.084   9.288  18.107  0.00  0.00    +0.000 A 
ENDBRANCH  16  17
ENDBRANCH   3  16
TORSDOF 4
ENDMDL
MODEL 5
REMARK VINA RESULT:      -6.9      1.186      1.388
REMARK  Name = 
REMARK  5 active torsions:
REMARK  status: ('A' for Active; 'I' for Inactive)
REMARK    1  A    between atoms: C_1  and  N_2
REMARK    2  A    between atoms: N_2  and  C_14
REMARK    3  A    between atoms: C_3  and  C_5
REMARK    4  A    between atoms: C_5  and  C_6
REMARK    5  A    between atoms: C_19  and  N_20
REMARK                            x       y       z     vdW  Elec       q    Type
REMARK                         _______ _______ _______ _____ _____    ______ ____
ROOT
ATOM      1  C   UNL     1       2.368   5.138  21.076  0.00  0.00    +0.000 C 
ATOM      2  N   UNL     1       2.546   6.059  19.958  0.00  0.00    +0.000 N 
ATOM      3  C   UNL     1       1.823   7.266  20.010  0.00  0.00    +0.000 C 
ATOM      4  O   UNL     1       1.066   7.531  20.950  0.00  0.00    +0.000 OA
ENDROOT
BRANCH   2   5
ATOM      5  C   UNL     1       3.241   5.595  18.725  0.00  0.00    +0.000 C 
ATOM      6  C   UNL     1       2.278   4.881  17.760  0.00  0.00    +0.000 C 
ATOM      7  C   UNL     1       2.029   3.431  18.132  0.00  0.00    +0.000 C 
ATOM      8  C   UNL     1       3.332   2.661  18.293  0.00  0.00    +0.000 C 
ATOM      9  C   UNL     1       4.353   3.355  19.196  0.00  0.00    +0.000 C 
ATOM     10  C   UNL     1       4.625   4.854  18.872  0.00  0.00    +0.000 C 
BRANCH  10  11
ATOM     11  N   UNL     1       5.476   5.001  17.643  0.00  0.00    +0.000 NA
ATOM     12  C   UNL     1       6.899   4.660  17.832  0.00  0.00    +0.000 C 
ATOM     13  C   UNL     1       7.600   5.960  18.173  0.00  0.00    +0.000 C 
ATOM     14  C   UNL     1       6.883   6.977  17.322  0.00  0.00    +0.000 C 
ATOM     15  C   UNL     1       5.518   6.360  17.050  0.00  0.00    +0.000 C 
ENDBRANCH  10  11
ENDBRANCH   2   5
BRANCH   3  16
ATOM     16  C   UNL     1       2.080   8.306  18.914  0.00  0.00    +0.000 C 
BRANCH  16  17
ATOM     17  C   UNL     1       1.253   9.565  19.016  0.00  0.00    +0.000 A 
ATOM     18  C   UNL     1      -0.007   9.547  19.618  0.00  0.00    +0.000 A 
ATOM     19  C   UNL     1      -0.720  10.735  19.785  0.00  0.00    +0.000 A 
ATOM     20  C   UNL     1      -0.183  11.950  19.346  0.00  0.00    +0.000 A 
ATOM     21 CL   UNL     1      -1.107  13.383  19.616  0.00  0.00    +0.000 Cl
ATOM     22  C   UNL     1       1.067  11.973  18.722  0.00  0.00    +0.000 A 
ATOM     23 CL   UNL     1       1.806  13.433  18.168  0.00  0.00    +0.000 Cl
ATOM     24  C   UNL     1       1.778  10.783  18.553  0.00  0.00    +0.000 A 
ENDBRANCH  16  17
ENDBRANCH   3  16
TORSDOF 4
ENDMDL
MODEL 6
REMARK VINA RESULT:      -6.9      3.815      8.042
REMARK  Name = 
REMARK  5 active torsions:
REMARK  status: ('A' for Active; 'I' for Inactive)
REMARK    1  A    between atoms: C_1  and  N_2
REMARK    2  A    between atoms: N_2  and  C_14
REMARK    3  A    between atoms: C_3  and  C_5
REMARK    4  A    between atoms: C_5  and  C_6
REMARK    5  A    between atoms: C_19  and  N_20
REMARK                            x       y       z     vdW  Elec       q    Type
REMARK                         _______ _______ _______ _____ _____    ______ ____
ROOT
ATOM      1  C   UNL     1       0.239   9.220  21.514  0.00  0.00    +0.000 C 
ATOM      2  N   UNL     1       0.680   9.067  20.132  0.00  0.00    +0.000 N 
ATOM      3  C   UNL     1       1.709   8.135  19.893  0.00  0.00    +0.000 C 
ATOM      4  O   UNL     1       2.220   7.483  20.810  0.00  0.00    +0.000 OA
ENDROOT
BRANCH   2   5
ATOM      5  C   UNL     1       0.242  10.054  19.105  0.00  0.00    +0.000 C 
ATOM      6  C   UNL     1       1.325  11.111  18.828  0.00  0.00    +0.000 C 
ATOM      7  C   UNL     1       1.343  12.228  19.854  0.00  0.00    +0.000 C 
ATOM      8  C   UNL     1      -0.030  12.865  20.016  0.00  0.00    +0.000 C 
ATOM      9  C   UNL     1      -1.158  11.854  20.235  0.00  0.00    +0.000 C 
ATOM     10  C   UNL     1      -1.205  10.672  19.222  0.00  0.00    +0.000 C 
BRANCH  10  11
ATOM     11  N   UNL     1      -1.736  11.116  17.889  0.00  0.00    +0.000 NA
ATOM     12  C   UNL     1      -3.082  11.721  17.932  0.00  0.00    +0.000 C 
ATOM     13  C   UNL     1      -4.059  10.592  17.669  0.00  0.00    +0.000 C 
ATOM     14  C   UNL     1      -3.340   9.736  16.657  0.00  0.00    +0.000 C 
ATOM     15  C   UNL     1      -1.864  10.052  16.863  0.00  0.00    +0.000 C 
ENDBRANCH  10  11
ENDBRANCH   2   5
BRANCH   3  16
ATOM     16  C   UNL     1       2.111   7.864  18.440  0.00  0.00    +0.000 C 
BRANCH  16  17
ATOM     17  C   UNL     1       2.542   6.447  18.146  0.00  0.00    +0.000 A 
ATOM     18  C   UNL     1       3.837   6.171  17.700  0.00  0.00    +0.000 A 
ATOM     19  C   UNL     1       4.248   4.850  17.518  0.00  0.00    +0.000 A 
ATOM     20  C   UNL     1       3.366   3.793  17.775  0.00  0.00    +0.000 A 
ATOM     21 CL   UNL     1       3.954   2.184  17.560  0.00  0.00    +0.000 Cl
ATOM     22  C   UNL     1       2.062   4.063  18.198  0.00  0.00    +0.000 A 
ATOM     23 CL   UNL     1       0.919   2.815  18.552  0.00  0.00    +0.000 Cl
ATOM     24  C   UNL     1       1.651   5.386  18.377  0.00  0.00    +0.000 A 
ENDBRANCH  16  17
ENDBRANCH   3  16
TORSDOF 4
ENDMDL
MODEL 7
REMARK VINA RESULT:      -6.9      1.745      3.651
REMARK  Name = 
REMARK  5 active torsions:
REMARK  status: ('A' for Active; 'I' for Inactive)
REMARK    1  A    between atoms: C_1  and  N_2
REMARK    2  A    between atoms: N_2  and  C_14
REMARK    3  A    between atoms: C_3  and  C_5
REMARK    4  A    between atoms: C_5  and  C_6
REMARK    5  A    between atoms: C_19  and  N_20
REMARK                            x       y       z     vdW  Elec       q    Type
REMARK                         _______ _______ _______ _____ _____    ______ ____
ROOT
ATOM      1  C   UNL     1       4.643   7.314  16.481  0.00  0.00    +0.000 C 
ATOM      2  N   UNL     1       3.772   6.944  17.591  0.00  0.00    +0.000 N 
ATOM      3  C   UNL     1       2.897   7.939  18.070  0.00  0.00    +0.000 C 
ATOM      4  O   UNL     1       2.874   9.074  17.582  0.00  0.00    +0.000 OA
ENDROOT
BRANCH   2   5
ATOM      5  C   UNL     1       4.018   5.673  18.328  0.00  0.00    +0.000 C 
ATOM      6  C   UNL     1       5.512   5.468  18.632  0.00  0.00    +0.000 C 
ATOM      7  C   UNL     1       6.287   4.903  17.457  0.00  0.00    +0.000 C 
ATOM      8  C   UNL     1       5.646   3.631  16.920  0.00  0.00    +0.000 C 
ATOM      9  C   UNL     1       4.143   3.759  16.655  0.00  0.00    +0.000 C 
ATOM     10  C   UNL     1       3.306   4.359  17.824  0.00  0.00    +0.000 C 
BRANCH  10  11
ATOM     11  N   UNL     1       3.119   3.360  18.930  0.00  0.00    +0.000 NA
ATOM     12  C   UNL     1       2.286   2.194  18.574  0.00  0.00    +0.000 C 
ATOM     13  C   UNL     1       0.871   2.548  18.987  0.00  0.00    +0.000 C 
ATOM     14  C   UNL     1       1.065   3.333  20.259  0.00  0.00    +0.000 C 
ATOM     15  C   UNL     1       2.482   3.881  20.164  0.00  0.00    +0.000 C 
ENDBRANCH  10  11
ENDBRANCH   2   5
BRANCH   3  16
ATOM     16  C   UNL     1       1.887   7.548  19.153  0.00  0.00    +0.000 C 
BRANCH  16  17
ATOM     17  C   UNL     1       1.218   8.704  19.856  0.00  0.00    +0.000 A 
ATOM     18  C   UNL     1       0.742   9.801  19.135  0.00  0.00    +0.000 A 
ATOM     19  C   UNL     1       0.046  10.820  19.788  0.00  0.00    +0.000 A 
ATOM     20  C   UNL     1      -0.175  10.753  21.168  0.00  0.00    +0.000 A 
ATOM     21 CL   UNL     1      -1.072  12.032  21.902  0.00  0.00    +0.000 Cl
ATOM     22  C   UNL     1       0.318   9.670  21.899  0.00  0.00    +0.000 A 
ATOM     23 CL   UNL     1       0.072   9.505  23.603  0.00  0.00    +0.000 Cl
ATOM     24  C   UNL     1       1.017   8.653  21.246  0.00  0.00    +0.000 A 
ENDBRANCH  16  17
ENDBRANCH   3  16
TORSDOF 4
ENDMDL
MODEL 8
REMARK VINA RESULT:      -6.9      1.689      3.828
REMARK  Name = 
REMARK  5 active torsions:
REMARK  status: ('A' for Active; 'I' for Inactive)
REMARK    1  A    between atoms: C_1  and  N_2
REMARK    2  A    between atoms: N_2  and  C_14
REMARK    3  A    between atoms: C_3  and  C_5
REMARK    4  A    between atoms: C_5  and  C_6
REMARK    5  A    between atoms: C_19  and  N_20
REMARK                            x       y       z     vdW  Elec       q    Type
REMARK                         _______ _______ _______ _____ _____    ______ ____
ROOT
ATOM      1  C   UNL     1       3.968   7.385  16.856  0.00  0.00    +0.000 C 
ATOM      2  N   UNL     1       3.310   6.953  18.084  0.00  0.00    +0.000 N 
ATOM      3  C   UNL     1       2.546   7.919  18.767  0.00  0.00    +0.000 C 
ATOM      4  O   UNL     1       2.445   9.079  18.354  0.00  0.00    +0.000 OA
ENDROOT
BRANCH   2   5
ATOM      5  C   UNL     1       3.673   5.643  18.693  0.00  0.00    +0.000 C 
ATOM      6  C   UNL     1       5.152   5.598  19.112  0.00  0.00    +0.000 C 
ATOM      7  C   UNL     1       6.089   5.289  17.960  0.00  0.00    +0.000 C 
ATOM      8  C   UNL     1       5.677   4.021  17.225  0.00  0.00    +0.000 C 
ATOM      9  C   UNL     1       4.198   3.985  16.835  0.00  0.00    +0.000 C 
ATOM     10  C   UNL     1       3.195   4.321  17.979  0.00  0.00    +0.000 C 
BRANCH  10  11
ATOM     11  N   UNL     1       3.064   3.176  18.943  0.00  0.00    +0.000 NA
ATOM     12  C   UNL     1       2.206   2.070  18.475  0.00  0.00    +0.000 C 
ATOM     13  C   UNL     1       0.818   2.359  19.011  0.00  0.00    +0.000 C 
ATOM     14  C   UNL     1       1.086   2.959  20.368  0.00  0.00    +0.000 C 
ATOM     15  C   UNL     1       2.499   3.518  20.271  0.00  0.00    +0.000 C 
ENDBRANCH  10  11
ENDBRANCH   2   5
BRANCH   3  16
ATOM     16  C   UNL     1       1.745   7.468  19.993  0.00  0.00    +0.000 C 
BRANCH  16  17
ATOM     17  C   UNL     1       0.989   8.562  20.706  0.00  0.00    +0.000 A 
ATOM     18  C   UNL     1       1.099   8.724  22.089  0.00  0.00    +0.000 A 
ATOM     19  C   UNL     1       0.466   9.795  22.721  0.00  0.00    +0.000 A 
ATOM     20  C   UNL     1      -0.288  10.710  21.977  0.00  0.00    +0.000 A 
ATOM     21 CL   UNL     1      -1.016  12.029  22.822  0.00  0.00    +0.000 Cl
ATOM     22  C   UNL     1      -0.422  10.541  20.597  0.00  0.00    +0.000 A 
ATOM     23 CL   UNL     1      -1.322  11.635  19.606  0.00  0.00    +0.000 Cl
ATOM     24  C   UNL     1       0.209   9.467  19.966  0.00  0.00    +0.000 A 
ENDBRANCH  16  17
ENDBRANCH   3  16
TORSDOF 4
ENDMDL
MODEL 9
REMARK VINA RESULT:      -6.9      3.942      8.107
REMARK  Name = 
REMARK  5 active torsions:
REMARK  status: ('A' for Active; 'I' for Inactive)
REMARK    1  A    between atoms: C_1  and  N_2
REMARK    2  A    between atoms: N_2  and  C_14
REMARK    3  A    between atoms: C_3  and  C_5
REMARK    4  A    between atoms: C_5  and  C_6
REMARK    5  A    between atoms: C_19  and  N_20
REMARK                            x       y       z     vdW  Elec       q    Type
REMARK                         _______ _______ _______ _____ _____    ______ ____
ROOT
ATOM      1  C   UNL     1       0.921   9.351  21.510  0.00  0.00    +0.000 C 
ATOM      2  N   UNL     1       1.002   9.101  20.075  0.00  0.00    +0.000 N 
ATOM      3  C   UNL     1       1.817   8.029  19.663  0.00  0.00    +0.000 C 
ATOM      4  O   UNL     1       2.442   7.338  20.475  0.00  0.00    +0.000 OA
ENDROOT
BRANCH   2   5
ATOM      5  C   UNL     1       0.465  10.110  19.120  0.00  0.00    +0.000 C 
ATOM      6  C   UNL     1       1.445  11.277  18.910  0.00  0.00    +0.000 C 
ATOM      7  C   UNL     1       1.372  12.320  20.009  0.00  0.00    +0.000 C 
ATOM      8  C   UNL     1      -0.051  12.817  20.219  0.00  0.00    +0.000 C 
ATOM      9  C   UNL     1      -1.081  11.695  20.374  0.00  0.00    +0.000 C 
ATOM     10  C   UNL     1      -1.030  10.583  19.284  0.00  0.00    +0.000 C 
BRANCH  10  11
ATOM     11  N   UNL     1      -1.614  11.065  17.987  0.00  0.00    +0.000 NA
ATOM     12  C   UNL     1      -2.950  11.683  18.103  0.00  0.00    +0.000 C 
ATOM     13  C   UNL     1      -3.949  10.570  17.856  0.00  0.00    +0.000 C 
ATOM     14  C   UNL     1      -3.284   9.733  16.793  0.00  0.00    +0.000 C 
ATOM     15  C   UNL     1      -1.797  10.028  16.942  0.00  0.00    +0.000 C 
ENDBRANCH  10  11
ENDBRANCH   2   5
BRANCH   3  16
ATOM     16  C   UNL     1       1.830   7.664  18.175  0.00  0.00    +0.000 C 
BRANCH  16  17
ATOM     17  C   UNL     1       2.984   6.797  17.735  0.00  0.00    +0.000 A 
ATOM     18  C   UNL     1       4.184   7.369  17.305  0.00  0.00    +0.000 A 
ATOM     19  C   UNL     1       5.273   6.555  16.987  0.00  0.00    +0.000 A 
ATOM     20  C   UNL     1       5.168   5.163  17.090  0.00  0.00    +0.000 A 
ATOM     21 CL   UNL     1       6.565   4.221  16.711  0.00  0.00    +0.000 Cl
ATOM     22  C   UNL     1       3.964   4.583  17.496  0.00  0.00    +0.000 A 
ATOM     23 CL   UNL     1       3.760   2.875  17.664  0.00  0.00    +0.000 Cl
ATOM     24  C   UNL     1       2.875   5.399  17.812  0.00  0.00    +0.000 A 
ENDBRANCH  16  17
ENDBRANCH   3  16
TORSDOF 4
ENDMDL
