MODEL 1
REMARK VINA RESULT:      -8.2      0.000      0.000
REMARK  Name = 
REMARK  9 active torsions:
REMARK  status: ('A' for Active; 'I' for Inactive)
REMARK    1  A    between atoms: C_1  and  C_2
REMARK    2  A    between atoms: C_2  and  C_3
REMARK    3  A    between atoms: C_4  and  C_5
REMARK    4  A    between atoms: C_5  and  O_6
REMARK    5  A    between atoms: O_6  and  C_7
REMARK    6  A    between atoms: C_7  and  C_9
REMARK    7  A    between atoms: C_10  and  C_11
REMARK    8  A    between atoms: C_16  and  C_17
REMARK    9  A    between atoms: C_20  and  N_21
REMARK                            x       y       z     vdW  Elec       q    Type
REMARK                         _______ _______ _______ _____ _____    ______ ____
ROOT
ATOM      1  C   UNL     1       3.264   4.470  19.467  0.00  0.00    +0.000 C 
ATOM      2  C   UNL     1       2.605   3.612  20.289  0.00  0.00    +0.000 C 
ATOM      3  C   UNL     1       1.156   3.572  20.661  0.00  0.00    +0.000 C 
ATOM      4  N   UNL     1       3.306   2.599  20.899  0.00  0.00    +0.000 N 
ATOM      5  C   UNL     1       4.591   2.251  20.637  0.00  0.00    +0.000 C 
ATOM      6  O   UNL     1       5.125   1.290  21.172  0.00  0.00    +0.000 OA
ATOM      7  N   UNL     1       5.224   3.005  19.713  0.00  0.00    +0.000 N 
ATOM      8  C   UNL     1       4.760   4.304  19.253  0.00  0.00    +0.000 C 
ATOM      9  H   UNL     1       2.830   1.976  21.543  0.00  0.00    +0.000 HD
ATOM     10  H   UNL     1       6.183   2.734  19.542  0.00  0.00    +0.000 HD
ENDROOT
BRANCH   8  11
ATOM     11  C   UNL     1       5.317   4.492  17.849  0.00  0.00    +0.000 A 
ATOM     12  C   UNL     1       4.867   3.713  16.767  0.00  0.00    +0.000 A 
ATOM     13  C   UNL     1       5.444   3.850  15.500  0.00  0.00    +0.000 A 
ATOM     14  C   UNL     1       6.482   4.771  15.308  0.00  0.00    +0.000 A 
ATOM     15  C   UNL     1       6.937   5.561  16.369  0.00  0.00    +0.000 A 
ATOM     16  C   UNL     1       6.357   5.418  17.631  0.00  0.00    +0.000 A 
BRANCH  14  17
ATOM     17  N   UNL     1       7.111   4.899  13.987  0.00  0.00    +0.000 N 
ATOM     18  O   UNL     1       6.643   4.227  13.057  0.00  0.00    +0.000 OA
ATOM     19  O   UNL     1       8.081   5.663  13.882  0.00  0.00    +0.000 OA
ENDBRANCH  14  17
ENDBRANCH   8  11
BRANCH   1  20
ATOM     20  C   UNL     1       2.626   5.647  18.795  0.00  0.00    +0.000 C 
ATOM     21  O   UNL     1       2.017   5.589  17.744  0.00  0.00    +0.000 OA
BRANCH  20  22
ATOM     22  O   UNL     1       2.818   6.786  19.502  0.00  0.00    +0.000 OA
BRANCH  22  23
ATOM     23  C   UNL     1       1.795   7.146  20.444  0.00  0.00    +0.000 C 
BRANCH  23  25
ATOM     24  C   UNL     1       0.496   9.289  20.861  0.00  0.00    +0.000 C 
ATOM     25  C   UNL     1       1.386   8.569  20.160  0.00  0.00    +0.000 C 
BRANCH  24  27
ATOM     26  C   UNL     1      -0.244   9.724  23.195  0.00  0.00    +0.000 C 
ATOM     27  C   UNL     1      -0.300   8.775  22.013  0.00  0.00    +0.000 C 
ENDBRANCH  24  27
ENDBRANCH  23  25
ENDBRANCH  22  23
ENDBRANCH  20  22
ENDBRANCH   1  20
TORSDOF 7
ENDMDL
MODEL 2
REMARK VINA RESULT:      -8.2      3.319      7.121
REMARK  Name = 
REMARK  9 active torsions:
REMARK  status: ('A' for Active; 'I' for Inactive)
REMARK    1  A    between atoms: C_1  and  C_2
REMARK    2  A    between atoms: C_2  and  C_3
REMARK    3  A    between atoms: C_4  and  C_5
REMARK    4  A    between atoms: C_5  and  O_6
REMARK    5  A    between atoms: O_6  and  C_7
REMARK    6  A    between atoms: C_7  and  C_9
REMARK    7  A    between atoms: C_10  and  C_11
REMARK    8  A    between atoms: C_16  and  C_17
REMARK    9  A    between atoms: C_20  and  N_21
REMARK                            x       y       z     vdW  Elec       q    Type
REMARK                         _______ _______ _______ _____ _____    ______ ____
ROOT
ATOM      1  C   UNL     1       6.351   6.116  17.458  0.00  0.00    +0.000 C 
ATOM      2  C   UNL     1       7.333   6.956  17.877  0.00  0.00    +0.000 C 
ATOM      3  C   UNL     1       7.656   8.345  17.422  0.00  0.00    +0.000 C 
ATOM      4  N   UNL     1       8.191   6.542  18.868  0.00  0.00    +0.000 N 
ATOM      5  C   UNL     1       8.062   5.415  19.612  0.00  0.00    +0.000 C 
ATOM      6  O   UNL     1       8.829   5.150  20.525  0.00  0.00    +0.000 OA
ATOM      7  N   UNL     1       7.005   4.632  19.307  0.00  0.00    +0.000 N 
ATOM      8  C   UNL     1       6.232   4.733  18.080  0.00  0.00    +0.000 C 
ATOM      9  H   UNL     1       8.949   7.148  19.161  0.00  0.00    +0.000 HD
ATOM     10  H   UNL     1       6.936   3.793  19.866  0.00  0.00    +0.000 HD
ENDROOT
BRANCH   8  11
ATOM     11  C   UNL     1       4.842   4.198  18.396  0.00  0.00    +0.000 A 
ATOM     12  C   UNL     1       4.219   3.237  17.579  0.00  0.00    +0.000 A 
ATOM     13  C   UNL     1       2.913   2.812  17.845  0.00  0.00    +0.000 A 
ATOM     14  C   UNL     1       2.218   3.353  18.934  0.00  0.00    +0.000 A 
ATOM     15  C   UNL     1       2.823   4.303  19.763  0.00  0.00    +0.000 A 
ATOM     16  C   UNL     1       4.127   4.722  19.491  0.00  0.00    +0.000 A 
BRANCH  14  17
ATOM     17  N   UNL     1       0.837   2.933  19.201  0.00  0.00    +0.000 N 
ATOM     18  O   UNL     1       0.267   2.242  18.344  0.00  0.00    +0.000 OA
ATOM     19  O   UNL     1       0.315   3.304  20.263  0.00  0.00    +0.000 OA
ENDBRANCH  14  17
ENDBRANCH   8  11
BRANCH   1  20
ATOM     20  C   UNL     1       5.395   6.427  16.347  0.00  0.00    +0.000 C 
ATOM     21  O   UNL     1       4.285   6.895  16.508  0.00  0.00    +0.000 OA
BRANCH  20  22
ATOM     22  O   UNL     1       5.922   6.113  15.139  0.00  0.00    +0.000 OA
BRANCH  22  23
ATOM     23  C   UNL     1       5.665   4.789  14.643  0.00  0.00    +0.000 C 
BRANCH  23  25
ATOM     24  C   UNL     1       6.464   3.689  12.498  0.00  0.00    +0.000 C 
ATOM     25  C   UNL     1       6.657   4.507  13.544  0.00  0.00    +0.000 C 
BRANCH  24  27
ATOM     26  C   UNL     1       4.330   3.480  11.239  0.00  0.00    +0.000 C 
ATOM     27  C   UNL     1       5.245   2.858  12.277  0.00  0.00    +0.000 C 
ENDBRANCH  24  27
ENDBRANCH  23  25
ENDBRANCH  22  23
ENDBRANCH  20  22
ENDBRANCH   1  20
TORSDOF 7
ENDMDL
MODEL 3
REMARK VINA RESULT:      -8.2      1.244      1.452
REMARK  Name = 
REMARK  9 active torsions:
REMARK  status: ('A' for Active; 'I' for Inactive)
REMARK    1  A    between atoms: C_1  and  C_2
REMARK    2  A    between atoms: C_2  and  C_3
REMARK    3  A    between atoms: C_4  and  C_5
REMARK    4  A    between atoms: C_5  and  O_6
REMARK    5  A    between atoms: O_6  and  C_7
REMARK    6  A    between atoms: C_7  and  C_9
REMARK    7  A    between atoms: C_10  and  C_11
REMARK    8  A    between atoms: C_16  and  C_17
REMARK    9  A    between atoms: C_20  and  N_21
REMARK                            x       y       z     vdW  Elec       q    Type
REMARK                         _______ _______ _______ _____ _____    ______ ____
ROOT
ATOM      1  C   UNL     1       3.209   4.381  19.213  0.00  0.00    +0.000 C 
ATOM      2  C   UNL     1       2.581   3.507  20.042  0.00  0.00    +0.000 C 
ATOM      3  C   UNL     1       1.126   3.379  20.366  0.00  0.00    +0.000 C 
ATOM      4  N   UNL     1       3.328   2.567  20.712  0.00  0.00    +0.000 N 
ATOM      5  C   UNL     1       4.642   2.301  20.506  0.00  0.00    +0.000 C 
ATOM      6  O   UNL     1       5.221   1.399  21.093  0.00  0.00    +0.000 OA
ATOM      7  N   UNL     1       5.254   3.066  19.578  0.00  0.00    +0.000 N 
ATOM      8  C   UNL     1       4.720   4.313  19.055  0.00  0.00    +0.000 C 
ATOM      9  H   UNL     1       2.873   1.935  21.361  0.00  0.00    +0.000 HD
ATOM     10  H   UNL     1       6.235   2.857  19.449  0.00  0.00    +0.000 HD
ENDROOT
BRANCH   8  11
ATOM     11  C   UNL     1       5.312   4.492  17.665  0.00  0.00    +0.000 A 
ATOM     12  C   UNL     1       4.876   3.720  16.572  0.00  0.00    +0.000 A 
ATOM     13  C   UNL     1       5.485   3.848  15.319  0.00  0.00    +0.000 A 
ATOM     14  C   UNL     1       6.542   4.752  15.152  0.00  0.00    +0.000 A 
ATOM     15  C   UNL     1       6.985   5.534  16.224  0.00  0.00    +0.000 A 
ATOM     16  C   UNL     1       6.372   5.401  17.472  0.00  0.00    +0.000 A 
BRANCH  14  17
ATOM     17  N   UNL     1       7.204   4.870  13.847  0.00  0.00    +0.000 N 
ATOM     18  O   UNL     1       6.793   4.153  12.924  0.00  0.00    +0.000 OA
ATOM     19  O   UNL     1       8.144   5.672  13.747  0.00  0.00    +0.000 OA
ENDBRANCH  14  17
ENDBRANCH   8  11
BRANCH   1  20
ATOM     20  C   UNL     1       2.516   5.487  18.477  0.00  0.00    +0.000 C 
ATOM     21  O   UNL     1       1.597   5.322  17.698  0.00  0.00    +0.000 OA
BRANCH  20  22
ATOM     22  O   UNL     1       3.047   6.695  18.784  0.00  0.00    +0.000 OA
BRANCH  22  23
ATOM     23  C   UNL     1       2.130   7.724  19.189  0.00  0.00    +0.000 C 
BRANCH  23  25
ATOM     24  C   UNL     1       1.116   9.711  17.974  0.00  0.00    +0.000 C 
ATOM     25  C   UNL     1       1.994   8.697  18.046  0.00  0.00    +0.000 C 
BRANCH  24  27
ATOM     26  C   UNL     1      -0.965  10.981  18.461  0.00  0.00    +0.000 C 
ATOM     27  C   UNL     1       0.070  10.009  18.995  0.00  0.00    +0.000 C 
ENDBRANCH  24  27
ENDBRANCH  23  25
ENDBRANCH  22  23
ENDBRANCH  20  22
ENDBRANCH   1  20
TORSDOF 7
ENDMDL
MODEL 4
REMARK VINA RESULT:      -8.1      0.643      1.012
REMARK  Name = 
REMARK  9 active torsions:
REMARK  status: ('A' for Active; 'I' for Inactive)
REMARK    1  A    between atoms: C_1  and  C_2
REMARK    2  A    between atoms: C_2  and  C_3
REMARK    3  A    between atoms: C_4  and  C_5
REMARK    4  A    between atoms: C_5  and  O_6
REMARK    5  A    between atoms: O_6  and  C_7
REMARK    6  A    between atoms: C_7  and  C_9
REMARK    7  A    between atoms: C_10  and  C_11
REMARK    8  A    between atoms: C_16  and  C_17
REMARK    9  A    between atoms: C_20  and  N_21
REMARK                            x       y       z     vdW  Elec       q    Type
REMARK                         _______ _______ _______ _____ _____    ______ ____
ROOT
ATOM      1  C   UNL     1       3.259   4.456  19.343  0.00  0.00    +0.000 C 
ATOM      2  C   UNL     1       2.610   3.596  20.172  0.00  0.00    +0.000 C 
ATOM      3  C   UNL     1       1.158   3.527  20.525  0.00  0.00    +0.000 C 
ATOM      4  N   UNL     1       3.327   2.612  20.810  0.00  0.00    +0.000 N 
ATOM      5  C   UNL     1       4.624   2.291  20.571  0.00  0.00    +0.000 C 
ATOM      6  O   UNL     1       5.173   1.354  21.131  0.00  0.00    +0.000 OA
ATOM      7  N   UNL     1       5.250   3.044  19.643  0.00  0.00    +0.000 N 
ATOM      8  C   UNL     1       4.762   4.323  19.152  0.00  0.00    +0.000 C 
ATOM      9  H   UNL     1       2.858   1.989  21.458  0.00  0.00    +0.000 HD
ATOM     10  H   UNL     1       6.218   2.794  19.489  0.00  0.00    +0.000 HD
ENDROOT
BRANCH   8  11
ATOM     11  C   UNL     1       5.333   4.499  17.753  0.00  0.00    +0.000 A 
ATOM     12  C   UNL     1       4.829   3.779  16.654  0.00  0.00    +0.000 A 
ATOM     13  C   UNL     1       5.416   3.901  15.390  0.00  0.00    +0.000 A 
ATOM     14  C   UNL     1       6.520   4.746  15.219  0.00  0.00    +0.000 A 
ATOM     15  C   UNL     1       7.031   5.477  16.296  0.00  0.00    +0.000 A 
ATOM     16  C   UNL     1       6.439   5.350  17.555  0.00  0.00    +0.000 A 
BRANCH  14  17
ATOM     17  N   UNL     1       7.159   4.856  13.901  0.00  0.00    +0.000 N 
ATOM     18  O   UNL     1       8.092   5.662  13.777  0.00  0.00    +0.000 OA
ATOM     19  O   UNL     1       6.721   4.144  12.986  0.00  0.00    +0.000 OA
ENDBRANCH  14  17
ENDBRANCH   8  11
BRANCH   1  20
ATOM     20  C   UNL     1       2.601   5.604  18.641  0.00  0.00    +0.000 C 
ATOM     21  O   UNL     1       1.772   5.485  17.760  0.00  0.00    +0.000 OA
BRANCH  20  22
ATOM     22  O   UNL     1       3.052   6.793  19.108  0.00  0.00    +0.000 OA
BRANCH  22  23
ATOM     23  C   UNL     1       2.068   7.810  19.351  0.00  0.00    +0.000 C 
BRANCH  23  25
ATOM     24  C   UNL     1       0.985   8.570  21.519  0.00  0.00    +0.000 C 
ATOM     25  C   UNL     1       1.544   7.622  20.751  0.00  0.00    +0.000 C 
BRANCH  24  27
ATOM     26  C   UNL     1      -0.500  10.280  20.491  0.00  0.00    +0.000 C 
ATOM     27  C   UNL     1       0.845  10.006  21.137  0.00  0.00    +0.000 C 
ENDBRANCH  24  27
ENDBRANCH  23  25
ENDBRANCH  22  23
ENDBRANCH  20  22
ENDBRANCH   1  20
TORSDOF 7
ENDMDL
MODEL 5
REMARK VINA RESULT:      -8.1      3.279      7.157
REMARK  Name = 
REMARK  9 active torsions:
REMARK  status: ('A' for Active; 'I' for Inactive)
REMARK    1  A    between atoms: C_1  and  C_2
REMARK    2  A    between atoms: C_2  and  C_3
REMARK    3  A    between atoms: C_4  and  C_5
REMARK    4  A    between atoms: C_5  and  O_6
REMARK    5  A    between atoms: O_6  and  C_7
REMARK    6  A    between atoms: C_7  and  C_9
REMARK    7  A    between atoms: C_10  and  C_11
REMARK    8  A    between atoms: C_16  and  C_17
REMARK    9  A    between atoms: C_20  and  N_21
REMARK                            x       y       z     vdW  Elec       q    Type
REMARK                         _______ _______ _______ _____ _____    ______ ____
ROOT
ATOM      1  C   UNL     1       6.402   6.113  17.506  0.00  0.00    +0.000 C 
ATOM      2  C   UNL     1       7.394   6.928  17.950  0.00  0.00    +0.000 C 
ATOM      3  C   UNL     1       7.822   8.271  17.446  0.00  0.00    +0.000 C 
ATOM      4  N   UNL     1       8.156   6.531  19.023  0.00  0.00    +0.000 N 
ATOM      5  C   UNL     1       7.915   5.456  19.816  0.00  0.00    +0.000 C 
ATOM      6  O   UNL     1       8.599   5.207  20.797  0.00  0.00    +0.000 OA
ATOM      7  N   UNL     1       6.843   4.709  19.476  0.00  0.00    +0.000 N 
ATOM      8  C   UNL     1       6.166   4.776  18.191  0.00  0.00    +0.000 C 
ATOM      9  H   UNL     1       8.922   7.115  19.339  0.00  0.00    +0.000 HD
ATOM     10  H   UNL     1       6.689   3.908  20.074  0.00  0.00    +0.000 HD
ENDROOT
BRANCH   8  11
ATOM     11  C   UNL     1       4.731   4.328  18.431  0.00  0.00    +0.000 A 
ATOM     12  C   UNL     1       3.928   4.926  19.419  0.00  0.00    +0.000 A 
ATOM     13  C   UNL     1       2.637   4.451  19.675  0.00  0.00    +0.000 A 
ATOM     14  C   UNL     1       2.142   3.365  18.940  0.00  0.00    +0.000 A 
ATOM     15  C   UNL     1       2.922   2.762  17.948  0.00  0.00    +0.000 A 
ATOM     16  C   UNL     1       4.210   3.243  17.699  0.00  0.00    +0.000 A 
BRANCH  14  17
ATOM     17  N   UNL     1       0.799   2.842  19.223  0.00  0.00    +0.000 N 
ATOM     18  O   UNL     1       0.261   2.133  18.361  0.00  0.00    +0.000 OA
ATOM     19  O   UNL     1       0.276   3.149  20.304  0.00  0.00    +0.000 OA
ENDBRANCH  14  17
ENDBRANCH   8  11
BRANCH   1  20
ATOM     20  C   UNL     1       5.546   6.405  16.311  0.00  0.00    +0.000 C 
ATOM     21  O   UNL     1       4.477   6.983  16.359  0.00  0.00    +0.000 OA
BRANCH  20  22
ATOM     22  O   UNL     1       6.110   5.937  15.173  0.00  0.00    +0.000 OA
BRANCH  22  23
ATOM     23  C   UNL     1       6.165   4.511  15.013  0.00  0.00    +0.000 C 
BRANCH  23  25
ATOM     24  C   UNL     1       6.172   3.802  12.574  0.00  0.00    +0.000 C 
ATOM     25  C   UNL     1       6.807   4.219  13.682  0.00  0.00    +0.000 C 
BRANCH  24  27
ATOM     26  C   UNL     1       4.328   3.016  11.103  0.00  0.00    +0.000 C 
ATOM     27  C   UNL     1       4.716   3.490  12.491  0.00  0.00    +0.000 C 
ENDBRANCH  24  27
ENDBRANCH  23  25
ENDBRANCH  22  23
ENDBRANCH  20  22
ENDBRANCH   1  20
TORSDOF 7
ENDMDL
MODEL 6
REMARK VINA RESULT:      -8.1      1.187      1.750
REMARK  Name = 
REMARK  9 active torsions:
REMARK  status: ('A' for Active; 'I' for Inactive)
REMARK    1  A    between atoms: C_1  and  C_2
REMARK    2  A    between atoms: C_2  and  C_3
REMARK    3  A    between atoms: C_4  and  C_5
REMARK    4  A    between atoms: C_5  and  O_6
REMARK    5  A    between atoms: O_6  and  C_7
REMARK    6  A    between atoms: C_7  and  C_9
REMARK    7  A    between atoms: C_10  and  C_11
REMARK    8  A    between atoms: C_16  and  C_17
REMARK    9  A    between atoms: C_20  and  N_21
REMARK                            x       y       z     vdW  Elec       q    Type
REMARK                         _______ _______ _______ _____ _____    ______ ____
ROOT
ATOM      1  C   UNL     1       3.210   4.278  19.154  0.00  0.00    +0.000 C 
ATOM      2  C   UNL     1       2.527   3.442  19.979  0.00  0.00    +0.000 C 
ATOM      3  C   UNL     1       1.053   3.328  20.214  0.00  0.00    +0.000 C 
ATOM      4  N   UNL     1       3.226   2.532  20.736  0.00  0.00    +0.000 N 
ATOM      5  C   UNL     1       4.550   2.256  20.627  0.00  0.00    +0.000 C 
ATOM      6  O   UNL     1       5.086   1.380  21.289  0.00  0.00    +0.000 OA
ATOM      7  N   UNL     1       5.223   2.979  19.707  0.00  0.00    +0.000 N 
ATOM      8  C   UNL     1       4.727   4.201  19.097  0.00  0.00    +0.000 C 
ATOM      9  H   UNL     1       2.728   1.929  21.382  0.00  0.00    +0.000 HD
ATOM     10  H   UNL     1       6.209   2.763  19.651  0.00  0.00    +0.000 HD
ENDROOT
BRANCH   8  11
ATOM     11  C   UNL     1       5.408   4.318  17.740  0.00  0.00    +0.000 A 
ATOM     12  C   UNL     1       6.613   5.026  17.579  0.00  0.00    +0.000 A 
ATOM     13  C   UNL     1       7.185   5.185  16.312  0.00  0.00    +0.000 A 
ATOM     14  C   UNL     1       6.547   4.634  15.193  0.00  0.00    +0.000 A 
ATOM     15  C   UNL     1       5.353   3.920  15.333  0.00  0.00    +0.000 A 
ATOM     16  C   UNL     1       4.789   3.767  16.601  0.00  0.00    +0.000 A 
BRANCH  14  17
ATOM     17  N   UNL     1       7.126   4.822  13.856  0.00  0.00    +0.000 N 
ATOM     18  O   UNL     1       8.020   5.673  13.727  0.00  0.00    +0.000 OA
ATOM     19  O   UNL     1       6.681   4.128  12.931  0.00  0.00    +0.000 OA
ENDBRANCH  14  17
ENDBRANCH   8  11
BRANCH   1  20
ATOM     20  C   UNL     1       2.569   5.351  18.327  0.00  0.00    +0.000 C 
ATOM     21  O   UNL     1       1.660   5.160  17.541  0.00  0.00    +0.000 OA
BRANCH  20  22
ATOM     22  O   UNL     1       3.135   6.559  18.559  0.00  0.00    +0.000 OA
BRANCH  22  23
ATOM     23  C   UNL     1       2.268   7.601  19.034  0.00  0.00    +0.000 C 
BRANCH  23  25
ATOM     24  C   UNL     1       1.372   9.724  17.965  0.00  0.00    +0.000 C 
ATOM     25  C   UNL     1       2.197   8.664  17.968  0.00  0.00    +0.000 C 
BRANCH  24  27
ATOM     26  C   UNL     1       0.805  11.007  20.018  0.00  0.00    +0.000 C 
ATOM     27  C   UNL     1       0.326   9.996  18.994  0.00  0.00    +0.000 C 
ENDBRANCH  24  27
ENDBRANCH  23  25
ENDBRANCH  22  23
ENDBRANCH  20  22
ENDBRANCH   1  20
TORSDOF 7
ENDMDL
MODEL 7
REMARK VINA RESULT:      -7.9      0.779      1.346
REMARK  Name = 
REMARK  9 active torsions:
REMARK  status: ('A' for Active; 'I' for Inactive)
REMARK    1  A    between atoms: C_1  and  C_2
REMARK    2  A    between atoms: C_2  and  C_3
REMARK    3  A    between atoms: C_4  and  C_5
REMARK    4  A    between atoms: C_5  and  O_6
REMARK    5  A    between atoms: O_6  and  C_7
REMARK    6  A    between atoms: C_7  and  C_9
REMARK    7  A    between atoms: C_10  and  C_11
REMARK    8  A    between atoms: C_16  and  C_17
REMARK    9  A    between atoms: C_20  and  N_21
REMARK                            x       y       z     vdW  Elec       q    Type
REMARK                         _______ _______ _______ _____ _____    ______ ____
ROOT
ATOM      1  C   UNL     1       3.221   4.306  19.126  0.00  0.00    +0.000 C 
ATOM      2  C   UNL     1       2.534   3.465  19.942  0.00  0.00    +0.000 C 
ATOM      3  C   UNL     1       1.059   3.348  20.166  0.00  0.00    +0.000 C 
ATOM      4  N   UNL     1       3.228   2.552  20.700  0.00  0.00    +0.000 N 
ATOM      5  C   UNL     1       4.554   2.279  20.599  0.00  0.00    +0.000 C 
ATOM      6  O   UNL     1       5.087   1.401  21.261  0.00  0.00    +0.000 OA
ATOM      7  N   UNL     1       5.232   3.007  19.687  0.00  0.00    +0.000 N 
ATOM      8  C   UNL     1       4.739   4.232  19.079  0.00  0.00    +0.000 C 
ATOM      9  H   UNL     1       2.727   1.946  21.340  0.00  0.00    +0.000 HD
ATOM     10  H   UNL     1       6.219   2.794  19.637  0.00  0.00    +0.000 HD
ENDROOT
BRANCH   8  11
ATOM     11  C   UNL     1       5.429   4.357  17.729  0.00  0.00    +0.000 A 
ATOM     12  C   UNL     1       6.585   5.141  17.561  0.00  0.00    +0.000 A 
ATOM     13  C   UNL     1       7.163   5.302  16.297  0.00  0.00    +0.000 A 
ATOM     14  C   UNL     1       6.580   4.677  15.186  0.00  0.00    +0.000 A 
ATOM     15  C   UNL     1       5.435   3.887  15.333  0.00  0.00    +0.000 A 
ATOM     16  C   UNL     1       4.865   3.732  16.599  0.00  0.00    +0.000 A 
BRANCH  14  17
ATOM     17  N   UNL     1       7.164   4.866  13.852  0.00  0.00    +0.000 N 
ATOM     18  O   UNL     1       6.696   4.200  12.917  0.00  0.00    +0.000 OA
ATOM     19  O   UNL     1       8.099   5.672  13.740  0.00  0.00    +0.000 OA
ENDBRANCH  14  17
ENDBRANCH   8  11
BRANCH   1  20
ATOM     20  C   UNL     1       2.584   5.382  18.300  0.00  0.00    +0.000 C 
ATOM     21  O   UNL     1       1.672   5.196  17.518  0.00  0.00    +0.000 OA
BRANCH  20  22
ATOM     22  O   UNL     1       3.158   6.586  18.528  0.00  0.00    +0.000 OA
BRANCH  22  23
ATOM     23  C   UNL     1       2.282   7.664  18.895  0.00  0.00    +0.000 C 
BRANCH  23  25
ATOM     24  C   UNL     1       1.206   8.305  21.104  0.00  0.00    +0.000 C 
ATOM     25  C   UNL     1       1.797   7.409  20.298  0.00  0.00    +0.000 C 
BRANCH  24  27
ATOM     26  C   UNL     1      -0.404   9.974  20.206  0.00  0.00    +0.000 C 
ATOM     27  C   UNL     1       0.986   9.742  20.767  0.00  0.00    +0.000 C 
ENDBRANCH  24  27
ENDBRANCH  23  25
ENDBRANCH  22  23
ENDBRANCH  20  22
ENDBRANCH   1  20
TORSDOF 7
ENDMDL
MODEL 8
REMARK VINA RESULT:      -7.8      0.853      1.404
REMARK  Name = 
REMARK  9 active torsions:
REMARK  status: ('A' for Active; 'I' for Inactive)
REMARK    1  A    between atoms: C_1  and  C_2
REMARK    2  A    between atoms: C_2  and  C_3
REMARK    3  A    between atoms: C_4  and  C_5
REMARK    4  A    between atoms: C_5  and  O_6
REMARK    5  A    between atoms: O_6  and  C_7
REMARK    6  A    between atoms: C_7  and  C_9
REMARK    7  A    between atoms: C_10  and  C_11
REMARK    8  A    between atoms: C_16  and  C_17
REMARK    9  A    between atoms: C_20  and  N_21
REMARK                            x       y       z     vdW  Elec       q    Type
REMARK                         _______ _______ _______ _____ _____    ______ ____
ROOT
ATOM      1  C   UNL     1       3.208   4.338  19.422  0.00  0.00    +0.000 C 
ATOM      2  C   UNL     1       2.569   3.450  20.228  0.00  0.00    +0.000 C 
ATOM      3  C   UNL     1       1.116   3.355  20.577  0.00  0.00    +0.000 C 
ATOM      4  N   UNL     1       3.297   2.460  20.843  0.00  0.00    +0.000 N 
ATOM      5  C   UNL     1       4.598   2.160  20.598  0.00  0.00    +0.000 C 
ATOM      6  O   UNL     1       5.157   1.216  21.136  0.00  0.00    +0.000 OA
ATOM      7  N   UNL     1       5.216   2.944  19.690  0.00  0.00    +0.000 N 
ATOM      8  C   UNL     1       4.713   4.228  19.230  0.00  0.00    +0.000 C 
ATOM      9  H   UNL     1       2.834   1.815  21.475  0.00  0.00    +0.000 HD
ATOM     10  H   UNL     1       6.187   2.709  19.532  0.00  0.00    +0.000 HD
ENDROOT
BRANCH   8  11
ATOM     11  C   UNL     1       5.284   4.446  17.836  0.00  0.00    +0.000 A 
ATOM     12  C   UNL     1       4.776   3.763  16.717  0.00  0.00    +0.000 A 
ATOM     13  C   UNL     1       5.362   3.921  15.456  0.00  0.00    +0.000 A 
ATOM     14  C   UNL     1       6.469   4.767  15.310  0.00  0.00    +0.000 A 
ATOM     15  C   UNL     1       6.984   5.462  16.410  0.00  0.00    +0.000 A 
ATOM     16  C   UNL     1       6.393   5.298  17.664  0.00  0.00    +0.000 A 
BRANCH  14  17
ATOM     17  N   UNL     1       7.108   4.915  13.996  0.00  0.00    +0.000 N 
ATOM     18  O   UNL     1       6.640   4.266  13.050  0.00  0.00    +0.000 OA
ATOM     19  O   UNL     1       8.086   5.673  13.912  0.00  0.00    +0.000 OA
ENDBRANCH  14  17
ENDBRANCH   8  11
BRANCH   1  20
ATOM     20  C   UNL     1       2.538   5.495  18.748  0.00  0.00    +0.000 C 
ATOM     21  O   UNL     1       2.013   5.440  17.652  0.00  0.00    +0.000 OA
BRANCH  20  22
ATOM     22  O   UNL     1       2.596   6.613  19.509  0.00  0.00    +0.000 OA
BRANCH  22  23
ATOM     23  C   UNL     1       1.478   6.870  20.374  0.00  0.00    +0.000 C 
BRANCH  23  25
ATOM     24  C   UNL     1       1.211   9.381  20.101  0.00  0.00    +0.000 C 
ATOM     25  C   UNL     1       1.562   8.306  20.824  0.00  0.00    +0.000 C 
BRANCH  24  27
ATOM     26  C   UNL     1       1.884   9.488  17.710  0.00  0.00    +0.000 C 
ATOM     27  C   UNL     1       0.734   9.342  18.688  0.00  0.00    +0.000 C 
ENDBRANCH  24  27
ENDBRANCH  23  25
ENDBRANCH  22  23
ENDBRANCH  20  22
ENDBRANCH   1  20
TORSDOF 7
ENDMDL
MODEL 9
REMARK VINA RESULT:      -7.7      3.494      6.704
REMARK  Name = 
REMARK  9 active torsions:
REMARK  status: ('A' for Active; 'I' for Inactive)
REMARK    1  A    between atoms: C_1  and  C_2
REMARK    2  A    between atoms: C_2  and  C_3
REMARK    3  A    between atoms: C_4  and  C_5
REMARK    4  A    between atoms: C_5  and  O_6
REMARK    5  A    between atoms: O_6  and  C_7
REMARK    6  A    between atoms: C_7  and  C_9
REMARK    7  A    between atoms: C_10  and  C_11
REMARK    8  A    between atoms: C_16  and  C_17
REMARK    9  A    between atoms: C_20  and  N_21
REMARK                            x       y       z     vdW  Elec       q    Type
REMARK                         _______ _______ _______ _____ _____    ______ ____
ROOT
ATOM      1  C   UNL     1       5.359   5.616  17.668  0.00  0.00    +0.000 C 
ATOM      2  C   UNL     1       6.217   4.636  18.054  0.00  0.00    +0.000 C 
ATOM      3  C   UNL     1       7.702   4.549  17.887  0.00  0.00    +0.000 C 
ATOM      4  N   UNL     1       5.722   3.533  18.707  0.00  0.00    +0.000 N 
ATOM      5  C   UNL     1       4.454   3.384  19.169  0.00  0.00    +0.000 C 
ATOM      6  O   UNL     1       4.107   2.400  19.805  0.00  0.00    +0.000 OA
ATOM      7  N   UNL     1       3.618   4.414  18.921  0.00  0.00    +0.000 N 
ATOM      8  C   UNL     1       3.873   5.467  17.951  0.00  0.00    +0.000 C 
ATOM      9  H   UNL     1       6.349   2.779  18.966  0.00  0.00    +0.000 HD
ATOM     10  H   UNL     1       2.677   4.277  19.265  0.00  0.00    +0.000 HD
ENDROOT
BRANCH   8  11
ATOM     11  C   UNL     1       3.098   6.689  18.421  0.00  0.00    +0.000 A 
ATOM     12  C   UNL     1       2.597   6.785  19.732  0.00  0.00    +0.000 A 
ATOM     13  C   UNL     1       1.823   7.884  20.123  0.00  0.00    +0.000 A 
ATOM     14  C   UNL     1       1.543   8.897  19.197  0.00  0.00    +0.000 A 
ATOM     15  C   UNL     1       2.039   8.824  17.891  0.00  0.00    +0.000 A 
ATOM     16  C   UNL     1       2.810   7.724  17.508  0.00  0.00    +0.000 A 
BRANCH  14  17
ATOM     17  N   UNL     1       0.708  10.038  19.592  0.00  0.00    +0.000 N 
ATOM     18  O   UNL     1       1.178  11.176  19.447  0.00  0.00    +0.000 OA
ATOM     19  O   UNL     1      -0.415   9.797  20.058  0.00  0.00    +0.000 OA
ENDBRANCH  14  17
ENDBRANCH   8  11
BRANCH   1  20
ATOM     20  C   UNL     1       5.767   6.834  16.896  0.00  0.00    +0.000 C 
ATOM     21  O   UNL     1       5.594   6.978  15.701  0.00  0.00    +0.000 OA
BRANCH  20  22
ATOM     22  O   UNL     1       6.360   7.752  17.697  0.00  0.00    +0.000 OA
BRANCH  22  23
ATOM     23  C   UNL     1       7.658   8.220  17.298  0.00  0.00    +0.000 C 
BRANCH  23  25
ATOM     24  C   UNL     1       9.005   9.660  18.898  0.00  0.00    +0.000 C 
ATOM     25  C   UNL     1       8.457   8.486  18.547  0.00  0.00    +0.000 C 
BRANCH  24  27
ATOM     26  C   UNL     1      10.364  11.461  17.853  0.00  0.00    +0.000 C 
ATOM     27  C   UNL     1       8.971  10.900  18.069  0.00  0.00    +0.000 C 
ENDBRANCH  24  27
ENDBRANCH  23  25
ENDBRANCH  22  23
ENDBRANCH  20  22
ENDBRANCH   1  20
TORSDOF 7
ENDMDL
