MODEL 1
REMARK VINA RESULT:      -8.1      0.000      0.000
REMARK  Name = 
REMARK  5 active torsions:
REMARK  status: ('A' for Active; 'I' for Inactive)
REMARK    1  A    between atoms: C_1  and  S_2
REMARK    2  A    between atoms: S_2  and  C_3
REMARK    3  A    between atoms: N_5  and  C_6
REMARK    4  A    between atoms: C_14  and  N_15
REMARK    5  A    between atoms: C_19  and  C_21
REMARK                            x       y       z     vdW  Elec       q    Type
REMARK                         _______ _______ _______ _____ _____    ______ ____
ROOT
ATOM      1  C   UNL     1      -1.160  11.735  21.565  0.00  0.00    +0.000 A 
ATOM      2  N   UNL     1      -1.750  11.963  20.394  0.00  0.00    +0.000 NA
ATOM      3  N   UNL     1      -1.412  10.890  19.633  0.00  0.00    +0.000 N 
ATOM      4  C   UNL     1      -0.473  10.078  20.260  0.00  0.00    +0.000 A 
ATOM      5  C   UNL     1       0.289   8.976  19.819  0.00  0.00    +0.000 A 
ATOM      6  C   UNL     1       1.201   8.353  20.685  0.00  0.00    +0.000 A 
ATOM      7  C   UNL     1       1.319   8.873  21.981  0.00  0.00    +0.000 A 
ATOM      8  C   UNL     1       0.584   9.985  22.423  0.00  0.00    +0.000 A 
ATOM      9  C   UNL     1      -0.312  10.609  21.538  0.00  0.00    +0.000 A 
ENDROOT
BRANCH   6  10
ATOM     10  N   UNL     1       1.965   7.282  20.266  0.00  0.00    +0.000 N 
ATOM     11  C   UNL     1       1.692   5.883  20.666  0.00  0.00    +0.000 C 
ATOM     12  C   UNL     1       1.586   4.952  19.440  0.00  0.00    +0.000 C 
ATOM     13  N   UNL     1       2.701   5.162  18.502  0.00  0.00    +0.000 N 
ATOM     14  C   UNL     1       3.471   4.075  18.101  0.00  0.00    +0.000 C 
ATOM     15  O   UNL     1       3.216   2.923  18.447  0.00  0.00    +0.000 OA
ATOM     16  C   UNL     1       2.821   6.565  18.079  0.00  0.00    +0.000 C 
ATOM     17  C   UNL     1       3.068   7.464  19.305  0.00  0.00    +0.000 C 
BRANCH  14  18
ATOM     18  C   UNL     1       4.634   4.263  17.204  0.00  0.00    +0.000 A 
ATOM     19  C   UNL     1       4.557   4.248  15.811  0.00  0.00    +0.000 A 
ATOM     20  C   UNL     1       5.725   4.334  15.056  0.00  0.00    +0.000 A 
ATOM     21  C   UNL     1       6.927   4.509  15.723  0.00  0.00    +0.000 A 
ATOM     22  N   UNL     1       7.028   4.621  17.065  0.00  0.00    +0.000 NA
ATOM     23  C   UNL     1       5.877   4.504  17.776  0.00  0.00    +0.000 A 
ENDBRANCH  14  18
ENDBRANCH   6  10
BRANCH   3  24
ATOM     24  C   UNL     1      -2.018  10.724  18.357  0.00  0.00    +0.000 A 
ATOM     25  C   UNL     1      -3.226  11.384  18.086  0.00  0.00    +0.000 A 
ATOM     26  C   UNL     1      -3.831  11.248  16.837  0.00  0.00    +0.000 A 
ATOM     27  C   UNL     1      -3.250  10.431  15.868  0.00  0.00    +0.000 A 
ATOM     28  C   UNL     1      -2.072   9.742  16.145  0.00  0.00    +0.000 A 
ATOM     29  C   UNL     1      -1.452   9.888  17.386  0.00  0.00    +0.000 A 
ENDBRANCH   3  24
BRANCH   1  31
ATOM     30  C   UNL     1      -2.958  13.594  22.505  0.00  0.00    +0.000 C 
ATOM     31  S   UNL     1      -1.405  12.782  22.946  0.00  0.00    +0.000 S 
ENDBRANCH   1  31
TORSDOF 4
ENDMDL
MODEL 2
REMARK VINA RESULT:      -8.0      2.346      3.053
REMARK  Name = 
REMARK  5 active torsions:
REMARK  status: ('A' for Active; 'I' for Inactive)
REMARK    1  A    between atoms: C_1  and  S_2
REMARK    2  A    between atoms: S_2  and  C_3
REMARK    3  A    between atoms: N_5  and  C_6
REMARK    4  A    between atoms: C_14  and  N_15
REMARK    5  A    between atoms: C_19  and  C_21
REMARK                            x       y       z     vdW  Elec       q    Type
REMARK                         _______ _______ _______ _____ _____    ______ ____
ROOT
ATOM      1  C   UNL     1      -0.757  11.480  22.240  0.00  0.00    +0.000 A 
ATOM      2  N   UNL     1      -0.005  12.465  21.757  0.00  0.00    +0.000 NA
ATOM      3  N   UNL     1       0.873  11.842  20.928  0.00  0.00    +0.000 N 
ATOM      4  C   UNL     1       0.789  10.457  21.023  0.00  0.00    +0.000 A 
ATOM      5  C   UNL     1       1.581   9.411  20.507  0.00  0.00    +0.000 A 
ATOM      6  C   UNL     1       1.265   8.074  20.793  0.00  0.00    +0.000 A 
ATOM      7  C   UNL     1       0.150   7.835  21.608  0.00  0.00    +0.000 A 
ATOM      8  C   UNL     1      -0.632   8.870  22.149  0.00  0.00    +0.000 A 
ATOM      9  C   UNL     1      -0.290  10.204  21.866  0.00  0.00    +0.000 A 
ENDROOT
BRANCH   6  10
ATOM     10  N   UNL     1       2.037   7.038  20.308  0.00  0.00    +0.000 N 
ATOM     11  C   UNL     1       1.777   5.614  20.621  0.00  0.00    +0.000 C 
ATOM     12  C   UNL     1       1.677   4.760  19.340  0.00  0.00    +0.000 C 
ATOM     13  N   UNL     1       2.787   5.037  18.415  0.00  0.00    +0.000 N 
ATOM     14  C   UNL     1       3.566   3.984  17.946  0.00  0.00    +0.000 C 
ATOM     15  O   UNL     1       3.321   2.810  18.221  0.00  0.00    +0.000 OA
ATOM     16  C   UNL     1       2.895   6.465  18.080  0.00  0.00    +0.000 C 
ATOM     17  C   UNL     1       3.136   7.289  19.358  0.00  0.00    +0.000 C 
BRANCH  14  18
ATOM     18  C   UNL     1       4.724   4.237  17.061  0.00  0.00    +0.000 A 
ATOM     19  C   UNL     1       4.647   4.293  15.668  0.00  0.00    +0.000 A 
ATOM     20  C   UNL     1       5.813   4.436  14.920  0.00  0.00    +0.000 A 
ATOM     21  C   UNL     1       7.013   4.596  15.595  0.00  0.00    +0.000 A 
ATOM     22  N   UNL     1       7.112   4.641  16.941  0.00  0.00    +0.000 NA
ATOM     23  C   UNL     1       5.963   4.468  17.645  0.00  0.00    +0.000 A 
ENDBRANCH  14  18
ENDBRANCH   6  10
BRANCH   3  24
ATOM     24  C   UNL     1       1.729  12.625  20.105  0.00  0.00    +0.000 A 
ATOM     25  C   UNL     1       1.682  12.451  18.715  0.00  0.00    +0.000 A 
ATOM     26  C   UNL     1       2.501  13.218  17.886  0.00  0.00    +0.000 A 
ATOM     27  C   UNL     1       3.388  14.138  18.444  0.00  0.00    +0.000 A 
ATOM     28  C   UNL     1       3.467  14.287  19.826  0.00  0.00    +0.000 A 
ATOM     29  C   UNL     1       2.637  13.536  20.660  0.00  0.00    +0.000 A 
ENDBRANCH   3  24
BRANCH   1  31
ATOM     30  C   UNL     1      -3.277  12.580  22.109  0.00  0.00    +0.000 C 
ATOM     31  S   UNL     1      -2.140  11.789  23.269  0.00  0.00    +0.000 S 
ENDBRANCH   1  31
TORSDOF 4
ENDMDL
MODEL 3
REMARK VINA RESULT:      -7.9      3.823      9.526
REMARK  Name = 
REMARK  5 active torsions:
REMARK  status: ('A' for Active; 'I' for Inactive)
REMARK    1  A    between atoms: C_1  and  S_2
REMARK    2  A    between atoms: S_2  and  C_3
REMARK    3  A    between atoms: N_5  and  C_6
REMARK    4  A    between atoms: C_14  and  N_15
REMARK    5  A    between atoms: C_19  and  C_21
REMARK                            x       y       z     vdW  Elec       q    Type
REMARK                         _______ _______ _______ _____ _____    ______ ____
ROOT
ATOM      1  C   UNL     1       4.151   6.320  17.330  0.00  0.00    +0.000 A 
ATOM      2  N   UNL     1       3.992   5.236  18.086  0.00  0.00    +0.000 NA
ATOM      3  N   UNL     1       2.932   5.535  18.882  0.00  0.00    +0.000 N 
ATOM      4  C   UNL     1       2.536   6.862  18.750  0.00  0.00    +0.000 A 
ATOM      5  C   UNL     1       1.624   7.666  19.465  0.00  0.00    +0.000 A 
ATOM      6  C   UNL     1       1.442   9.012  19.117  0.00  0.00    +0.000 A 
ATOM      7  C   UNL     1       2.201   9.512  18.051  0.00  0.00    +0.000 A 
ATOM      8  C   UNL     1       3.132   8.728  17.348  0.00  0.00    +0.000 A 
ATOM      9  C   UNL     1       3.314   7.385  17.721  0.00  0.00    +0.000 A 
ENDROOT
BRANCH   6  10
ATOM     10  N   UNL     1       0.564   9.817  19.815  0.00  0.00    +0.000 N 
ATOM     11  C   UNL     1      -0.280   9.325  20.928  0.00  0.00    +0.000 C 
ATOM     12  C   UNL     1      -0.109  10.191  22.195  0.00  0.00    +0.000 C 
ATOM     13  N   UNL     1      -0.199  11.627  21.886  0.00  0.00    +0.000 N 
ATOM     14  C   UNL     1      -1.100  12.422  22.587  0.00  0.00    +0.000 C 
ATOM     15  O   UNL     1      -1.784  11.985  23.512  0.00  0.00    +0.000 OA
ATOM     16  C   UNL     1       0.753  12.038  20.844  0.00  0.00    +0.000 C 
ATOM     17  C   UNL     1       0.476  11.263  19.542  0.00  0.00    +0.000 C 
BRANCH  14  18
ATOM     18  C   UNL     1      -1.255  13.857  22.260  0.00  0.00    +0.000 A 
ATOM     19  C   UNL     1      -0.473  14.874  22.811  0.00  0.00    +0.000 A 
ATOM     20  C   UNL     1      -0.765  16.203  22.515  0.00  0.00    +0.000 A 
ATOM     21  C   UNL     1      -1.784  16.468  21.614  0.00  0.00    +0.000 A 
ATOM     22  N   UNL     1      -2.498  15.507  20.990  0.00  0.00    +0.000 NA
ATOM     23  C   UNL     1      -2.212  14.221  21.321  0.00  0.00    +0.000 A 
ENDBRANCH  14  18
ENDBRANCH   6  10
BRANCH   3  24
ATOM     24  C   UNL     1       2.377   4.521  19.710  0.00  0.00    +0.000 A 
ATOM     25  C   UNL     1       1.429   3.641  19.167  0.00  0.00    +0.000 A 
ATOM     26  C   UNL     1       0.882   2.629  19.956  0.00  0.00    +0.000 A 
ATOM     27  C   UNL     1       1.256   2.512  21.294  0.00  0.00    +0.000 A 
ATOM     28  C   UNL     1       2.167   3.406  21.849  0.00  0.00    +0.000 A 
ATOM     29  C   UNL     1       2.732   4.410  21.060  0.00  0.00    +0.000 A 
ENDBRANCH   3  24
BRANCH   1  31
ATOM     30  C   UNL     1       6.869   6.134  16.938  0.00  0.00    +0.000 C 
ATOM     31  S   UNL     1       5.325   6.380  16.032  0.00  0.00    +0.000 S 
ENDBRANCH   1  31
TORSDOF 4
ENDMDL
MODEL 4
REMARK VINA RESULT:      -7.8      3.636      9.623
REMARK  Name = 
REMARK  5 active torsions:
REMARK  status: ('A' for Active; 'I' for Inactive)
REMARK    1  A    between atoms: C_1  and  S_2
REMARK    2  A    between atoms: S_2  and  C_3
REMARK    3  A    between atoms: N_5  and  C_6
REMARK    4  A    between atoms: C_14  and  N_15
REMARK    5  A    between atoms: C_19  and  C_21
REMARK                            x       y       z     vdW  Elec       q    Type
REMARK                         _______ _______ _______ _____ _____    ______ ____
ROOT
ATOM      1  C   UNL     1       4.079   6.417  17.274  0.00  0.00    +0.000 A 
ATOM      2  N   UNL     1       3.908   5.315  18.001  0.00  0.00    +0.000 NA
ATOM      3  N   UNL     1       2.871   5.615  18.826  0.00  0.00    +0.000 N 
ATOM      4  C   UNL     1       2.506   6.954  18.742  0.00  0.00    +0.000 A 
ATOM      5  C   UNL     1       1.628   7.758  19.499  0.00  0.00    +0.000 A 
ATOM      6  C   UNL     1       1.473   9.118  19.195  0.00  0.00    +0.000 A 
ATOM      7  C   UNL     1       2.224   9.631  18.128  0.00  0.00    +0.000 A 
ATOM      8  C   UNL     1       3.120   8.847  17.384  0.00  0.00    +0.000 A 
ATOM      9  C   UNL     1       3.277   7.490  17.713  0.00  0.00    +0.000 A 
ENDROOT
BRANCH   6  10
ATOM     10  N   UNL     1       0.628   9.923  19.933  0.00  0.00    +0.000 N 
ATOM     11  C   UNL     1       1.108  11.007  20.821  0.00  0.00    +0.000 C 
ATOM     12  C   UNL     1       0.416  12.349  20.503  0.00  0.00    +0.000 C 
ATOM     13  N   UNL     1      -1.043  12.192  20.386  0.00  0.00    +0.000 N 
ATOM     14  C   UNL     1      -1.880  13.000  21.149  0.00  0.00    +0.000 C 
ATOM     15  O   UNL     1      -1.451  13.897  21.874  0.00  0.00    +0.000 OA
ATOM     16  C   UNL     1      -1.420  11.168  19.402  0.00  0.00    +0.000 C 
ATOM     17  C   UNL     1      -0.836   9.803  19.812  0.00  0.00    +0.000 C 
BRANCH  14  18
ATOM     18  C   UNL     1      -3.350  12.827  21.097  0.00  0.00    +0.000 A 
ATOM     19  C   UNL     1      -4.099  12.856  19.919  0.00  0.00    +0.000 A 
ATOM     20  C   UNL     1      -5.489  12.785  19.987  0.00  0.00    +0.000 A 
ATOM     21  C   UNL     1      -6.079  12.608  21.228  0.00  0.00    +0.000 A 
ATOM     22  N   UNL     1      -5.380  12.483  22.376  0.00  0.00    +0.000 NA
ATOM     23  C   UNL     1      -4.029  12.587  22.284  0.00  0.00    +0.000 A 
ENDBRANCH  14  18
ENDBRANCH   6  10
BRANCH   3  24
ATOM     24  C   UNL     1       2.307   4.590  19.635  0.00  0.00    +0.000 A 
ATOM     25  C   UNL     1       2.706   4.485  20.975  0.00  0.00    +0.000 A 
ATOM     26  C   UNL     1       2.155   3.497  21.792  0.00  0.00    +0.000 A 
ATOM     27  C   UNL     1       1.230   2.595  21.266  0.00  0.00    +0.000 A 
ATOM     28  C   UNL     1       0.861   2.670  19.926  0.00  0.00    +0.000 A 
ATOM     29  C   UNL     1       1.394   3.668  19.108  0.00  0.00    +0.000 A 
ENDBRANCH   3  24
BRANCH   1  31
ATOM     30  C   UNL     1       6.521   5.374  16.551  0.00  0.00    +0.000 C 
ATOM     31  S   UNL     1       5.229   6.487  15.955  0.00  0.00    +0.000 S 
ENDBRANCH   1  31
TORSDOF 4
ENDMDL
MODEL 5
REMARK VINA RESULT:      -7.8      3.834      9.469
REMARK  Name = 
REMARK  5 active torsions:
REMARK  status: ('A' for Active; 'I' for Inactive)
REMARK    1  A    between atoms: C_1  and  S_2
REMARK    2  A    between atoms: S_2  and  C_3
REMARK    3  A    between atoms: N_5  and  C_6
REMARK    4  A    between atoms: C_14  and  N_15
REMARK    5  A    between atoms: C_19  and  C_21
REMARK                            x       y       z     vdW  Elec       q    Type
REMARK                         _______ _______ _______ _____ _____    ______ ____
ROOT
ATOM      1  C   UNL     1       4.149   6.278  17.361  0.00  0.00    +0.000 A 
ATOM      2  N   UNL     1       3.971   5.191  18.109  0.00  0.00    +0.000 NA
ATOM      3  N   UNL     1       2.904   5.494  18.894  0.00  0.00    +0.000 N 
ATOM      4  C   UNL     1       2.522   6.826  18.766  0.00  0.00    +0.000 A 
ATOM      5  C   UNL     1       1.609   7.634  19.475  0.00  0.00    +0.000 A 
ATOM      6  C   UNL     1       1.444   8.985  19.133  0.00  0.00    +0.000 A 
ATOM      7  C   UNL     1       2.221   9.484  18.079  0.00  0.00    +0.000 A 
ATOM      8  C   UNL     1       3.153   8.695  17.382  0.00  0.00    +0.000 A 
ATOM      9  C   UNL     1       3.318   7.348  17.749  0.00  0.00    +0.000 A 
ENDROOT
BRANCH   6  10
ATOM     10  N   UNL     1       0.565   9.793  19.825  0.00  0.00    +0.000 N 
ATOM     11  C   UNL     1      -0.238   9.323  20.977  0.00  0.00    +0.000 C 
ATOM     12  C   UNL     1      -0.055  10.237  22.207  0.00  0.00    +0.000 C 
ATOM     13  N   UNL     1      -0.187  11.658  21.851  0.00  0.00    +0.000 N 
ATOM     14  C   UNL     1      -1.089  12.457  22.547  0.00  0.00    +0.000 C 
ATOM     15  O   UNL     1      -1.738  12.038  23.505  0.00  0.00    +0.000 OA
ATOM     16  C   UNL     1       0.728  12.053  20.770  0.00  0.00    +0.000 C 
ATOM     17  C   UNL     1       0.436  11.226  19.504  0.00  0.00    +0.000 C 
BRANCH  14  18
ATOM     18  C   UNL     1      -1.286  13.876  22.174  0.00  0.00    +0.000 A 
ATOM     19  C   UNL     1      -2.156  14.307  21.172  0.00  0.00    +0.000 A 
ATOM     20  C   UNL     1      -2.195  15.656  20.828  0.00  0.00    +0.000 A 
ATOM     21  C   UNL     1      -1.416  16.543  21.555  0.00  0.00    +0.000 A 
ATOM     22  N   UNL     1      -0.634  16.173  22.593  0.00  0.00    +0.000 NA
ATOM     23  C   UNL     1      -0.593  14.847  22.885  0.00  0.00    +0.000 A 
ENDBRANCH  14  18
ENDBRANCH   6  10
BRANCH   3  24
ATOM     24  C   UNL     1       2.329   4.481  19.709  0.00  0.00    +0.000 A 
ATOM     25  C   UNL     1       2.740   4.368  21.045  0.00  0.00    +0.000 A 
ATOM     26  C   UNL     1       2.179   3.391  21.868  0.00  0.00    +0.000 A 
ATOM     27  C   UNL     1       1.232   2.507  21.352  0.00  0.00    +0.000 A 
ATOM     28  C   UNL     1       0.850   2.589  20.016  0.00  0.00    +0.000 A 
ATOM     29  C   UNL     1       1.393   3.576  19.192  0.00  0.00    +0.000 A 
ENDBRANCH   3  24
BRANCH   1  31
ATOM     30  C   UNL     1       6.872   6.494  17.022  0.00  0.00    +0.000 C 
ATOM     31  S   UNL     1       5.339   6.334  16.079  0.00  0.00    +0.000 S 
ENDBRANCH   1  31
TORSDOF 4
ENDMDL
MODEL 6
REMARK VINA RESULT:      -7.8      1.229      1.627
REMARK  Name = 
REMARK  5 active torsions:
REMARK  status: ('A' for Active; 'I' for Inactive)
REMARK    1  A    between atoms: C_1  and  S_2
REMARK    2  A    between atoms: S_2  and  C_3
REMARK    3  A    between atoms: N_5  and  C_6
REMARK    4  A    between atoms: C_14  and  N_15
REMARK    5  A    between atoms: C_19  and  C_21
REMARK                            x       y       z     vdW  Elec       q    Type
REMARK                         _______ _______ _______ _____ _____    ______ ____
ROOT
ATOM      1  C   UNL     1      -2.203  12.510  20.913  0.00  0.00    +0.000 A 
ATOM      2  N   UNL     1      -2.778  12.545  19.713  0.00  0.00    +0.000 NA
ATOM      3  N   UNL     1      -2.245  11.484  19.053  0.00  0.00    +0.000 N 
ATOM      4  C   UNL     1      -1.212  10.888  19.769  0.00  0.00    +0.000 A 
ATOM      5  C   UNL     1      -0.266   9.894  19.441  0.00  0.00    +0.000 A 
ATOM      6  C   UNL     1       0.700   9.498  20.378  0.00  0.00    +0.000 A 
ATOM      7  C   UNL     1       0.686  10.132  21.628  0.00  0.00    +0.000 A 
ATOM      8  C   UNL     1      -0.234  11.142  21.957  0.00  0.00    +0.000 A 
ATOM      9  C   UNL     1      -1.185  11.538  21.001  0.00  0.00    +0.000 A 
ENDROOT
BRANCH   6  10
ATOM     10  N   UNL     1       1.641   8.537  20.069  0.00  0.00    +0.000 N 
ATOM     11  C   UNL     1       1.958   7.395  20.958  0.00  0.00    +0.000 C 
ATOM     12  C   UNL     1       1.857   6.049  20.210  0.00  0.00    +0.000 C 
ATOM     13  N   UNL     1       2.560   6.091  18.918  0.00  0.00    +0.000 N 
ATOM     14  C   UNL     1       3.517   5.124  18.628  0.00  0.00    +0.000 C 
ATOM     15  O   UNL     1       3.754   4.184  19.385  0.00  0.00    +0.000 OA
ATOM     16  C   UNL     1       2.098   7.195  18.064  0.00  0.00    +0.000 C 
ATOM     17  C   UNL     1       2.338   8.543  18.770  0.00  0.00    +0.000 C 
BRANCH  14  18
ATOM     18  C   UNL     1       4.282   5.174  17.362  0.00  0.00    +0.000 A 
ATOM     19  C   UNL     1       4.478   4.075  16.524  0.00  0.00    +0.000 A 
ATOM     20  C   UNL     1       5.299   4.202  15.405  0.00  0.00    +0.000 A 
ATOM     21  C   UNL     1       5.835   5.448  15.120  0.00  0.00    +0.000 A 
ATOM     22  N   UNL     1       5.590   6.552  15.857  0.00  0.00    +0.000 NA
ATOM     23  C   UNL     1       4.811   6.393  16.958  0.00  0.00    +0.000 A 
ENDBRANCH  14  18
ENDBRANCH   6  10
BRANCH   3  24
ATOM     24  C   UNL     1      -2.769  11.120  17.782  0.00  0.00    +0.000 A 
ATOM     25  C   UNL     1      -2.026  10.260  16.961  0.00  0.00    +0.000 A 
ATOM     26  C   UNL     1      -2.526   9.877  15.716  0.00  0.00    +0.000 A 
ATOM     27  C   UNL     1      -3.752  10.374  15.277  0.00  0.00    +0.000 A 
ATOM     28  C   UNL     1      -4.476  11.260  16.072  0.00  0.00    +0.000 A 
ATOM     29  C   UNL     1      -3.989  11.632  17.325  0.00  0.00    +0.000 A 
ENDBRANCH   3  24
BRANCH   1  31
ATOM     30  C   UNL     1      -2.367  15.211  21.412  0.00  0.00    +0.000 C 
ATOM     31  S   UNL     1      -2.664  13.610  22.194  0.00  0.00    +0.000 S 
ENDBRANCH   1  31
TORSDOF 4
ENDMDL
MODEL 7
REMARK VINA RESULT:      -7.8      1.157      1.359
REMARK  Name = 
REMARK  5 active torsions:
REMARK  status: ('A' for Active; 'I' for Inactive)
REMARK    1  A    between atoms: C_1  and  S_2
REMARK    2  A    between atoms: S_2  and  C_3
REMARK    3  A    between atoms: N_5  and  C_6
REMARK    4  A    between atoms: C_14  and  N_15
REMARK    5  A    between atoms: C_19  and  C_21
REMARK                            x       y       z     vdW  Elec       q    Type
REMARK                         _______ _______ _______ _____ _____    ______ ____
ROOT
ATOM      1  C   UNL     1      -2.119  12.427  20.886  0.00  0.00    +0.000 A 
ATOM      2  N   UNL     1      -2.673  12.454  19.676  0.00  0.00    +0.000 NA
ATOM      3  N   UNL     1      -2.150  11.372  19.043  0.00  0.00    +0.000 N 
ATOM      4  C   UNL     1      -1.141  10.767  19.787  0.00  0.00    +0.000 A 
ATOM      5  C   UNL     1      -0.211   9.749  19.491  0.00  0.00    +0.000 A 
ATOM      6  C   UNL     1       0.731   9.350  20.451  0.00  0.00    +0.000 A 
ATOM      7  C   UNL     1       0.708  10.004  21.690  0.00  0.00    +0.000 A 
ATOM      8  C   UNL     1      -0.197  11.037  21.987  0.00  0.00    +0.000 A 
ATOM      9  C   UNL     1      -1.123  11.437  21.008  0.00  0.00    +0.000 A 
ENDROOT
BRANCH   6  10
ATOM     10  N   UNL     1       1.658   8.364  20.174  0.00  0.00    +0.000 N 
ATOM     11  C   UNL     1       1.839   7.160  21.016  0.00  0.00    +0.000 C 
ATOM     12  C   UNL     1       1.755   5.865  20.180  0.00  0.00    +0.000 C 
ATOM     13  N   UNL     1       2.583   5.949  18.966  0.00  0.00    +0.000 N 
ATOM     14  C   UNL     1       3.523   4.957  18.710  0.00  0.00    +0.000 C 
ATOM     15  O   UNL     1       3.647   3.964  19.426  0.00  0.00    +0.000 OA
ATOM     16  C   UNL     1       2.253   7.121  18.143  0.00  0.00    +0.000 C 
ATOM     17  C   UNL     1       2.478   8.413  18.951  0.00  0.00    +0.000 C 
BRANCH  14  18
ATOM     18  C   UNL     1       4.410   5.043  17.528  0.00  0.00    +0.000 A 
ATOM     19  C   UNL     1       5.368   6.042  17.340  0.00  0.00    +0.000 A 
ATOM     20  C   UNL     1       6.083   6.093  16.146  0.00  0.00    +0.000 A 
ATOM     21  C   UNL     1       5.870   5.094  15.208  0.00  0.00    +0.000 A 
ATOM     22  N   UNL     1       5.021   4.062  15.396  0.00  0.00    +0.000 NA
ATOM     23  C   UNL     1       4.315   4.055  16.557  0.00  0.00    +0.000 A 
ENDBRANCH  14  18
ENDBRANCH   6  10
BRANCH   3  24
ATOM     24  C   UNL     1      -2.659  10.998  17.769  0.00  0.00    +0.000 A 
ATOM     25  C   UNL     1      -3.871  11.551  17.332  0.00  0.00    +0.000 A 
ATOM     26  C   UNL     1      -4.382  11.211  16.079  0.00  0.00    +0.000 A 
ATOM     27  C   UNL     1      -3.702  10.297  15.275  0.00  0.00    +0.000 A 
ATOM     28  C   UNL     1      -2.519   9.715  15.721  0.00  0.00    +0.000 A 
ATOM     29  C   UNL     1      -1.992  10.065  16.965  0.00  0.00    +0.000 A 
ENDBRANCH   3  24
BRANCH   1  31
ATOM     30  C   UNL     1      -3.270  12.444  23.386  0.00  0.00    +0.000 C 
ATOM     31  S   UNL     1      -2.580  13.557  22.141  0.00  0.00    +0.000 S 
ENDBRANCH   1  31
TORSDOF 4
ENDMDL
MODEL 8
REMARK VINA RESULT:      -7.7      3.340      9.202
REMARK  Name = 
REMARK  5 active torsions:
REMARK  status: ('A' for Active; 'I' for Inactive)
REMARK    1  A    between atoms: C_1  and  S_2
REMARK    2  A    between atoms: S_2  and  C_3
REMARK    3  A    between atoms: N_5  and  C_6
REMARK    4  A    between atoms: C_14  and  N_15
REMARK    5  A    between atoms: C_19  and  C_21
REMARK                            x       y       z     vdW  Elec       q    Type
REMARK                         _______ _______ _______ _____ _____    ______ ____
ROOT
ATOM      1  C   UNL     1       3.213   3.662  19.987  0.00  0.00    +0.000 A 
ATOM      2  N   UNL     1       3.815   3.494  18.812  0.00  0.00    +0.000 NA
ATOM      3  N   UNL     1       3.818   4.734  18.256  0.00  0.00    +0.000 N 
ATOM      4  C   UNL     1       3.068   5.641  18.998  0.00  0.00    +0.000 A 
ATOM      5  C   UNL     1       2.644   6.963  18.750  0.00  0.00    +0.000 A 
ATOM      6  C   UNL     1       1.855   7.643  19.690  0.00  0.00    +0.000 A 
ATOM      7  C   UNL     1       1.510   6.954  20.861  0.00  0.00    +0.000 A 
ATOM      8  C   UNL     1       1.906   5.629  21.108  0.00  0.00    +0.000 A 
ATOM      9  C   UNL     1       2.681   4.957  20.147  0.00  0.00    +0.000 A 
ENDROOT
BRANCH   6  10
ATOM     10  N   UNL     1       1.419   8.932  19.458  0.00  0.00    +0.000 N 
ATOM     11  C   UNL     1       1.197   9.483  18.101  0.00  0.00    +0.000 C 
ATOM     12  C   UNL     1      -0.215  10.089  17.960  0.00  0.00    +0.000 C 
ATOM     13  N   UNL     1      -0.542  10.973  19.090  0.00  0.00    +0.000 N 
ATOM     14  C   UNL     1      -0.965  12.274  18.840  0.00  0.00    +0.000 C 
ATOM     15  O   UNL     1      -1.146  12.702  17.700  0.00  0.00    +0.000 OA
ATOM     16  C   UNL     1      -0.394  10.301  20.389  0.00  0.00    +0.000 C 
ATOM     17  C   UNL     1       1.060   9.826  20.573  0.00  0.00    +0.000 C 
BRANCH  14  18
ATOM     18  C   UNL     1      -1.245  13.205  19.956  0.00  0.00    +0.000 A 
ATOM     19  C   UNL     1      -0.289  14.037  20.540  0.00  0.00    +0.000 A 
ATOM     20  C   UNL     1      -0.630  14.803  21.652  0.00  0.00    +0.000 A 
ATOM     21  C   UNL     1      -1.942  14.769  22.097  0.00  0.00    +0.000 A 
ATOM     22  N   UNL     1      -2.915  14.049  21.499  0.00  0.00    +0.000 NA
ATOM     23  C   UNL     1      -2.546  13.288  20.435  0.00  0.00    +0.000 A 
ENDBRANCH  14  18
ENDBRANCH   6  10
BRANCH   3  24
ATOM     24  C   UNL     1       4.542   4.956  17.053  0.00  0.00    +0.000 A 
ATOM     25  C   UNL     1       5.098   3.857  16.381  0.00  0.00    +0.000 A 
ATOM     26  C   UNL     1       5.800   4.048  15.191  0.00  0.00    +0.000 A 
ATOM     27  C   UNL     1       5.974   5.336  14.685  0.00  0.00    +0.000 A 
ATOM     28  C   UNL     1       5.458   6.434  15.368  0.00  0.00    +0.000 A 
ATOM     29  C   UNL     1       4.740   6.248  16.550  0.00  0.00    +0.000 A 
ENDBRANCH   3  24
BRANCH   1  31
ATOM     30  C   UNL     1       1.346   2.498  21.641  0.00  0.00    +0.000 C 
ATOM     31  S   UNL     1       3.081   2.362  21.153  0.00  0.00    +0.000 S 
ENDBRANCH   1  31
TORSDOF 4
ENDMDL
MODEL 9
REMARK VINA RESULT:      -7.7      0.574      1.252
REMARK  Name = 
REMARK  5 active torsions:
REMARK  status: ('A' for Active; 'I' for Inactive)
REMARK    1  A    between atoms: C_1  and  S_2
REMARK    2  A    between atoms: S_2  and  C_3
REMARK    3  A    between atoms: N_5  and  C_6
REMARK    4  A    between atoms: C_14  and  N_15
REMARK    5  A    between atoms: C_19  and  C_21
REMARK                            x       y       z     vdW  Elec       q    Type
REMARK                         _______ _______ _______ _____ _____    ______ ____
ROOT
ATOM      1  C   UNL     1      -1.090  11.576  21.595  0.00  0.00    +0.000 A 
ATOM      2  N   UNL     1      -1.675  11.832  20.427  0.00  0.00    +0.000 NA
ATOM      3  N   UNL     1      -1.337  10.775  19.643  0.00  0.00    +0.000 N 
ATOM      4  C   UNL     1      -0.402   9.947  20.256  0.00  0.00    +0.000 A 
ATOM      5  C   UNL     1       0.359   8.853  19.793  0.00  0.00    +0.000 A 
ATOM      6  C   UNL     1       1.266   8.208  20.648  0.00  0.00    +0.000 A 
ATOM      7  C   UNL     1       1.381   8.699  21.956  0.00  0.00    +0.000 A 
ATOM      8  C   UNL     1       0.646   9.803  22.421  0.00  0.00    +0.000 A 
ATOM      9  C   UNL     1      -0.244  10.448  21.546  0.00  0.00    +0.000 A 
ENDROOT
BRANCH   6  10
ATOM     10  N   UNL     1       2.029   7.145  20.209  0.00  0.00    +0.000 N 
ATOM     11  C   UNL     1       1.701   5.732  20.505  0.00  0.00    +0.000 C 
ATOM     12  C   UNL     1       1.647   4.880  19.219  0.00  0.00    +0.000 C 
ATOM     13  N   UNL     1       2.819   5.117  18.362  0.00  0.00    +0.000 N 
ATOM     14  C   UNL     1       3.588   4.037  17.940  0.00  0.00    +0.000 C 
ATOM     15  O   UNL     1       3.286   2.872  18.198  0.00  0.00    +0.000 OA
ATOM     16  C   UNL     1       2.996   6.540  18.035  0.00  0.00    +0.000 C 
ATOM     17  C   UNL     1       3.190   7.357  19.326  0.00  0.00    +0.000 C 
BRANCH  14  18
ATOM     18  C   UNL     1       4.805   4.248  17.125  0.00  0.00    +0.000 A 
ATOM     19  C   UNL     1       6.070   4.498  17.658  0.00  0.00    +0.000 A 
ATOM     20  C   UNL     1       7.133   4.783  16.805  0.00  0.00    +0.000 A 
ATOM     21  C   UNL     1       6.910   4.733  15.438  0.00  0.00    +0.000 A 
ATOM     22  N   UNL     1       5.723   4.404  14.886  0.00  0.00    +0.000 NA
ATOM     23  C   UNL     1       4.697   4.160  15.742  0.00  0.00    +0.000 A 
ENDBRANCH  14  18
ENDBRANCH   6  10
BRANCH   3  24
ATOM     24  C   UNL     1      -1.938  10.639  18.362  0.00  0.00    +0.000 A 
ATOM     25  C   UNL     1      -1.350   9.780  17.422  0.00  0.00    +0.000 A 
ATOM     26  C   UNL     1      -1.931   9.619  16.164  0.00  0.00    +0.000 A 
ATOM     27  C   UNL     1      -3.080  10.335  15.831  0.00  0.00    +0.000 A 
ATOM     28  C   UNL     1      -3.646  11.218  16.747  0.00  0.00    +0.000 A 
ATOM     29  C   UNL     1      -3.080  11.371  18.013  0.00  0.00    +0.000 A 
ENDBRANCH   3  24
BRANCH   1  31
ATOM     30  C   UNL     1      -3.140  12.714  23.035  0.00  0.00    +0.000 C 
ATOM     31  S   UNL     1      -1.338  12.593  22.998  0.00  0.00    +0.000 S 
ENDBRANCH   1  31
TORSDOF 4
ENDMDL
