MODEL 1
REMARK VINA RESULT:      -6.5      0.000      0.000
REMARK  Name = 
REMARK  6 active torsions:
REMARK  status: ('A' for Active; 'I' for Inactive)
REMARK    1  A    between atoms: C_1  and  C_2
REMARK    2  A    between atoms: C_2  and  N_3
REMARK    3  A    between atoms: N_3  and  C_4
REMARK    4  A    between atoms: N_10  and  C_11
REMARK    5  A    between atoms: N_10  and  C_12
REMARK    6  A    between atoms: C_12  and  C_13
REMARK                            x       y       z     vdW  Elec       q    Type
REMARK                         _______ _______ _______ _____ _____    ______ ____
ROOT
ATOM      1  N   UNL     1       1.614   4.311  19.960  0.00  0.00    +0.000 N 
ATOM      2  C   UNL     1       1.926   5.694  20.315  0.00  0.00    +0.000 C 
ATOM      3  C   UNL     1       2.378   3.793  18.912  0.00  0.00    +0.000 A 
ATOM      4  C   UNL     1       2.209   2.506  18.449  0.00  0.00    +0.000 A 
ATOM      5  C   UNL     1       3.076   2.080  17.473  0.00  0.00    +0.000 A 
ATOM      6  N   UNL     1       4.050   2.843  16.959  0.00  0.00    +0.000 NA
ATOM      7  C   UNL     1       4.113   4.108  17.390  0.00  0.00    +0.000 A 
ATOM      8  N   UNL     1       5.023   4.964  16.816  0.00  0.00    +0.000 N 
ATOM      9  C   UNL     1       4.744   6.382  16.824  0.00  0.00    +0.000 C 
ATOM     10  N   UNL     1       3.297   4.591  18.341  0.00  0.00    +0.000 NA
ENDROOT
BRANCH   1  12
ATOM     11  C   UNL     1       2.262   2.850  21.879  0.00  0.00    +0.000 C 
ATOM     12  C   UNL     1       1.136   3.437  21.034  0.00  0.00    +0.000 C 
ENDBRANCH   1  12
BRANCH   8  13
ATOM     13  C   UNL     1       6.342   4.473  16.455  0.00  0.00    +0.000 C 
BRANCH  13  14
ATOM     14  C   UNL     1       6.613   4.416  14.964  0.00  0.00    +0.000 A 
ATOM     15  C   UNL     1       5.915   3.610  14.059  0.00  0.00    +0.000 A 
ATOM     16  C   UNL     1       6.198   3.678  12.692  0.00  0.00    +0.000 A 
ATOM     17  C   UNL     1       7.171   4.564  12.266  0.00  0.00    +0.000 A 
ATOM     18  N   UNL     1       7.862   5.368  13.098  0.00  0.00    +0.000 NA
ATOM     19  C   UNL     1       7.563   5.284  14.416  0.00  0.00    +0.000 A 
ENDBRANCH  13  14
ENDBRANCH   8  13
TORSDOF 3
ENDMDL
MODEL 2
REMARK VINA RESULT:      -6.4      1.408      2.207
REMARK  Name = 
REMARK  6 active torsions:
REMARK  status: ('A' for Active; 'I' for Inactive)
REMARK    1  A    between atoms: C_1  and  C_2
REMARK    2  A    between atoms: C_2  and  N_3
REMARK    3  A    between atoms: N_3  and  C_4
REMARK    4  A    between atoms: N_10  and  C_11
REMARK    5  A    between atoms: N_10  and  C_12
REMARK    6  A    between atoms: C_12  and  C_13
REMARK                            x       y       z     vdW  Elec       q    Type
REMARK                         _______ _______ _______ _____ _____    ______ ____
ROOT
ATOM      1  N   UNL     1       3.189   2.981  19.818  0.00  0.00    +0.000 N 
ATOM      2  C   UNL     1       4.134   1.896  19.558  0.00  0.00    +0.000 C 
ATOM      3  C   UNL     1       3.483   4.177  19.162  0.00  0.00    +0.000 A 
ATOM      4  C   UNL     1       2.697   5.301  19.302  0.00  0.00    +0.000 A 
ATOM      5  C   UNL     1       3.037   6.393  18.541  0.00  0.00    +0.000 A 
ATOM      6  N   UNL     1       4.077   6.416  17.696  0.00  0.00    +0.000 NA
ATOM      7  C   UNL     1       4.850   5.325  17.665  0.00  0.00    +0.000 A 
ATOM      8  N   UNL     1       5.990   5.336  16.897  0.00  0.00    +0.000 N 
ATOM      9  C   UNL     1       7.087   4.471  17.269  0.00  0.00    +0.000 C 
ATOM     10  N   UNL     1       4.577   4.222  18.382  0.00  0.00    +0.000 NA
ENDROOT
BRANCH   1  12
ATOM     11  C   UNL     1       1.454   2.614  21.576  0.00  0.00    +0.000 C 
ATOM     12  C   UNL     1       1.800   2.605  20.092  0.00  0.00    +0.000 C 
ENDBRANCH   1  12
BRANCH   8  13
ATOM     13  C   UNL     1       5.979   6.002  15.605  0.00  0.00    +0.000 C 
BRANCH  13  14
ATOM     14  C   UNL     1       6.210   5.089  14.417  0.00  0.00    +0.000 A 
ATOM     15  C   UNL     1       5.304   4.121  13.971  0.00  0.00    +0.000 A 
ATOM     16  C   UNL     1       5.581   3.373  12.824  0.00  0.00    +0.000 A 
ATOM     17  C   UNL     1       6.761   3.623  12.145  0.00  0.00    +0.000 A 
ATOM     18  N   UNL     1       7.658   4.552  12.530  0.00  0.00    +0.000 NA
ATOM     19  C   UNL     1       7.360   5.265  13.642  0.00  0.00    +0.000 A 
ENDBRANCH  13  14
ENDBRANCH   8  13
TORSDOF 3
ENDMDL
MODEL 3
REMARK VINA RESULT:      -6.3      2.480      3.351
REMARK  Name = 
REMARK  6 active torsions:
REMARK  status: ('A' for Active; 'I' for Inactive)
REMARK    1  A    between atoms: C_1  and  C_2
REMARK    2  A    between atoms: C_2  and  N_3
REMARK    3  A    between atoms: N_3  and  C_4
REMARK    4  A    between atoms: N_10  and  C_11
REMARK    5  A    between atoms: N_10  and  C_12
REMARK    6  A    between atoms: C_12  and  C_13
REMARK                            x       y       z     vdW  Elec       q    Type
REMARK                         _______ _______ _______ _____ _____    ______ ____
ROOT
ATOM      1  N   UNL     1       1.241   4.126  20.262  0.00  0.00    +0.000 N 
ATOM      2  C   UNL     1       1.337   5.436  20.905  0.00  0.00    +0.000 C 
ATOM      3  C   UNL     1       1.925   4.023  19.049  0.00  0.00    +0.000 A 
ATOM      4  C   UNL     1       1.934   2.859  18.310  0.00  0.00    +0.000 A 
ATOM      5  C   UNL     1       2.711   2.850  17.178  0.00  0.00    +0.000 A 
ATOM      6  N   UNL     1       3.439   3.898  16.767  0.00  0.00    +0.000 NA
ATOM      7  C   UNL     1       3.326   5.024  17.480  0.00  0.00    +0.000 A 
ATOM      8  N   UNL     1       3.964   6.159  17.040  0.00  0.00    +0.000 N 
ATOM      9  C   UNL     1       3.429   7.448  17.416  0.00  0.00    +0.000 C 
ATOM     10  N   UNL     1       2.584   5.104  18.596  0.00  0.00    +0.000 NA
ENDROOT
BRANCH   1  12
ATOM     11  C   UNL     1       2.400   2.566  21.830  0.00  0.00    +0.000 C 
ATOM     12  C   UNL     1       1.100   2.961  21.138  0.00  0.00    +0.000 C 
ENDBRANCH   1  12
BRANCH   8  13
ATOM     13  C   UNL     1       5.284   6.054  16.440  0.00  0.00    +0.000 C 
BRANCH  13  14
ATOM     14  C   UNL     1       6.438   6.178  17.415  0.00  0.00    +0.000 A 
ATOM     15  C   UNL     1       7.254   7.307  17.541  0.00  0.00    +0.000 A 
ATOM     16  C   UNL     1       8.253   7.349  18.517  0.00  0.00    +0.000 A 
ATOM     17  C   UNL     1       8.401   6.256  19.353  0.00  0.00    +0.000 A 
ATOM     18  N   UNL     1       7.632   5.153  19.278  0.00  0.00    +0.000 NA
ATOM     19  C   UNL     1       6.670   5.143  18.326  0.00  0.00    +0.000 A 
ENDBRANCH  13  14
ENDBRANCH   8  13
TORSDOF 3
ENDMDL
MODEL 4
REMARK VINA RESULT:      -6.2      1.811      6.430
REMARK  Name = 
REMARK  6 active torsions:
REMARK  status: ('A' for Active; 'I' for Inactive)
REMARK    1  A    between atoms: C_1  and  C_2
REMARK    2  A    between atoms: C_2  and  N_3
REMARK    3  A    between atoms: N_3  and  C_4
REMARK    4  A    between atoms: N_10  and  C_11
REMARK    5  A    between atoms: N_10  and  C_12
REMARK    6  A    between atoms: C_12  and  C_13
REMARK                            x       y       z     vdW  Elec       q    Type
REMARK                         _______ _______ _______ _____ _____    ______ ____
ROOT
ATOM      1  N   UNL     1       6.186   5.575  15.733  0.00  0.00    +0.000 N 
ATOM      2  C   UNL     1       5.244   6.261  14.851  0.00  0.00    +0.000 C 
ATOM      3  C   UNL     1       5.817   5.562  17.080  0.00  0.00    +0.000 A 
ATOM      4  C   UNL     1       6.595   4.963  18.047  0.00  0.00    +0.000 A 
ATOM      5  C   UNL     1       6.088   4.938  19.323  0.00  0.00    +0.000 A 
ATOM      6  N   UNL     1       4.903   5.465  19.662  0.00  0.00    +0.000 NA
ATOM      7  C   UNL     1       4.232   6.105  18.698  0.00  0.00    +0.000 A 
ATOM      8  N   UNL     1       3.065   6.757  19.018  0.00  0.00    +0.000 N 
ATOM      9  C   UNL     1       2.649   7.877  18.205  0.00  0.00    +0.000 C 
ATOM     10  N   UNL     1       4.668   6.168  17.430  0.00  0.00    +0.000 NA
ENDROOT
BRANCH   1  12
ATOM     11  C   UNL     1       6.298   3.860  13.922  0.00  0.00    +0.000 C 
ATOM     12  C   UNL     1       6.949   4.463  15.161  0.00  0.00    +0.000 C 
ENDBRANCH   1  12
BRANCH   8  13
ATOM     13  C   UNL     1       2.152   6.164  19.981  0.00  0.00    +0.000 C 
BRANCH  13  14
ATOM     14  C   UNL     1       1.770   4.726  19.694  0.00  0.00    +0.000 A 
ATOM     15  C   UNL     1       1.571   3.745  20.671  0.00  0.00    +0.000 A 
ATOM     16  C   UNL     1       1.155   2.462  20.307  0.00  0.00    +0.000 A 
ATOM     17  C   UNL     1       0.940   2.196  18.966  0.00  0.00    +0.000 A 
ATOM     18  N   UNL     1       1.107   3.110  17.991  0.00  0.00    +0.000 NA
ATOM     19  C   UNL     1       1.505   4.346  18.374  0.00  0.00    +0.000 A 
ENDBRANCH  13  14
ENDBRANCH   8  13
TORSDOF 3
ENDMDL
MODEL 5
REMARK VINA RESULT:      -6.2      0.714      1.135
REMARK  Name = 
REMARK  6 active torsions:
REMARK  status: ('A' for Active; 'I' for Inactive)
REMARK    1  A    between atoms: C_1  and  C_2
REMARK    2  A    between atoms: C_2  and  N_3
REMARK    3  A    between atoms: N_3  and  C_4
REMARK    4  A    between atoms: N_10  and  C_11
REMARK    5  A    between atoms: N_10  and  C_12
REMARK    6  A    between atoms: C_12  and  C_13
REMARK                            x       y       z     vdW  Elec       q    Type
REMARK                         _______ _______ _______ _____ _____    ______ ____
ROOT
ATOM      1  N   UNL     1       1.640   4.554  19.759  0.00  0.00    +0.000 N 
ATOM      2  C   UNL     1       2.018   5.925  20.100  0.00  0.00    +0.000 C 
ATOM      3  C   UNL     1       2.368   3.995  18.707  0.00  0.00    +0.000 A 
ATOM      4  C   UNL     1       2.136   2.713  18.256  0.00  0.00    +0.000 A 
ATOM      5  C   UNL     1       2.971   2.241  17.273  0.00  0.00    +0.000 A 
ATOM      6  N   UNL     1       3.973   2.957  16.742  0.00  0.00    +0.000 NA
ATOM      7  C   UNL     1       4.097   4.221  17.162  0.00  0.00    +0.000 A 
ATOM      8  N   UNL     1       5.037   5.031  16.571  0.00  0.00    +0.000 N 
ATOM      9  C   UNL     1       4.822   6.460  16.571  0.00  0.00    +0.000 C 
ATOM     10  N   UNL     1       3.315   4.747  18.118  0.00  0.00    +0.000 NA
ENDROOT
BRANCH   1  12
ATOM     11  C   UNL     1       2.236   3.207  21.776  0.00  0.00    +0.000 C 
ATOM     12  C   UNL     1       1.138   3.711  20.846  0.00  0.00    +0.000 C 
ENDBRANCH   1  12
BRANCH   8  13
ATOM     13  C   UNL     1       6.328   4.478  16.198  0.00  0.00    +0.000 C 
BRANCH  13  14
ATOM     14  C   UNL     1       6.624   4.499  14.711  0.00  0.00    +0.000 A 
ATOM     15  C   UNL     1       7.598   5.298  14.105  0.00  0.00    +0.000 A 
ATOM     16  C   UNL     1       7.839   5.196  12.733  0.00  0.00    +0.000 A 
ATOM     17  C   UNL     1       7.099   4.283  12.002  0.00  0.00    +0.000 A 
ATOM     18  N   UNL     1       6.158   3.485  12.542  0.00  0.00    +0.000 NA
ATOM     19  C   UNL     1       5.951   3.602  13.875  0.00  0.00    +0.000 A 
ENDBRANCH  13  14
ENDBRANCH   8  13
TORSDOF 3
ENDMDL
MODEL 6
REMARK VINA RESULT:      -6.1      1.750      6.477
REMARK  Name = 
REMARK  6 active torsions:
REMARK  status: ('A' for Active; 'I' for Inactive)
REMARK    1  A    between atoms: C_1  and  C_2
REMARK    2  A    between atoms: C_2  and  N_3
REMARK    3  A    between atoms: N_3  and  C_4
REMARK    4  A    between atoms: N_10  and  C_11
REMARK    5  A    between atoms: N_10  and  C_12
REMARK    6  A    between atoms: C_12  and  C_13
REMARK                            x       y       z     vdW  Elec       q    Type
REMARK                         _______ _______ _______ _____ _____    ______ ____
ROOT
ATOM      1  N   UNL     1       6.125   5.527  15.733  0.00  0.00    +0.000 N 
ATOM      2  C   UNL     1       5.141   6.153  14.851  0.00  0.00    +0.000 C 
ATOM      3  C   UNL     1       5.786   5.546  17.087  0.00  0.00    +0.000 A 
ATOM      4  C   UNL     1       6.604   5.003  18.054  0.00  0.00    +0.000 A 
ATOM      5  C   UNL     1       6.126   5.003  19.342  0.00  0.00    +0.000 A 
ATOM      6  N   UNL     1       4.932   5.502  19.691  0.00  0.00    +0.000 NA
ATOM      7  C   UNL     1       4.219   6.088  18.724  0.00  0.00    +0.000 A 
ATOM      8  N   UNL     1       3.038   6.711  19.049  0.00  0.00    +0.000 N 
ATOM      9  C   UNL     1       2.567   7.790  18.211  0.00  0.00    +0.000 C 
ATOM     10  N   UNL     1       4.626   6.124  17.444  0.00  0.00    +0.000 NA
ENDROOT
BRANCH   1  12
ATOM     11  C   UNL     1       6.350   3.880  13.871  0.00  0.00    +0.000 C 
ATOM     12  C   UNL     1       6.913   4.424  15.179  0.00  0.00    +0.000 C 
ENDBRANCH   1  12
BRANCH   8  13
ATOM     13  C   UNL     1       2.167   6.120  20.051  0.00  0.00    +0.000 C 
BRANCH  13  14
ATOM     14  C   UNL     1       1.802   4.669  19.801  0.00  0.00    +0.000 A 
ATOM     15  C   UNL     1       1.485   4.134  18.549  0.00  0.00    +0.000 A 
ATOM     16  C   UNL     1       1.226   2.767  18.412  0.00  0.00    +0.000 A 
ATOM     17  C   UNL     1       1.302   1.968  19.539  0.00  0.00    +0.000 A 
ATOM     18  N   UNL     1       1.614   2.436  20.763  0.00  0.00    +0.000 NA
ATOM     19  C   UNL     1       1.865   3.763  20.864  0.00  0.00    +0.000 A 
ENDBRANCH  13  14
ENDBRANCH   8  13
TORSDOF 3
ENDMDL
MODEL 7
REMARK VINA RESULT:      -6.0      1.623      2.513
REMARK  Name = 
REMARK  6 active torsions:
REMARK  status: ('A' for Active; 'I' for Inactive)
REMARK    1  A    between atoms: C_1  and  C_2
REMARK    2  A    between atoms: C_2  and  N_3
REMARK    3  A    between atoms: N_3  and  C_4
REMARK    4  A    between atoms: N_10  and  C_11
REMARK    5  A    between atoms: N_10  and  C_12
REMARK    6  A    between atoms: C_12  and  C_13
REMARK                            x       y       z     vdW  Elec       q    Type
REMARK                         _______ _______ _______ _____ _____    ______ ____
ROOT
ATOM      1  N   UNL     1       3.262   2.987  19.922  0.00  0.00    +0.000 N 
ATOM      2  C   UNL     1       4.212   1.909  19.650  0.00  0.00    +0.000 C 
ATOM      3  C   UNL     1       3.582   4.208  19.325  0.00  0.00    +0.000 A 
ATOM      4  C   UNL     1       2.795   5.329  19.483  0.00  0.00    +0.000 A 
ATOM      5  C   UNL     1       3.164   6.449  18.779  0.00  0.00    +0.000 A 
ATOM      6  N   UNL     1       4.231   6.500  17.970  0.00  0.00    +0.000 NA
ATOM      7  C   UNL     1       5.002   5.408  17.921  0.00  0.00    +0.000 A 
ATOM      8  N   UNL     1       6.166   5.445  17.193  0.00  0.00    +0.000 N 
ATOM      9  C   UNL     1       7.248   4.561  17.565  0.00  0.00    +0.000 C 
ATOM     10  N   UNL     1       4.701   4.279  18.583  0.00  0.00    +0.000 NA
ENDROOT
BRANCH   1  12
ATOM     11  C   UNL     1       1.444   2.643  21.599  0.00  0.00    +0.000 C 
ATOM     12  C   UNL     1       1.863   2.606  20.134  0.00  0.00    +0.000 C 
ENDBRANCH   1  12
BRANCH   8  13
ATOM     13  C   UNL     1       6.201   6.162  15.929  0.00  0.00    +0.000 C 
BRANCH  13  14
ATOM     14  C   UNL     1       6.266   5.280  14.698  0.00  0.00    +0.000 A 
ATOM     15  C   UNL     1       7.371   5.184  13.847  0.00  0.00    +0.000 A 
ATOM     16  C   UNL     1       7.357   4.290  12.772  0.00  0.00    +0.000 A 
ATOM     17  C   UNL     1       6.232   3.506  12.585  0.00  0.00    +0.000 A 
ATOM     18  N   UNL     1       5.149   3.555  13.384  0.00  0.00    +0.000 NA
ATOM     19  C   UNL     1       5.194   4.426  14.420  0.00  0.00    +0.000 A 
ENDBRANCH  13  14
ENDBRANCH   8  13
TORSDOF 3
ENDMDL
MODEL 8
REMARK VINA RESULT:      -5.8      2.497      3.265
REMARK  Name = 
REMARK  6 active torsions:
REMARK  status: ('A' for Active; 'I' for Inactive)
REMARK    1  A    between atoms: C_1  and  C_2
REMARK    2  A    between atoms: C_2  and  N_3
REMARK    3  A    between atoms: N_3  and  C_4
REMARK    4  A    between atoms: N_10  and  C_11
REMARK    5  A    between atoms: N_10  and  C_12
REMARK    6  A    between atoms: C_12  and  C_13
REMARK                            x       y       z     vdW  Elec       q    Type
REMARK                         _______ _______ _______ _____ _____    ______ ____
ROOT
ATOM      1  N   UNL     1       1.244   4.075  20.251  0.00  0.00    +0.000 N 
ATOM      2  C   UNL     1       1.287   5.393  20.882  0.00  0.00    +0.000 C 
ATOM      3  C   UNL     1       1.951   3.981  19.051  0.00  0.00    +0.000 A 
ATOM      4  C   UNL     1       2.008   2.811  18.325  0.00  0.00    +0.000 A 
ATOM      5  C   UNL     1       2.805   2.814  17.206  0.00  0.00    +0.000 A 
ATOM      6  N   UNL     1       3.506   3.881  16.796  0.00  0.00    +0.000 NA
ATOM      7  C   UNL     1       3.345   5.010  17.495  0.00  0.00    +0.000 A 
ATOM      8  N   UNL     1       3.955   6.160  17.053  0.00  0.00    +0.000 N 
ATOM      9  C   UNL     1       3.373   7.435  17.406  0.00  0.00    +0.000 C 
ATOM     10  N   UNL     1       2.582   5.078  18.598  0.00  0.00    +0.000 NA
ENDROOT
BRANCH   1  12
ATOM     11  C   UNL     1       2.433   2.547  21.828  0.00  0.00    +0.000 C 
ATOM     12  C   UNL     1       1.125   2.915  21.138  0.00  0.00    +0.000 C 
ENDBRANCH   1  12
BRANCH   8  13
ATOM     13  C   UNL     1       5.287   6.091  16.476  0.00  0.00    +0.000 C 
BRANCH  13  14
ATOM     14  C   UNL     1       6.405   6.520  17.405  0.00  0.00    +0.000 A 
ATOM     15  C   UNL     1       6.959   5.717  18.407  0.00  0.00    +0.000 A 
ATOM     16  C   UNL     1       8.034   6.182  19.169  0.00  0.00    +0.000 A 
ATOM     17  C   UNL     1       8.534   7.444  18.899  0.00  0.00    +0.000 A 
ATOM     18  N   UNL     1       8.041   8.249  17.938  0.00  0.00    +0.000 NA
ATOM     19  C   UNL     1       7.003   7.769  17.212  0.00  0.00    +0.000 A 
ENDBRANCH  13  14
ENDBRANCH   8  13
TORSDOF 3
ENDMDL
MODEL 9
REMARK VINA RESULT:      -5.8      8.731     10.929
REMARK  Name = 
REMARK  6 active torsions:
REMARK  status: ('A' for Active; 'I' for Inactive)
REMARK    1  A    between atoms: C_1  and  C_2
REMARK    2  A    between atoms: C_2  and  N_3
REMARK    3  A    between atoms: N_3  and  C_4
REMARK    4  A    between atoms: N_10  and  C_11
REMARK    5  A    between atoms: N_10  and  C_12
REMARK    6  A    between atoms: C_12  and  C_13
REMARK                            x       y       z     vdW  Elec       q    Type
REMARK                         _______ _______ _______ _____ _____    ______ ____
ROOT
ATOM      1  N   UNL     1      -5.407  11.711  18.494  0.00  0.00    +0.000 N 
ATOM      2  C   UNL     1      -5.480  12.860  19.395  0.00  0.00    +0.000 C 
ATOM      3  C   UNL     1      -4.110  11.300  18.180  0.00  0.00    +0.000 A 
ATOM      4  C   UNL     1      -3.862  10.235  17.341  0.00  0.00    +0.000 A 
ATOM      5  C   UNL     1      -2.549   9.870  17.175  0.00  0.00    +0.000 A 
ATOM      6  N   UNL     1      -1.523  10.493  17.772  0.00  0.00    +0.000 NA
ATOM      7  C   UNL     1      -1.820  11.569  18.508  0.00  0.00    +0.000 A 
ATOM      8  N   UNL     1      -0.796  12.307  19.053  0.00  0.00    +0.000 N 
ATOM      9  C   UNL     1      -1.022  13.707  19.333  0.00  0.00    +0.000 C 
ATOM     10  N   UNL     1      -3.081  11.982  18.713  0.00  0.00    +0.000 NA
ENDROOT
BRANCH   1  12
ATOM     11  C   UNL     1      -7.153  10.663  19.940  0.00  0.00    +0.000 C 
ATOM     12  C   UNL     1      -6.499  10.737  18.565  0.00  0.00    +0.000 C 
ENDBRANCH   1  12
BRANCH   8  13
ATOM     13  C   UNL     1       0.380  11.631  19.572  0.00  0.00    +0.000 C 
BRANCH  13  14
ATOM     14  C   UNL     1       0.139  10.800  20.817  0.00  0.00    +0.000 A 
ATOM     15  C   UNL     1       0.362   9.423  20.909  0.00  0.00    +0.000 A 
ATOM     16  C   UNL     1       0.171   8.758  22.123  0.00  0.00    +0.000 A 
ATOM     17  C   UNL     1      -0.231   9.498  23.221  0.00  0.00    +0.000 A 
ATOM     18  N   UNL     1      -0.446  10.827  23.184  0.00  0.00    +0.000 NA
ATOM     19  C   UNL     1      -0.248  11.445  21.996  0.00  0.00    +0.000 A 
ENDBRANCH  13  14
ENDBRANCH   8  13
TORSDOF 3
ENDMDL
