MODEL 1
REMARK VINA RESULT:      -8.5      0.000      0.000
REMARK  Name = 
REMARK  8 active torsions:
REMARK  status: ('A' for Active; 'I' for Inactive)
REMARK    1  A    between atoms: C_2  and  O_3
REMARK    2  A    between atoms: C_2  and  C_4
REMARK    3  A    between atoms: N_8  and  C_9
REMARK    4  A    between atoms: C_9  and  C_10
REMARK    5  A    between atoms: C_10  and  C_11
REMARK    6  A    between atoms: C_12  and  C_13
REMARK    7  A    between atoms: C_12  and  C_19
REMARK    8  A    between atoms: C_24  and  C_25
REMARK                            x       y       z     vdW  Elec       q    Type
REMARK                         _______ _______ _______ _____ _____    ______ ____
ROOT
ATOM      1  C   UNL     1       3.938   6.326  17.107  0.00  0.00    +0.000 C 
ATOM      2  C   UNL     1       4.279   5.046  16.826  0.00  0.00    +0.000 C 
ENDROOT
BRANCH   2   3
ATOM      3  C   UNL     1       3.738   3.927  17.629  0.00  0.00    +0.000 A 
ATOM      4  C   UNL     1       2.476   3.397  17.336  0.00  0.00    +0.000 A 
ATOM      5  C   UNL     1       1.938   2.381  18.131  0.00  0.00    +0.000 A 
ATOM      6  C   UNL     1       2.649   1.897  19.227  0.00  0.00    +0.000 A 
ATOM      7  C   UNL     1       3.910   2.409  19.519  0.00  0.00    +0.000 A 
ATOM      8  C   UNL     1       4.458   3.401  18.708  0.00  0.00    +0.000 A 
ENDBRANCH   2   3
BRANCH   2   9
ATOM      9  C   UNL     1       5.216   4.832  15.685  0.00  0.00    +0.000 A 
ATOM     10  C   UNL     1       4.674   4.194  14.549  0.00  0.00    +0.000 A 
ATOM     11  C   UNL     1       5.471   3.877  13.452  0.00  0.00    +0.000 A 
ATOM     12  C   UNL     1       6.821   4.202  13.469  0.00  0.00    +0.000 A 
ATOM     13  C   UNL     1       7.368   4.858  14.578  0.00  0.00    +0.000 A 
ATOM     14  C   UNL     1       6.594   5.190  15.713  0.00  0.00    +0.000 A 
BRANCH  14  15
ATOM     15  C   UNL     1       7.267   5.832  16.878  0.00  0.00    +0.000 A 
ATOM     16  C   UNL     1       7.547   7.208  16.923  0.00  0.00    +0.000 A 
ATOM     17  C   UNL     1       7.998   7.835  18.088  0.00  0.00    +0.000 A 
ATOM     18  C   UNL     1       8.280   7.077  19.216  0.00  0.00    +0.000 A 
ATOM     19  C   UNL     1       8.128   5.695  19.168  0.00  0.00    +0.000 A 
ATOM     20  C   UNL     1       7.615   5.083  18.017  0.00  0.00    +0.000 A 
ENDBRANCH  14  15
ENDBRANCH   2   9
BRANCH   1  21
ATOM     21  C   UNL     1       3.108   6.848  18.258  0.00  0.00    +0.000 C 
BRANCH  21  22
ATOM     22  C   UNL     1       2.443   8.211  17.969  0.00  0.00    +0.000 C 
BRANCH  22  27
ATOM     23  C   UNL     1       0.043  10.388  19.939  0.00  0.00    +0.000 C 
ATOM     24  C   UNL     1      -0.186   9.447  21.125  0.00  0.00    +0.000 C 
ATOM     25  C   UNL     1       1.083   8.692  21.490  0.00  0.00    +0.000 C 
ATOM     26  C   UNL     1       1.681   7.994  20.265  0.00  0.00    +0.000 C 
ATOM     27  N   UNL     1       1.932   8.940  19.160  0.00  0.00    +0.000 NA
ATOM     28  C   UNL     1       0.675   9.636  18.764  0.00  0.00    +0.000 C 
BRANCH  23  30
ATOM     29  O   UNL     1       0.784  12.089  21.484  0.00  0.00    +0.000 OA
ATOM     30  C   UNL     1       0.845  11.608  20.356  0.00  0.00    +0.000 C 
BRANCH  30  31
ATOM     31  O   UNL     1       1.691  12.091  19.419  0.00  0.00    +0.000 OA
ATOM     32  H   UNL     1       1.703  11.535  18.602  0.00  0.00    +0.000 HD
ENDBRANCH  30  31
ENDBRANCH  23  30
ENDBRANCH  22  27
ENDBRANCH  21  22
ENDBRANCH   1  21
TORSDOF 8
ENDMDL
MODEL 2
REMARK VINA RESULT:      -8.2      0.761      1.443
REMARK  Name = 
REMARK  8 active torsions:
REMARK  status: ('A' for Active; 'I' for Inactive)
REMARK    1  A    between atoms: C_2  and  O_3
REMARK    2  A    between atoms: C_2  and  C_4
REMARK    3  A    between atoms: N_8  and  C_9
REMARK    4  A    between atoms: C_9  and  C_10
REMARK    5  A    between atoms: C_10  and  C_11
REMARK    6  A    between atoms: C_12  and  C_13
REMARK    7  A    between atoms: C_12  and  C_19
REMARK    8  A    between atoms: C_24  and  C_25
REMARK                            x       y       z     vdW  Elec       q    Type
REMARK                         _______ _______ _______ _____ _____    ______ ____
ROOT
ATOM      1  C   UNL     1       3.877   6.648  17.248  0.00  0.00    +0.000 C 
ATOM      2  C   UNL     1       4.155   5.343  17.017  0.00  0.00    +0.000 C 
ENDROOT
BRANCH   2   3
ATOM      3  C   UNL     1       3.502   4.279  17.811  0.00  0.00    +0.000 A 
ATOM      4  C   UNL     1       4.238   3.551  18.752  0.00  0.00    +0.000 A 
ATOM      5  C   UNL     1       3.638   2.506  19.459  0.00  0.00    +0.000 A 
ATOM      6  C   UNL     1       2.306   2.173  19.223  0.00  0.00    +0.000 A 
ATOM      7  C   UNL     1       1.562   2.899  18.297  0.00  0.00    +0.000 A 
ATOM      8  C   UNL     1       2.153   3.960  17.614  0.00  0.00    +0.000 A 
ENDBRANCH   2   3
BRANCH   2   9
ATOM      9  C   UNL     1       5.141   5.044  15.937  0.00  0.00    +0.000 A 
ATOM     10  C   UNL     1       4.658   4.290  14.847  0.00  0.00    +0.000 A 
ATOM     11  C   UNL     1       5.505   3.890  13.816  0.00  0.00    +0.000 A 
ATOM     12  C   UNL     1       6.846   4.246  13.855  0.00  0.00    +0.000 A 
ATOM     13  C   UNL     1       7.335   5.016  14.916  0.00  0.00    +0.000 A 
ATOM     14  C   UNL     1       6.510   5.435  15.984  0.00  0.00    +0.000 A 
BRANCH  14  15
ATOM     15  C   UNL     1       7.122   6.199  17.107  0.00  0.00    +0.000 A 
ATOM     16  C   UNL     1       7.476   5.595  18.325  0.00  0.00    +0.000 A 
ATOM     17  C   UNL     1       8.223   6.268  19.297  0.00  0.00    +0.000 A 
ATOM     18  C   UNL     1       8.548   7.605  19.117  0.00  0.00    +0.000 A 
ATOM     19  C   UNL     1       8.109   8.268  17.975  0.00  0.00    +0.000 A 
ATOM     20  C   UNL     1       7.417   7.569  16.978  0.00  0.00    +0.000 A 
ENDBRANCH  14  15
ENDBRANCH   2   9
BRANCH   1  21
ATOM     21  C   UNL     1       3.016   7.248  18.337  0.00  0.00    +0.000 C 
BRANCH  21  22
ATOM     22  C   UNL     1       1.916   8.191  17.802  0.00  0.00    +0.000 C 
BRANCH  22  27
ATOM     23  C   UNL     1      -0.266  11.014  19.087  0.00  0.00    +0.000 C 
ATOM     24  C   UNL     1      -0.445  10.518  20.524  0.00  0.00    +0.000 C 
ATOM     25  C   UNL     1       0.819   9.851  21.045  0.00  0.00    +0.000 C 
ATOM     26  C   UNL     1       1.307   8.765  20.082  0.00  0.00    +0.000 C 
ATOM     27  N   UNL     1       1.513   9.290  18.718  0.00  0.00    +0.000 NA
ATOM     28  C   UNL     1       0.257   9.891  18.187  0.00  0.00    +0.000 C 
BRANCH  23  30
ATOM     29  O   UNL     1       0.432  13.216  19.789  0.00  0.00    +0.000 OA
ATOM     30  C   UNL     1       0.605  12.257  19.042  0.00  0.00    +0.000 C 
BRANCH  30  31
ATOM     31  O   UNL     1       1.636  12.209  18.169  0.00  0.00    +0.000 OA
ATOM     32  H   UNL     1       2.513  12.164  18.625  0.00  0.00    +0.000 HD
ENDBRANCH  30  31
ENDBRANCH  23  30
ENDBRANCH  22  27
ENDBRANCH  21  22
ENDBRANCH   1  21
TORSDOF 8
ENDMDL
MODEL 3
REMARK VINA RESULT:      -7.9      1.804      3.440
REMARK  Name = 
REMARK  8 active torsions:
REMARK  status: ('A' for Active; 'I' for Inactive)
REMARK    1  A    between atoms: C_2  and  O_3
REMARK    2  A    between atoms: C_2  and  C_4
REMARK    3  A    between atoms: N_8  and  C_9
REMARK    4  A    between atoms: C_9  and  C_10
REMARK    5  A    between atoms: C_10  and  C_11
REMARK    6  A    between atoms: C_12  and  C_13
REMARK    7  A    between atoms: C_12  and  C_19
REMARK    8  A    between atoms: C_24  and  C_25
REMARK                            x       y       z     vdW  Elec       q    Type
REMARK                         _______ _______ _______ _____ _____    ______ ____
ROOT
ATOM      1  C   UNL     1       2.944   7.762  17.655  0.00  0.00    +0.000 C 
ATOM      2  C   UNL     1       3.458   6.596  18.117  0.00  0.00    +0.000 C 
ENDROOT
BRANCH   2   3
ATOM      3  C   UNL     1       2.598   5.619  18.821  0.00  0.00    +0.000 A 
ATOM      4  C   UNL     1       1.753   4.773  18.094  0.00  0.00    +0.000 A 
ATOM      5  C   UNL     1       0.897   3.892  18.759  0.00  0.00    +0.000 A 
ATOM      6  C   UNL     1       0.870   3.858  20.152  0.00  0.00    +0.000 A 
ATOM      7  C   UNL     1       1.716   4.687  20.884  0.00  0.00    +0.000 A 
ATOM      8  C   UNL     1       2.590   5.544  20.218  0.00  0.00    +0.000 A 
ENDBRANCH   2   3
BRANCH   2   9
ATOM      9  C   UNL     1       4.912   6.359  17.882  0.00  0.00    +0.000 A 
ATOM     10  C   UNL     1       5.680   7.496  17.556  0.00  0.00    +0.000 A 
ATOM     11  C   UNL     1       7.034   7.386  17.244  0.00  0.00    +0.000 A 
ATOM     12  C   UNL     1       7.642   6.138  17.264  0.00  0.00    +0.000 A 
ATOM     13  C   UNL     1       6.899   5.004  17.612  0.00  0.00    +0.000 A 
ATOM     14  C   UNL     1       5.523   5.073  17.927  0.00  0.00    +0.000 A 
BRANCH  14  15
ATOM     15  C   UNL     1       4.790   3.810  18.224  0.00  0.00    +0.000 A 
ATOM     16  C   UNL     1       4.128   3.070  17.231  0.00  0.00    +0.000 A 
ATOM     17  C   UNL     1       3.610   1.795  17.477  0.00  0.00    +0.000 A 
ATOM     18  C   UNL     1       3.651   1.268  18.760  0.00  0.00    +0.000 A 
ATOM     19  C   UNL     1       4.192   2.026  19.793  0.00  0.00    +0.000 A 
ATOM     20  C   UNL     1       4.766   3.275  19.525  0.00  0.00    +0.000 A 
ENDBRANCH  14  15
ENDBRANCH   2   9
BRANCH   1  21
ATOM     21  C   UNL     1       1.550   8.315  17.843  0.00  0.00    +0.000 C 
BRANCH  21  22
ATOM     22  C   UNL     1       1.531   9.776  18.346  0.00  0.00    +0.000 C 
BRANCH  22  27
ATOM     23  C   UNL     1      -0.760  10.527  21.272  0.00  0.00    +0.000 C 
ATOM     24  C   UNL     1      -0.496   9.260  22.091  0.00  0.00    +0.000 C 
ATOM     25  C   UNL     1       0.956   8.820  21.983  0.00  0.00    +0.000 C 
ATOM     26  C   UNL     1       1.390   8.702  20.519  0.00  0.00    +0.000 C 
ATOM     27  N   UNL     1       1.165   9.956  19.776  0.00  0.00    +0.000 NA
ATOM     28  C   UNL     1      -0.271  10.354  19.832  0.00  0.00    +0.000 C 
BRANCH  23  30
ATOM     29  O   UNL     1      -0.560  12.158  23.042  0.00  0.00    +0.000 OA
ATOM     30  C   UNL     1      -0.169  11.749  21.952  0.00  0.00    +0.000 C 
BRANCH  30  31
ATOM     31  O   UNL     1       0.874  12.320  21.307  0.00  0.00    +0.000 OA
ATOM     32  H   UNL     1       0.586  13.040  20.693  0.00  0.00    +0.000 HD
ENDBRANCH  30  31
ENDBRANCH  23  30
ENDBRANCH  22  27
ENDBRANCH  21  22
ENDBRANCH   1  21
TORSDOF 8
ENDMDL
MODEL 4
REMARK VINA RESULT:      -7.8      1.220      1.990
REMARK  Name = 
REMARK  8 active torsions:
REMARK  status: ('A' for Active; 'I' for Inactive)
REMARK    1  A    between atoms: C_2  and  O_3
REMARK    2  A    between atoms: C_2  and  C_4
REMARK    3  A    between atoms: N_8  and  C_9
REMARK    4  A    between atoms: C_9  and  C_10
REMARK    5  A    between atoms: C_10  and  C_11
REMARK    6  A    between atoms: C_12  and  C_13
REMARK    7  A    between atoms: C_12  and  C_19
REMARK    8  A    between atoms: C_24  and  C_25
REMARK                            x       y       z     vdW  Elec       q    Type
REMARK                         _______ _______ _______ _____ _____    ______ ____
ROOT
ATOM      1  C   UNL     1       3.813   6.758  17.238  0.00  0.00    +0.000 C 
ATOM      2  C   UNL     1       4.105   5.447  17.059  0.00  0.00    +0.000 C 
ENDROOT
BRANCH   2   3
ATOM      3  C   UNL     1       3.473   4.410  17.905  0.00  0.00    +0.000 A 
ATOM      4  C   UNL     1       4.184   3.838  18.965  0.00  0.00    +0.000 A 
ATOM      5  C   UNL     1       3.611   2.816  19.727  0.00  0.00    +0.000 A 
ATOM      6  C   UNL     1       2.333   2.351  19.428  0.00  0.00    +0.000 A 
ATOM      7  C   UNL     1       1.612   2.922  18.382  0.00  0.00    +0.000 A 
ATOM      8  C   UNL     1       2.174   3.961  17.642  0.00  0.00    +0.000 A 
ENDBRANCH   2   3
BRANCH   2   9
ATOM      9  C   UNL     1       5.083   5.114  15.982  0.00  0.00    +0.000 A 
ATOM     10  C   UNL     1       4.583   4.352  14.905  0.00  0.00    +0.000 A 
ATOM     11  C   UNL     1       5.420   3.921  13.878  0.00  0.00    +0.000 A 
ATOM     12  C   UNL     1       6.767   4.253  13.908  0.00  0.00    +0.000 A 
ATOM     13  C   UNL     1       7.273   5.031  14.955  0.00  0.00    +0.000 A 
ATOM     14  C   UNL     1       6.458   5.481  16.019  0.00  0.00    +0.000 A 
BRANCH  14  15
ATOM     15  C   UNL     1       7.087   6.251  17.129  0.00  0.00    +0.000 A 
ATOM     16  C   UNL     1       7.442   5.658  18.352  0.00  0.00    +0.000 A 
ATOM     17  C   UNL     1       8.203   6.333  19.311  0.00  0.00    +0.000 A 
ATOM     18  C   UNL     1       8.543   7.664  19.112  0.00  0.00    +0.000 A 
ATOM     19  C   UNL     1       8.105   8.318  17.965  0.00  0.00    +0.000 A 
ATOM     20  C   UNL     1       7.398   7.615  16.981  0.00  0.00    +0.000 A 
ENDBRANCH  14  15
ENDBRANCH   2   9
BRANCH   1  21
ATOM     21  C   UNL     1       2.957   7.393  18.310  0.00  0.00    +0.000 C 
BRANCH  21  22
ATOM     22  C   UNL     1       2.169   8.626  17.817  0.00  0.00    +0.000 C 
BRANCH  22  27
ATOM     23  C   UNL     1       0.580  10.559  20.666  0.00  0.00    +0.000 C 
ATOM     24  C   UNL     1      -0.547  11.230  19.877  0.00  0.00    +0.000 C 
ATOM     25  C   UNL     1      -1.099  10.307  18.800  0.00  0.00    +0.000 C 
ATOM     26  C   UNL     1       0.023   9.759  17.915  0.00  0.00    +0.000 C 
ATOM     27  N   UNL     1       1.066   9.078  18.706  0.00  0.00    +0.000 NA
ATOM     28  C   UNL     1       1.648  10.002  19.721  0.00  0.00    +0.000 C 
BRANCH  23  30
ATOM     29  O   UNL     1      -0.695   9.789  22.567  0.00  0.00    +0.000 OA
ATOM     30  C   UNL     1       0.031   9.510  21.617  0.00  0.00    +0.000 C 
BRANCH  30  31
ATOM     31  O   UNL     1       0.338   8.230  21.305  0.00  0.00    +0.000 OA
ATOM     32  H   UNL     1       0.176   8.028  20.350  0.00  0.00    +0.000 HD
ENDBRANCH  30  31
ENDBRANCH  23  30
ENDBRANCH  22  27
ENDBRANCH  21  22
ENDBRANCH   1  21
TORSDOF 8
ENDMDL
MODEL 5
REMARK VINA RESULT:      -7.8      3.834      8.835
REMARK  Name = 
REMARK  8 active torsions:
REMARK  status: ('A' for Active; 'I' for Inactive)
REMARK    1  A    between atoms: C_2  and  O_3
REMARK    2  A    between atoms: C_2  and  C_4
REMARK    3  A    between atoms: N_8  and  C_9
REMARK    4  A    between atoms: C_9  and  C_10
REMARK    5  A    between atoms: C_10  and  C_11
REMARK    6  A    between atoms: C_12  and  C_13
REMARK    7  A    between atoms: C_12  and  C_19
REMARK    8  A    between atoms: C_24  and  C_25
REMARK                            x       y       z     vdW  Elec       q    Type
REMARK                         _______ _______ _______ _____ _____    ______ ____
ROOT
ATOM      1  C   UNL     1       0.916   9.774  17.885  0.00  0.00    +0.000 C 
ATOM      2  C   UNL     1      -0.140   9.974  18.710  0.00  0.00    +0.000 C 
ENDROOT
BRANCH   2   3
ATOM      3  C   UNL     1       0.002   9.802  20.173  0.00  0.00    +0.000 A 
ATOM      4  C   UNL     1       0.894  10.605  20.892  0.00  0.00    +0.000 A 
ATOM      5  C   UNL     1       1.073  10.404  22.263  0.00  0.00    +0.000 A 
ATOM      6  C   UNL     1       0.375   9.394  22.921  0.00  0.00    +0.000 A 
ATOM      7  C   UNL     1      -0.524   8.598  22.217  0.00  0.00    +0.000 A 
ATOM      8  C   UNL     1      -0.724   8.819  20.855  0.00  0.00    +0.000 A 
ENDBRANCH   2   3
BRANCH   2   9
ATOM      9  C   UNL     1      -1.430  10.367  18.072  0.00  0.00    +0.000 A 
ATOM     10  C   UNL     1      -1.837   9.591  16.967  0.00  0.00    +0.000 A 
ATOM     11  C   UNL     1      -2.987   9.909  16.248  0.00  0.00    +0.000 A 
ATOM     12  C   UNL     1      -3.752  11.003  16.628  0.00  0.00    +0.000 A 
ATOM     13  C   UNL     1      -3.376  11.767  17.738  0.00  0.00    +0.000 A 
ATOM     14  C   UNL     1      -2.213  11.481  18.489  0.00  0.00    +0.000 A 
BRANCH  14  15
ATOM     15  C   UNL     1      -1.848  12.382  19.619  0.00  0.00    +0.000 A 
ATOM     16  C   UNL     1      -2.402  12.246  20.902  0.00  0.00    +0.000 A 
ATOM     17  C   UNL     1      -1.916  12.963  22.000  0.00  0.00    +0.000 A 
ATOM     18  C   UNL     1      -0.926  13.918  21.818  0.00  0.00    +0.000 A 
ATOM     19  C   UNL     1      -0.440  14.165  20.539  0.00  0.00    +0.000 A 
ATOM     20  C   UNL     1      -0.886  13.396  19.456  0.00  0.00    +0.000 A 
ENDBRANCH  14  15
ENDBRANCH   2   9
BRANCH   1  21
ATOM     21  C   UNL     1       2.298   9.268  18.231  0.00  0.00    +0.000 C 
BRANCH  21  22
ATOM     22  C   UNL     1       2.659   7.938  17.534  0.00  0.00    +0.000 C 
BRANCH  22  27
ATOM     23  C   UNL     1       2.958   4.330  18.664  0.00  0.00    +0.000 C 
ATOM     24  C   UNL     1       2.887   4.565  20.176  0.00  0.00    +0.000 C 
ATOM     25  C   UNL     1       1.928   5.695  20.520  0.00  0.00    +0.000 C 
ATOM     26  C   UNL     1       2.255   6.959  19.720  0.00  0.00    +0.000 C 
ATOM     27  N   UNL     1       2.267   6.704  18.267  0.00  0.00    +0.000 NA
ATOM     28  C   UNL     1       3.251   5.638  17.925  0.00  0.00    +0.000 C 
BRANCH  23  30
ATOM     29  O   UNL     1       1.307   2.568  18.613  0.00  0.00    +0.000 OA
ATOM     30  C   UNL     1       1.703   3.638  18.160  0.00  0.00    +0.000 C 
BRANCH  30  31
ATOM     31  O   UNL     1       1.006   4.318  17.221  0.00  0.00    +0.000 OA
ATOM     32  H   UNL     1       1.066   3.894  16.330  0.00  0.00    +0.000 HD
ENDBRANCH  30  31
ENDBRANCH  23  30
ENDBRANCH  22  27
ENDBRANCH  21  22
ENDBRANCH   1  21
TORSDOF 8
ENDMDL
MODEL 6
REMARK VINA RESULT:      -7.7      1.220      2.018
REMARK  Name = 
REMARK  8 active torsions:
REMARK  status: ('A' for Active; 'I' for Inactive)
REMARK    1  A    between atoms: C_2  and  O_3
REMARK    2  A    between atoms: C_2  and  C_4
REMARK    3  A    between atoms: N_8  and  C_9
REMARK    4  A    between atoms: C_9  and  C_10
REMARK    5  A    between atoms: C_10  and  C_11
REMARK    6  A    between atoms: C_12  and  C_13
REMARK    7  A    between atoms: C_12  and  C_19
REMARK    8  A    between atoms: C_24  and  C_25
REMARK                            x       y       z     vdW  Elec       q    Type
REMARK                         _______ _______ _______ _____ _____    ______ ____
ROOT
ATOM      1  C   UNL     1       3.911   6.978  17.223  0.00  0.00    +0.000 C 
ATOM      2  C   UNL     1       4.119   5.646  17.086  0.00  0.00    +0.000 C 
ENDROOT
BRANCH   2   3
ATOM      3  C   UNL     1       3.400   4.677  17.943  0.00  0.00    +0.000 A 
ATOM      4  C   UNL     1       4.062   4.051  19.005  0.00  0.00    +0.000 A 
ATOM      5  C   UNL     1       3.402   3.091  19.777  0.00  0.00    +0.000 A 
ATOM      6  C   UNL     1       2.085   2.742  19.487  0.00  0.00    +0.000 A 
ATOM      7  C   UNL     1       1.414   3.369  18.440  0.00  0.00    +0.000 A 
ATOM      8  C   UNL     1       2.064   4.347  17.690  0.00  0.00    +0.000 A 
ENDBRANCH   2   3
BRANCH   2   9
ATOM      9  C   UNL     1       5.098   5.220  16.044  0.00  0.00    +0.000 A 
ATOM     10  C   UNL     1       4.583   4.425  14.998  0.00  0.00    +0.000 A 
ATOM     11  C   UNL     1       5.416   3.909  14.008  0.00  0.00    +0.000 A 
ATOM     12  C   UNL     1       6.776   4.187  14.044  0.00  0.00    +0.000 A 
ATOM     13  C   UNL     1       7.298   4.996  15.060  0.00  0.00    +0.000 A 
ATOM     14  C   UNL     1       6.487   5.532  16.085  0.00  0.00    +0.000 A 
BRANCH  14  15
ATOM     15  C   UNL     1       7.131   6.331  17.166  0.00  0.00    +0.000 A 
ATOM     16  C   UNL     1       7.516   5.768  18.394  0.00  0.00    +0.000 A 
ATOM     17  C   UNL     1       8.291   6.470  19.322  0.00  0.00    +0.000 A 
ATOM     18  C   UNL     1       8.613   7.800  19.088  0.00  0.00    +0.000 A 
ATOM     19  C   UNL     1       8.145   8.425  17.938  0.00  0.00    +0.000 A 
ATOM     20  C   UNL     1       7.425   7.695  16.983  0.00  0.00    +0.000 A 
ENDBRANCH  14  15
ENDBRANCH   2   9
BRANCH   1  21
ATOM     21  C   UNL     1       3.074   7.698  18.256  0.00  0.00    +0.000 C 
BRANCH  21  22
ATOM     22  C   UNL     1       1.684   8.122  17.733  0.00  0.00    +0.000 C 
BRANCH  22  27
ATOM     23  C   UNL     1       0.432  10.619  20.298  0.00  0.00    +0.000 C 
ATOM     24  C   UNL     1       1.431  11.745  20.016  0.00  0.00    +0.000 C 
ATOM     25  C   UNL     1       1.760  11.841  18.534  0.00  0.00    +0.000 C 
ATOM     26  C   UNL     1       2.197  10.484  17.977  0.00  0.00    +0.000 C 
ATOM     27  N   UNL     1       1.188   9.435  18.225  0.00  0.00    +0.000 NA
ATOM     28  C   UNL     1       0.912   9.302  19.683  0.00  0.00    +0.000 C 
BRANCH  23  30
ATOM     29  O   UNL     1      -1.555  11.991  20.277  0.00  0.00    +0.000 OA
ATOM     30  C   UNL     1      -0.965  11.004  19.845  0.00  0.00    +0.000 C 
BRANCH  30  31
ATOM     31  O   UNL     1      -1.494  10.224  18.876  0.00  0.00    +0.000 OA
ATOM     32  H   UNL     1      -1.882   9.389  19.236  0.00  0.00    +0.000 HD
ENDBRANCH  30  31
ENDBRANCH  23  30
ENDBRANCH  22  27
ENDBRANCH  21  22
ENDBRANCH   1  21
TORSDOF 8
ENDMDL
MODEL 7
REMARK VINA RESULT:      -7.7      3.842      8.821
REMARK  Name = 
REMARK  8 active torsions:
REMARK  status: ('A' for Active; 'I' for Inactive)
REMARK    1  A    between atoms: C_2  and  O_3
REMARK    2  A    between atoms: C_2  and  C_4
REMARK    3  A    between atoms: N_8  and  C_9
REMARK    4  A    between atoms: C_9  and  C_10
REMARK    5  A    between atoms: C_10  and  C_11
REMARK    6  A    between atoms: C_12  and  C_13
REMARK    7  A    between atoms: C_12  and  C_19
REMARK    8  A    between atoms: C_24  and  C_25
REMARK                            x       y       z     vdW  Elec       q    Type
REMARK                         _______ _______ _______ _____ _____    ______ ____
ROOT
ATOM      1  C   UNL     1       0.960   9.744  17.886  0.00  0.00    +0.000 C 
ATOM      2  C   UNL     1      -0.099   9.943  18.707  0.00  0.00    +0.000 C 
ENDROOT
BRANCH   2   3
ATOM      3  C   UNL     1       0.035   9.765  20.169  0.00  0.00    +0.000 A 
ATOM      4  C   UNL     1      -0.664   8.743  20.821  0.00  0.00    +0.000 A 
ATOM      5  C   UNL     1      -0.586   8.612  22.210  0.00  0.00    +0.000 A 
ATOM      6  C   UNL     1       0.178   9.505  22.957  0.00  0.00    +0.000 A 
ATOM      7  C   UNL     1       0.887  10.518  22.317  0.00  0.00    +0.000 A 
ATOM      8  C   UNL     1       0.832  10.629  20.929  0.00  0.00    +0.000 A 
ENDBRANCH   2   3
BRANCH   2   9
ATOM      9  C   UNL     1      -1.386  10.342  18.064  0.00  0.00    +0.000 A 
ATOM     10  C   UNL     1      -1.804   9.555  16.971  0.00  0.00    +0.000 A 
ATOM     11  C   UNL     1      -2.950   9.876  16.248  0.00  0.00    +0.000 A 
ATOM     12  C   UNL     1      -3.702  10.984  16.613  0.00  0.00    +0.000 A 
ATOM     13  C   UNL     1      -3.315  11.760  17.711  0.00  0.00    +0.000 A 
ATOM     14  C   UNL     1      -2.155  11.472  18.465  0.00  0.00    +0.000 A 
BRANCH  14  15
ATOM     15  C   UNL     1      -1.777  12.386  19.581  0.00  0.00    +0.000 A 
ATOM     16  C   UNL     1      -0.854  13.432  19.420  0.00  0.00    +0.000 A 
ATOM     17  C   UNL     1      -0.650  14.400  20.408  0.00  0.00    +0.000 A 
ATOM     18  C   UNL     1      -1.295  14.285  21.632  0.00  0.00    +0.000 A 
ATOM     19  C   UNL     1      -2.124  13.194  21.868  0.00  0.00    +0.000 A 
ATOM     20  C   UNL     1      -2.372  12.264  20.850  0.00  0.00    +0.000 A 
ENDBRANCH  14  15
ENDBRANCH   2   9
BRANCH   1  21
ATOM     21  C   UNL     1       2.339   9.233  18.236  0.00  0.00    +0.000 C 
BRANCH  21  22
ATOM     22  C   UNL     1       2.694   7.899  17.545  0.00  0.00    +0.000 C 
BRANCH  22  27
ATOM     23  C   UNL     1       2.926   4.278  18.650  0.00  0.00    +0.000 C 
ATOM     24  C   UNL     1       2.881   4.506  20.163  0.00  0.00    +0.000 C 
ATOM     25  C   UNL     1       1.951   5.654  20.527  0.00  0.00    +0.000 C 
ATOM     26  C   UNL     1       2.297   6.916  19.730  0.00  0.00    +0.000 C 
ATOM     27  N   UNL     1       2.284   6.670  18.276  0.00  0.00    +0.000 NA
ATOM     28  C   UNL     1       3.240   5.584  17.914  0.00  0.00    +0.000 C 
BRANCH  23  30
ATOM     29  O   UNL     1       1.221   2.569  18.629  0.00  0.00    +0.000 OA
ATOM     30  C   UNL     1       1.650   3.618  18.158  0.00  0.00    +0.000 C 
BRANCH  30  31
ATOM     31  O   UNL     1       0.974   4.303  17.208  0.00  0.00    +0.000 OA
ATOM     32  H   UNL     1       0.559   5.127  17.564  0.00  0.00    +0.000 HD
ENDBRANCH  30  31
ENDBRANCH  23  30
ENDBRANCH  22  27
ENDBRANCH  21  22
ENDBRANCH   1  21
TORSDOF 8
ENDMDL
MODEL 8
REMARK VINA RESULT:      -7.7      1.179      3.925
REMARK  Name = 
REMARK  8 active torsions:
REMARK  status: ('A' for Active; 'I' for Inactive)
REMARK    1  A    between atoms: C_2  and  O_3
REMARK    2  A    between atoms: C_2  and  C_4
REMARK    3  A    between atoms: N_8  and  C_9
REMARK    4  A    between atoms: C_9  and  C_10
REMARK    5  A    between atoms: C_10  and  C_11
REMARK    6  A    between atoms: C_12  and  C_13
REMARK    7  A    between atoms: C_12  and  C_19
REMARK    8  A    between atoms: C_24  and  C_25
REMARK                            x       y       z     vdW  Elec       q    Type
REMARK                         _______ _______ _______ _____ _____    ______ ____
ROOT
ATOM      1  C   UNL     1       2.573   6.927  18.166  0.00  0.00    +0.000 C 
ATOM      2  C   UNL     1       3.511   5.949  18.130  0.00  0.00    +0.000 C 
ENDROOT
BRANCH   2   3
ATOM      3  C   UNL     1       4.951   6.281  18.198  0.00  0.00    +0.000 A 
ATOM      4  C   UNL     1       5.521   7.139  17.252  0.00  0.00    +0.000 A 
ATOM      5  C   UNL     1       6.892   7.406  17.279  0.00  0.00    +0.000 A 
ATOM      6  C   UNL     1       7.704   6.808  18.240  0.00  0.00    +0.000 A 
ATOM      7  C   UNL     1       7.145   5.962  19.194  0.00  0.00    +0.000 A 
ATOM      8  C   UNL     1       5.772   5.721  19.184  0.00  0.00    +0.000 A 
ENDBRANCH   2   3
BRANCH   2   9
ATOM      9  C   UNL     1       3.018   4.545  18.018  0.00  0.00    +0.000 A 
ATOM     10  C   UNL     1       1.955   4.191  18.876  0.00  0.00    +0.000 A 
ATOM     11  C   UNL     1       1.461   2.889  18.911  0.00  0.00    +0.000 A 
ATOM     12  C   UNL     1       2.016   1.923  18.083  0.00  0.00    +0.000 A 
ATOM     13  C   UNL     1       3.053   2.265  17.208  0.00  0.00    +0.000 A 
ATOM     14  C   UNL     1       3.587   3.573  17.147  0.00  0.00    +0.000 A 
BRANCH  14  15
ATOM     15  C   UNL     1       4.734   3.839  16.233  0.00  0.00    +0.000 A 
ATOM     16  C   UNL     1       4.564   4.377  14.947  0.00  0.00    +0.000 A 
ATOM     17  C   UNL     1       5.647   4.804  14.173  0.00  0.00    +0.000 A 
ATOM     18  C   UNL     1       6.943   4.606  14.628  0.00  0.00    +0.000 A 
ATOM     19  C   UNL     1       7.150   3.966  15.846  0.00  0.00    +0.000 A 
ATOM     20  C   UNL     1       6.058   3.600  16.643  0.00  0.00    +0.000 A 
ENDBRANCH  14  15
ENDBRANCH   2   9
BRANCH   1  21
ATOM     21  C   UNL     1       2.776   8.425  18.163  0.00  0.00    +0.000 C 
BRANCH  21  22
ATOM     22  C   UNL     1       1.457   9.224  18.239  0.00  0.00    +0.000 C 
BRANCH  22  27
ATOM     23  C   UNL     1      -0.580  11.159  20.786  0.00  0.00    +0.000 C 
ATOM     24  C   UNL     1      -0.481  10.167  21.948  0.00  0.00    +0.000 C 
ATOM     25  C   UNL     1       0.882   9.492  21.991  0.00  0.00    +0.000 C 
ATOM     26  C   UNL     1       1.237   8.879  20.633  0.00  0.00    +0.000 C 
ATOM     27  N   UNL     1       1.177   9.876  19.547  0.00  0.00    +0.000 NA
ATOM     28  C   UNL     1      -0.177  10.493  19.468  0.00  0.00    +0.000 C 
BRANCH  23  30
ATOM     29  O   UNL     1       0.115  13.042  22.128  0.00  0.00    +0.000 OA
ATOM     30  C   UNL     1       0.217  12.419  21.076  0.00  0.00    +0.000 C 
BRANCH  30  31
ATOM     31  O   UNL     1       1.106  12.772  20.120  0.00  0.00    +0.000 OA
ATOM     32  H   UNL     1       1.994  12.362  20.263  0.00  0.00    +0.000 HD
ENDBRANCH  30  31
ENDBRANCH  23  30
ENDBRANCH  22  27
ENDBRANCH  21  22
ENDBRANCH   1  21
TORSDOF 8
ENDMDL
MODEL 9
REMARK VINA RESULT:      -7.7      1.305      1.708
REMARK  Name = 
REMARK  8 active torsions:
REMARK  status: ('A' for Active; 'I' for Inactive)
REMARK    1  A    between atoms: C_2  and  O_3
REMARK    2  A    between atoms: C_2  and  C_4
REMARK    3  A    between atoms: N_8  and  C_9
REMARK    4  A    between atoms: C_9  and  C_10
REMARK    5  A    between atoms: C_10  and  C_11
REMARK    6  A    between atoms: C_12  and  C_13
REMARK    7  A    between atoms: C_12  and  C_19
REMARK    8  A    between atoms: C_24  and  C_25
REMARK                            x       y       z     vdW  Elec       q    Type
REMARK                         _______ _______ _______ _____ _____    ______ ____
ROOT
ATOM      1  C   UNL     1       4.018   6.878  17.116  0.00  0.00    +0.000 C 
ATOM      2  C   UNL     1       4.207   5.545  16.963  0.00  0.00    +0.000 C 
ENDROOT
BRANCH   2   3
ATOM      3  C   UNL     1       3.522   4.579  17.850  0.00  0.00    +0.000 A 
ATOM      4  C   UNL     1       2.198   4.207  17.595  0.00  0.00    +0.000 A 
ATOM      5  C   UNL     1       1.530   3.341  18.465  0.00  0.00    +0.000 A 
ATOM      6  C   UNL     1       2.174   2.852  19.599  0.00  0.00    +0.000 A 
ATOM      7  C   UNL     1       3.496   3.207  19.855  0.00  0.00    +0.000 A 
ATOM      8  C   UNL     1       4.170   4.046  18.970  0.00  0.00    +0.000 A 
ENDBRANCH   2   3
BRANCH   2   9
ATOM      9  C   UNL     1       5.130   5.115  15.872  0.00  0.00    +0.000 A 
ATOM     10  C   UNL     1       4.537   4.420  14.797  0.00  0.00    +0.000 A 
ATOM     11  C   UNL     1       5.310   3.907  13.758  0.00  0.00    +0.000 A 
ATOM     12  C   UNL     1       6.686   4.089  13.773  0.00  0.00    +0.000 A 
ATOM     13  C   UNL     1       7.286   4.799  14.819  0.00  0.00    +0.000 A 
ATOM     14  C   UNL     1       6.538   5.329  15.895  0.00  0.00    +0.000 A 
BRANCH  14  15
ATOM     15  C   UNL     1       7.260   6.017  17.002  0.00  0.00    +0.000 A 
ATOM     16  C   UNL     1       7.601   7.379  16.949  0.00  0.00    +0.000 A 
ATOM     17  C   UNL     1       8.101   8.062  18.061  0.00  0.00    +0.000 A 
ATOM     18  C   UNL     1       8.373   7.370  19.233  0.00  0.00    +0.000 A 
ATOM     19  C   UNL     1       8.160   5.997  19.281  0.00  0.00    +0.000 A 
ATOM     20  C   UNL     1       7.598   5.332  18.184  0.00  0.00    +0.000 A 
ENDBRANCH  14  15
ENDBRANCH   2   9
BRANCH   1  21
ATOM     21  C   UNL     1       3.239   7.600  18.191  0.00  0.00    +0.000 C 
BRANCH  21  22
ATOM     22  C   UNL     1       1.780   7.911  17.790  0.00  0.00    +0.000 C 
BRANCH  22  27
ATOM     23  C   UNL     1       0.177  10.942  19.409  0.00  0.00    +0.000 C 
ATOM     24  C   UNL     1       1.384  11.882  19.363  0.00  0.00    +0.000 C 
ATOM     25  C   UNL     1       2.199  11.680  18.094  0.00  0.00    +0.000 C 
ATOM     26  C   UNL     1       2.566  10.206  17.903  0.00  0.00    +0.000 C 
ATOM     27  N   UNL     1       1.374   9.337  17.905  0.00  0.00    +0.000 NA
ATOM     28  C   UNL     1       0.609   9.492  19.175  0.00  0.00    +0.000 C 
BRANCH  23  30
ATOM     29  O   UNL     1      -1.480  12.475  18.552  0.00  0.00    +0.000 OA
ATOM     30  C   UNL     1      -0.906  11.395  18.446  0.00  0.00    +0.000 C 
BRANCH  30  31
ATOM     31  O   UNL     1      -1.148  10.557  17.413  0.00  0.00    +0.000 OA
ATOM     32  H   UNL     1      -1.932   9.977  17.576  0.00  0.00    +0.000 HD
ENDBRANCH  30  31
ENDBRANCH  23  30
ENDBRANCH  22  27
ENDBRANCH  21  22
ENDBRANCH   1  21
TORSDOF 8
ENDMDL
