MODEL 1
REMARK VINA RESULT:      -6.6      0.000      0.000
REMARK  Name = 
REMARK  8 active torsions:
REMARK  status: ('A' for Active; 'I' for Inactive)
REMARK    1  A    between atoms: C_1  and  C_2
REMARK    2  A    between atoms: C_2  and  C_3
REMARK    3  A    between atoms: C_2  and  C_4
REMARK    4  A    between atoms: C_4  and  O_5
REMARK    5  A    between atoms: O_5  and  N_6
REMARK    6  A    between atoms: C_9  and  O_10
REMARK    7  A    between atoms: C_11  and  O_12
REMARK    8  A    between atoms: N_20  and  C_21
REMARK                            x       y       z     vdW  Elec       q    Type
REMARK                         _______ _______ _______ _____ _____    ______ ____
ROOT
ATOM      1  N   UNL     1      -1.952  11.444  20.303  0.00  0.00    +0.000 NA
ATOM      2  C   UNL     1      -0.714  11.799  20.403  0.00  0.00    +0.000 C 
ATOM      3  C   UNL     1      -0.144  13.126  19.967  0.00  0.00    +0.000 C 
ATOM      4  C   UNL     1       0.595  12.847  18.662  0.00  0.00    +0.000 C 
ATOM      5  C   UNL     1       1.597  11.665  18.805  0.00  0.00    +0.000 C 
ATOM      6  C   UNL     1       0.949  10.354  19.371  0.00  0.00    +0.000 C 
ATOM      7  C   UNL     1       0.315  10.725  20.732  0.00  0.00    +0.000 C 
ATOM      8  C   UNL     1      -0.328   9.554  21.454  0.00  0.00    +0.000 C 
ATOM      9  C   UNL     1       0.533   8.318  21.583  0.00  0.00    +0.000 C 
ATOM     10  C   UNL     1       1.723   8.202  20.647  0.00  0.00    +0.000 C 
ATOM     11  C   UNL     1       1.753   6.871  19.921  0.00  0.00    +0.000 C 
ATOM     12  O   UNL     1       1.240   5.838  20.323  0.00  0.00    +0.000 OA
ATOM     13  N   UNL     1       2.471   7.020  18.766  0.00  0.00    +0.000 N 
ATOM     14  C   UNL     1       2.139   8.286  18.318  0.00  0.00    +0.000 C 
ATOM     15  O   UNL     1       1.934   8.576  17.153  0.00  0.00    +0.000 OA
ATOM     16  C   UNL     1       1.969   9.212  19.523  0.00  0.00    +0.000 C 
ENDROOT
BRANCH  13  17
ATOM     17  C   UNL     1       3.905   6.707  18.913  0.00  0.00    +0.000 C 
ATOM     18  C   UNL     1       4.182   5.302  19.502  0.00  0.00    +0.000 C 
ATOM     19  C   UNL     1       4.000   4.172  18.493  0.00  0.00    +0.000 C 
ATOM     20  C   UNL     1       4.806   4.414  17.223  0.00  0.00    +0.000 C 
ATOM     21  C   UNL     1       4.515   5.784  16.617  0.00  0.00    +0.000 C 
ATOM     22  C   UNL     1       4.731   6.901  17.629  0.00  0.00    +0.000 C 
ENDBRANCH  13  17
BRANCH   4  23
ATOM     23  O   UNL     1      -0.321  12.594  17.591  0.00  0.00    +0.000 OA
ATOM     24  H   UNL     1      -0.408  13.402  17.047  0.00  0.00    +0.000 HD
ENDBRANCH   4  23
BRANCH   5  25
ATOM     25  O   UNL     1       2.265  11.432  17.573  0.00  0.00    +0.000 OA
ATOM     26  H   UNL     1       3.107  11.929  17.593  0.00  0.00    +0.000 HD
ENDBRANCH   5  25
BRANCH   1  27
ATOM     27  O   UNL     1      -2.758  12.435  19.746  0.00  0.00    +0.000 OA
BRANCH  27  28
ATOM     28  C   UNL     1      -3.881  11.783  19.147  0.00  0.00    +0.000 C 
BRANCH  28  30
ATOM     29  C   UNL     1      -3.155   9.953  17.578  0.00  0.00    +0.000 C 
ATOM     30  C   UNL     1      -3.546  11.427  17.702  0.00  0.00    +0.000 C 
ATOM     31  C   UNL     1      -4.732  11.750  16.797  0.00  0.00    +0.000 C 
ENDBRANCH  28  30
ENDBRANCH  27  28
ENDBRANCH   1  27
TORSDOF 6
ENDMDL
MODEL 2
REMARK VINA RESULT:      -6.6      2.654      4.507
REMARK  Name = 
REMARK  8 active torsions:
REMARK  status: ('A' for Active; 'I' for Inactive)
REMARK    1  A    between atoms: C_1  and  C_2
REMARK    2  A    between atoms: C_2  and  C_3
REMARK    3  A    between atoms: C_2  and  C_4
REMARK    4  A    between atoms: C_4  and  O_5
REMARK    5  A    between atoms: O_5  and  N_6
REMARK    6  A    between atoms: C_9  and  O_10
REMARK    7  A    between atoms: C_11  and  O_12
REMARK    8  A    between atoms: N_20  and  C_21
REMARK                            x       y       z     vdW  Elec       q    Type
REMARK                         _______ _______ _______ _____ _____    ______ ____
ROOT
ATOM      1  N   UNL     1       1.615  12.453  20.542  0.00  0.00    +0.000 NA
ATOM      2  C   UNL     1       0.579  11.732  20.269  0.00  0.00    +0.000 C 
ATOM      3  C   UNL     1      -0.731  11.761  21.017  0.00  0.00    +0.000 C 
ATOM      4  C   UNL     1      -0.741  10.498  21.875  0.00  0.00    +0.000 C 
ATOM      5  C   UNL     1      -0.438   9.224  21.034  0.00  0.00    +0.000 C 
ATOM      6  C   UNL     1       0.885   9.320  20.197  0.00  0.00    +0.000 C 
ATOM      7  C   UNL     1       0.750  10.571  19.298  0.00  0.00    +0.000 C 
ATOM      8  C   UNL     1       1.935  10.799  18.375  0.00  0.00    +0.000 C 
ATOM      9  C   UNL     1       2.365   9.599  17.563  0.00  0.00    +0.000 C 
ATOM     10  C   UNL     1       1.897   8.235  18.040  0.00  0.00    +0.000 C 
ATOM     11  C   UNL     1       3.041   7.248  18.164  0.00  0.00    +0.000 C 
ATOM     12  O   UNL     1       4.092   7.306  17.544  0.00  0.00    +0.000 OA
ATOM     13  N   UNL     1       2.683   6.276  19.058  0.00  0.00    +0.000 N 
ATOM     14  C   UNL     1       1.964   6.952  20.027  0.00  0.00    +0.000 C 
ATOM     15  O   UNL     1       2.051   6.744  21.225  0.00  0.00    +0.000 OA
ATOM     16  C   UNL     1       1.143   8.055  19.360  0.00  0.00    +0.000 C 
ENDROOT
BRANCH  13  17
ATOM     17  C   UNL     1       2.045   5.100  18.436  0.00  0.00    +0.000 C 
ATOM     18  C   UNL     1       2.992   4.286  17.521  0.00  0.00    +0.000 C 
ATOM     19  C   UNL     1       3.966   3.397  18.289  0.00  0.00    +0.000 C 
ATOM     20  C   UNL     1       3.245   2.500  19.287  0.00  0.00    +0.000 C 
ATOM     21  C   UNL     1       2.335   3.298  20.215  0.00  0.00    +0.000 C 
ATOM     22  C   UNL     1       1.350   4.156  19.432  0.00  0.00    +0.000 C 
ENDBRANCH  13  17
BRANCH   4  23
ATOM     23  O   UNL     1       0.182  10.604  22.964  0.00  0.00    +0.000 OA
ATOM     24  H   UNL     1       0.947  11.145  22.684  0.00  0.00    +0.000 HD
ENDBRANCH   4  23
BRANCH   5  25
ATOM     25  O   UNL     1      -0.454   8.071  21.863  0.00  0.00    +0.000 OA
ATOM     26  H   UNL     1       0.329   7.531  21.634  0.00  0.00    +0.000 HD
ENDBRANCH   5  25
BRANCH   1  27
ATOM     27  O   UNL     1       1.414  13.306  21.626  0.00  0.00    +0.000 OA
BRANCH  27  28
ATOM     28  C   UNL     1       1.911  14.594  21.251  0.00  0.00    +0.000 C 
BRANCH  28  30
ATOM     29  C   UNL     1       2.744  15.328  18.992  0.00  0.00    +0.000 C 
ATOM     30  C   UNL     1       3.004  14.426  20.200  0.00  0.00    +0.000 C 
ATOM     31  C   UNL     1       4.369  14.723  20.813  0.00  0.00    +0.000 C 
ENDBRANCH  28  30
ENDBRANCH  27  28
ENDBRANCH   1  27
TORSDOF 6
ENDMDL
MODEL 3
REMARK VINA RESULT:      -6.5      2.517      4.365
REMARK  Name = 
REMARK  8 active torsions:
REMARK  status: ('A' for Active; 'I' for Inactive)
REMARK    1  A    between atoms: C_1  and  C_2
REMARK    2  A    between atoms: C_2  and  C_3
REMARK    3  A    between atoms: C_2  and  C_4
REMARK    4  A    between atoms: C_4  and  O_5
REMARK    5  A    between atoms: O_5  and  N_6
REMARK    6  A    between atoms: C_9  and  O_10
REMARK    7  A    between atoms: C_11  and  O_12
REMARK    8  A    between atoms: N_20  and  C_21
REMARK                            x       y       z     vdW  Elec       q    Type
REMARK                         _______ _______ _______ _____ _____    ______ ____
ROOT
ATOM      1  N   UNL     1       1.856  12.581  19.586  0.00  0.00    +0.000 NA
ATOM      2  C   UNL     1       0.789  11.869  19.435  0.00  0.00    +0.000 C 
ATOM      3  C   UNL     1      -0.544  12.138  20.087  0.00  0.00    +0.000 C 
ATOM      4  C   UNL     1      -0.664  11.114  21.213  0.00  0.00    +0.000 C 
ATOM      5  C   UNL     1      -0.408   9.665  20.708  0.00  0.00    +0.000 C 
ATOM      6  C   UNL     1       0.950   9.495  19.940  0.00  0.00    +0.000 C 
ATOM      7  C   UNL     1       0.926  10.505  18.770  0.00  0.00    +0.000 C 
ATOM      8  C   UNL     1       2.156  10.450  17.881  0.00  0.00    +0.000 C 
ATOM      9  C   UNL     1       2.543   9.073  17.393  0.00  0.00    +0.000 C 
ATOM     10  C   UNL     1       1.975   7.885  18.148  0.00  0.00    +0.000 C 
ATOM     11  C   UNL     1       3.052   6.898  18.556  0.00  0.00    +0.000 C 
ATOM     12  O   UNL     1       4.126   6.756  17.994  0.00  0.00    +0.000 OA
ATOM     13  N   UNL     1       2.602   6.182  19.632  0.00  0.00    +0.000 N 
ATOM     14  C   UNL     1       1.889   7.102  20.380  0.00  0.00    +0.000 C 
ATOM     15  O   UNL     1       1.917   7.177  21.596  0.00  0.00    +0.000 OA
ATOM     16  C   UNL     1       1.162   8.057  19.434  0.00  0.00    +0.000 C 
ENDROOT
BRANCH  13  17
ATOM     17  C   UNL     1       1.917   4.927  19.268  0.00  0.00    +0.000 C 
ATOM     18  C   UNL     1       2.848   3.872  18.623  0.00  0.00    +0.000 C 
ATOM     19  C   UNL     1       3.732   3.141  19.630  0.00  0.00    +0.000 C 
ATOM     20  C   UNL     1       2.915   2.545  20.769  0.00  0.00    +0.000 C 
ATOM     21  C   UNL     1       2.019   3.585  21.433  0.00  0.00    +0.000 C 
ATOM     22  C   UNL     1       1.123   4.282  20.417  0.00  0.00    +0.000 C 
ENDBRANCH  13  17
BRANCH   4  23
ATOM     23  O   UNL     1       0.222  11.426  22.294  0.00  0.00    +0.000 OA
ATOM     24  H   UNL     1       1.144  11.398  21.970  0.00  0.00    +0.000 HD
ENDBRANCH   4  23
BRANCH   5  25
ATOM     25  O   UNL     1      -0.524   8.740  21.780  0.00  0.00    +0.000 OA
ATOM     26  H   UNL     1      -0.506   7.839  21.398  0.00  0.00    +0.000 HD
ENDBRANCH   5  25
BRANCH   1  27
ATOM     27  O   UNL     1       1.665  13.673  20.430  0.00  0.00    +0.000 OA
BRANCH  27  28
ATOM     28  C   UNL     1       2.510  14.727  19.959  0.00  0.00    +0.000 C 
BRANCH  28  30
ATOM     29  C   UNL     1       0.827  16.239  18.854  0.00  0.00    +0.000 C 
ATOM     30  C   UNL     1       1.972  15.249  18.630  0.00  0.00    +0.000 C 
ATOM     31  C   UNL     1       3.098  15.896  17.829  0.00  0.00    +0.000 C 
ENDBRANCH  28  30
ENDBRANCH  27  28
ENDBRANCH   1  27
TORSDOF 6
ENDMDL
MODEL 4
REMARK VINA RESULT:      -6.5      2.668      4.231
REMARK  Name = 
REMARK  8 active torsions:
REMARK  status: ('A' for Active; 'I' for Inactive)
REMARK    1  A    between atoms: C_1  and  C_2
REMARK    2  A    between atoms: C_2  and  C_3
REMARK    3  A    between atoms: C_2  and  C_4
REMARK    4  A    between atoms: C_4  and  O_5
REMARK    5  A    between atoms: O_5  and  N_6
REMARK    6  A    between atoms: C_9  and  O_10
REMARK    7  A    between atoms: C_11  and  O_12
REMARK    8  A    between atoms: N_20  and  C_21
REMARK                            x       y       z     vdW  Elec       q    Type
REMARK                         _______ _______ _______ _____ _____    ______ ____
ROOT
ATOM      1  N   UNL     1       1.804  12.538  20.418  0.00  0.00    +0.000 NA
ATOM      2  C   UNL     1       0.749  11.846  20.142  0.00  0.00    +0.000 C 
ATOM      3  C   UNL     1      -0.568  11.927  20.872  0.00  0.00    +0.000 C 
ATOM      4  C   UNL     1      -0.629  10.678  21.748  0.00  0.00    +0.000 C 
ATOM      5  C   UNL     1      -0.358   9.383  20.929  0.00  0.00    +0.000 C 
ATOM      6  C   UNL     1       0.978   9.424  20.108  0.00  0.00    +0.000 C 
ATOM      7  C   UNL     1       0.895  10.666  19.190  0.00  0.00    +0.000 C 
ATOM      8  C   UNL     1       2.097  10.843  18.279  0.00  0.00    +0.000 C 
ATOM      9  C   UNL     1       2.499   9.618  17.490  0.00  0.00    +0.000 C 
ATOM     10  C   UNL     1       1.982   8.277  17.979  0.00  0.00    +0.000 C 
ATOM     11  C   UNL     1       3.092   7.256  18.131  0.00  0.00    +0.000 C 
ATOM     12  O   UNL     1       4.151   7.271  17.524  0.00  0.00    +0.000 OA
ATOM     13  N   UNL     1       2.692   6.309  19.035  0.00  0.00    +0.000 N 
ATOM     14  C   UNL     1       1.984   7.021  19.985  0.00  0.00    +0.000 C 
ATOM     15  O   UNL     1       2.048   6.828  21.186  0.00  0.00    +0.000 OA
ATOM     16  C   UNL     1       1.206   8.140  19.292  0.00  0.00    +0.000 C 
ENDROOT
BRANCH  13  17
ATOM     17  C   UNL     1       2.025   5.145  18.422  0.00  0.00    +0.000 C 
ATOM     18  C   UNL     1       2.943   4.315  17.492  0.00  0.00    +0.000 C 
ATOM     19  C   UNL     1       3.913   3.409  18.245  0.00  0.00    +0.000 C 
ATOM     20  C   UNL     1       3.191   2.524  19.253  0.00  0.00    +0.000 C 
ATOM     21  C   UNL     1       2.309   3.337  20.195  0.00  0.00    +0.000 C 
ATOM     22  C   UNL     1       1.327   4.212  19.426  0.00  0.00    +0.000 C 
ENDBRANCH  13  17
BRANCH   4  23
ATOM     23  O   UNL     1       0.283  10.771  22.847  0.00  0.00    +0.000 OA
ATOM     24  H   UNL     1       1.198  10.703  22.510  0.00  0.00    +0.000 HD
ENDBRANCH   4  23
BRANCH   5  25
ATOM     25  O   UNL     1      -0.420   8.243  21.774  0.00  0.00    +0.000 OA
ATOM     26  H   UNL     1      -0.981   7.575  21.330  0.00  0.00    +0.000 HD
ENDBRANCH   5  25
BRANCH   1  27
ATOM     27  O   UNL     1       1.617  13.413  21.486  0.00  0.00    +0.000 OA
BRANCH  27  28
ATOM     28  C   UNL     1       2.018  14.713  21.047  0.00  0.00    +0.000 C 
BRANCH  28  30
ATOM     29  C   UNL     1      -0.033  15.619  19.903  0.00  0.00    +0.000 C 
ATOM     30  C   UNL     1       0.836  15.671  21.161  0.00  0.00    +0.000 C 
ATOM     31  C   UNL     1       0.013  15.338  22.402  0.00  0.00    +0.000 C 
ENDBRANCH  28  30
ENDBRANCH  27  28
ENDBRANCH   1  27
TORSDOF 6
ENDMDL
MODEL 5
REMARK VINA RESULT:      -6.4      3.035      8.753
REMARK  Name = 
REMARK  8 active torsions:
REMARK  status: ('A' for Active; 'I' for Inactive)
REMARK    1  A    between atoms: C_1  and  C_2
REMARK    2  A    between atoms: C_2  and  C_3
REMARK    3  A    between atoms: C_2  and  C_4
REMARK    4  A    between atoms: C_4  and  O_5
REMARK    5  A    between atoms: O_5  and  N_6
REMARK    6  A    between atoms: C_9  and  O_10
REMARK    7  A    between atoms: C_11  and  O_12
REMARK    8  A    between atoms: N_20  and  C_21
REMARK                            x       y       z     vdW  Elec       q    Type
REMARK                         _______ _______ _______ _____ _____    ______ ____
ROOT
ATOM      1  N   UNL     1       0.126   9.794  18.830  0.00  0.00    +0.000 NA
ATOM      2  C   UNL     1       0.127  11.084  18.875  0.00  0.00    +0.000 C 
ATOM      3  C   UNL     1       1.296  11.947  19.279  0.00  0.00    +0.000 C 
ATOM      4  C   UNL     1       0.982  12.430  20.692  0.00  0.00    +0.000 C 
ATOM      5  C   UNL     1      -0.431  13.074  20.784  0.00  0.00    +0.000 C 
ATOM      6  C   UNL     1      -1.580  12.155  20.240  0.00  0.00    +0.000 C 
ATOM      7  C   UNL     1      -1.212  11.806  18.778  0.00  0.00    +0.000 C 
ATOM      8  C   UNL     1      -2.246  10.949  18.069  0.00  0.00    +0.000 C 
ATOM      9  C   UNL     1      -3.671  11.443  18.160  0.00  0.00    +0.000 C 
ATOM     10  C   UNL     1      -3.990  12.441  19.259  0.00  0.00    +0.000 C 
ATOM     11  C   UNL     1      -5.190  12.020  20.084  0.00  0.00    +0.000 C 
ATOM     12  O   UNL     1      -6.089  11.290  19.698  0.00  0.00    +0.000 OA
ATOM     13  N   UNL     1      -5.106  12.618  21.312  0.00  0.00    +0.000 N 
ATOM     14  C   UNL     1      -3.755  12.601  21.608  0.00  0.00    +0.000 C 
ATOM     15  O   UNL     1      -3.289  12.355  22.707  0.00  0.00    +0.000 OA
ATOM     16  C   UNL     1      -2.960  12.830  20.322  0.00  0.00    +0.000 C 
ENDROOT
BRANCH  13  17
ATOM     17  C   UNL     1      -5.802  13.916  21.392  0.00  0.00    +0.000 C 
ATOM     18  C   UNL     1      -7.345  13.798  21.403  0.00  0.00    +0.000 C 
ATOM     19  C   UNL     1      -7.913  13.369  22.753  0.00  0.00    +0.000 C 
ATOM     20  C   UNL     1      -7.412  14.257  23.885  0.00  0.00    +0.000 C 
ATOM     21  C   UNL     1      -5.890  14.352  23.901  0.00  0.00    +0.000 C 
ATOM     22  C   UNL     1      -5.343  14.811  22.556  0.00  0.00    +0.000 C 
ENDBRANCH  13  17
BRANCH   4  23
ATOM     23  O   UNL     1       1.105  11.365  21.643  0.00  0.00    +0.000 OA
ATOM     24  H   UNL     1       1.023  11.732  22.545  0.00  0.00    +0.000 HD
ENDBRANCH   4  23
BRANCH   5  25
ATOM     25  O   UNL     1      -0.690  13.509  22.111  0.00  0.00    +0.000 OA
ATOM     26  H   UNL     1      -0.578  12.738  22.703  0.00  0.00    +0.000 HD
ENDBRANCH   5  25
BRANCH   1  27
ATOM     27  O   UNL     1       1.351   9.237  19.190  0.00  0.00    +0.000 OA
BRANCH  27  28
ATOM     28  C   UNL     1       2.013   8.849  17.982  0.00  0.00    +0.000 C 
BRANCH  28  30
ATOM     29  C   UNL     1       3.865   7.203  17.535  0.00  0.00    +0.000 C 
ATOM     30  C   UNL     1       2.453   7.392  18.095  0.00  0.00    +0.000 C 
ATOM     31  C   UNL     1       2.383   6.937  19.549  0.00  0.00    +0.000 C 
ENDBRANCH  28  30
ENDBRANCH  27  28
ENDBRANCH   1  27
TORSDOF 6
ENDMDL
MODEL 6
REMARK VINA RESULT:      -6.1      0.890      1.297
REMARK  Name = 
REMARK  8 active torsions:
REMARK  status: ('A' for Active; 'I' for Inactive)
REMARK    1  A    between atoms: C_1  and  C_2
REMARK    2  A    between atoms: C_2  and  C_3
REMARK    3  A    between atoms: C_2  and  C_4
REMARK    4  A    between atoms: C_4  and  O_5
REMARK    5  A    between atoms: O_5  and  N_6
REMARK    6  A    between atoms: C_9  and  O_10
REMARK    7  A    between atoms: C_11  and  O_12
REMARK    8  A    between atoms: N_20  and  C_21
REMARK                            x       y       z     vdW  Elec       q    Type
REMARK                         _______ _______ _______ _____ _____    ______ ____
ROOT
ATOM      1  N   UNL     1      -1.903  11.323  20.428  0.00  0.00    +0.000 NA
ATOM      2  C   UNL     1      -0.662  11.670  20.512  0.00  0.00    +0.000 C 
ATOM      3  C   UNL     1      -0.091  12.998  20.080  0.00  0.00    +0.000 C 
ATOM      4  C   UNL     1       0.628  12.726  18.762  0.00  0.00    +0.000 C 
ATOM      5  C   UNL     1       1.625  11.537  18.881  0.00  0.00    +0.000 C 
ATOM      6  C   UNL     1       0.978  10.225  19.445  0.00  0.00    +0.000 C 
ATOM      7  C   UNL     1       0.365  10.588  20.818  0.00  0.00    +0.000 C 
ATOM      8  C   UNL     1      -0.273   9.415  21.540  0.00  0.00    +0.000 C 
ATOM      9  C   UNL     1       0.583   8.173  21.645  0.00  0.00    +0.000 C 
ATOM     10  C   UNL     1       1.759   8.059  20.691  0.00  0.00    +0.000 C 
ATOM     11  C   UNL     1       1.771   6.733  19.955  0.00  0.00    +0.000 C 
ATOM     12  O   UNL     1       1.258   5.700  20.356  0.00  0.00    +0.000 OA
ATOM     13  N   UNL     1       2.473   6.888  18.791  0.00  0.00    +0.000 N 
ATOM     14  C   UNL     1       2.141   8.159  18.358  0.00  0.00    +0.000 C 
ATOM     15  O   UNL     1       1.922   8.461  17.198  0.00  0.00    +0.000 OA
ATOM     16  C   UNL     1       1.994   9.076  19.572  0.00  0.00    +0.000 C 
ENDROOT
BRANCH  13  17
ATOM     17  C   UNL     1       3.908   6.566  18.914  0.00  0.00    +0.000 C 
ATOM     18  C   UNL     1       4.185   5.164  19.508  0.00  0.00    +0.000 C 
ATOM     19  C   UNL     1       3.978   4.028  18.511  0.00  0.00    +0.000 C 
ATOM     20  C   UNL     1       4.762   4.255  17.225  0.00  0.00    +0.000 C 
ATOM     21  C   UNL     1       4.470   5.622  16.614  0.00  0.00    +0.000 C 
ATOM     22  C   UNL     1       4.711   6.745  17.614  0.00  0.00    +0.000 C 
ENDBRANCH  13  17
BRANCH   4  23
ATOM     23  O   UNL     1      -0.305  12.487  17.702  0.00  0.00    +0.000 OA
ATOM     24  H   UNL     1       0.188  12.285  16.882  0.00  0.00    +0.000 HD
ENDBRANCH   4  23
BRANCH   5  25
ATOM     25  O   UNL     1       2.273  11.311  17.637  0.00  0.00    +0.000 OA
ATOM     26  H   UNL     1       2.413  12.181  17.212  0.00  0.00    +0.000 HD
ENDBRANCH   5  25
BRANCH   1  27
ATOM     27  O   UNL     1      -2.712  12.323  19.890  0.00  0.00    +0.000 OA
BRANCH  27  28
ATOM     28  C   UNL     1      -3.654  12.696  20.899  0.00  0.00    +0.000 C 
BRANCH  28  30
ATOM     29  C   UNL     1      -5.169  12.135  18.968  0.00  0.00    +0.000 C 
ATOM     30  C   UNL     1      -5.011  12.953  20.251  0.00  0.00    +0.000 C 
ATOM     31  C   UNL     1      -6.130  12.632  21.238  0.00  0.00    +0.000 C 
ENDBRANCH  28  30
ENDBRANCH  27  28
ENDBRANCH   1  27
TORSDOF 6
ENDMDL
MODEL 7
REMARK VINA RESULT:      -6.1      1.331      1.994
REMARK  Name = 
REMARK  8 active torsions:
REMARK  status: ('A' for Active; 'I' for Inactive)
REMARK    1  A    between atoms: C_1  and  C_2
REMARK    2  A    between atoms: C_2  and  C_3
REMARK    3  A    between atoms: C_2  and  C_4
REMARK    4  A    between atoms: C_4  and  O_5
REMARK    5  A    between atoms: O_5  and  N_6
REMARK    6  A    between atoms: C_9  and  O_10
REMARK    7  A    between atoms: C_11  and  O_12
REMARK    8  A    between atoms: N_20  and  C_21
REMARK                            x       y       z     vdW  Elec       q    Type
REMARK                         _______ _______ _______ _____ _____    ______ ____
ROOT
ATOM      1  N   UNL     1      -1.865  11.445  20.455  0.00  0.00    +0.000 NA
ATOM      2  C   UNL     1      -0.621  11.789  20.481  0.00  0.00    +0.000 C 
ATOM      3  C   UNL     1      -0.061  13.096  19.978  0.00  0.00    +0.000 C 
ATOM      4  C   UNL     1       0.608  12.770  18.645  0.00  0.00    +0.000 C 
ATOM      5  C   UNL     1       1.604  11.582  18.773  0.00  0.00    +0.000 C 
ATOM      6  C   UNL     1       0.973  10.295  19.410  0.00  0.00    +0.000 C 
ATOM      7  C   UNL     1       0.413  10.713  20.790  0.00  0.00    +0.000 C 
ATOM      8  C   UNL     1      -0.203   9.571  21.579  0.00  0.00    +0.000 C 
ATOM      9  C   UNL     1       0.652   8.331  21.701  0.00  0.00    +0.000 C 
ATOM     10  C   UNL     1       1.791   8.174  20.709  0.00  0.00    +0.000 C 
ATOM     11  C   UNL     1       1.771   6.821  20.024  0.00  0.00    +0.000 C 
ATOM     12  O   UNL     1       1.270   5.807  20.482  0.00  0.00    +0.000 OA
ATOM     13  N   UNL     1       2.432   6.928  18.830  0.00  0.00    +0.000 N 
ATOM     14  C   UNL     1       2.089   8.184  18.362  0.00  0.00    +0.000 C 
ATOM     15  O   UNL     1       1.828   8.442  17.200  0.00  0.00    +0.000 OA
ATOM     16  C   UNL     1       1.989   9.147  19.545  0.00  0.00    +0.000 C 
ENDROOT
BRANCH  13  17
ATOM     17  C   UNL     1       3.868   6.604  18.913  0.00  0.00    +0.000 C 
ATOM     18  C   UNL     1       4.161   5.218  19.538  0.00  0.00    +0.000 C 
ATOM     19  C   UNL     1       3.916   4.054  18.582  0.00  0.00    +0.000 C 
ATOM     20  C   UNL     1       4.656   4.242  17.264  0.00  0.00    +0.000 C 
ATOM     21  C   UNL     1       4.348   5.591  16.624  0.00  0.00    +0.000 C 
ATOM     22  C   UNL     1       4.627   6.742  17.582  0.00  0.00    +0.000 C 
ENDBRANCH  13  17
BRANCH   4  23
ATOM     23  O   UNL     1      -0.363  12.496  17.630  0.00  0.00    +0.000 OA
ATOM     24  H   UNL     1      -0.330  13.203  16.956  0.00  0.00    +0.000 HD
ENDBRANCH   4  23
BRANCH   5  25
ATOM     25  O   UNL     1       2.206  11.305  17.517  0.00  0.00    +0.000 OA
ATOM     26  H   UNL     1       2.420  10.350  17.494  0.00  0.00    +0.000 HD
ENDBRANCH   5  25
BRANCH   1  27
ATOM     27  O   UNL     1      -2.689  12.428  19.909  0.00  0.00    +0.000 OA
BRANCH  27  28
ATOM     28  C   UNL     1      -3.773  12.628  20.821  0.00  0.00    +0.000 C 
BRANCH  28  30
ATOM     29  C   UNL     1      -3.674  14.804  22.085  0.00  0.00    +0.000 C 
ATOM     30  C   UNL     1      -3.254  13.333  22.072  0.00  0.00    +0.000 C 
ATOM     31  C   UNL     1      -3.758  12.616  23.321  0.00  0.00    +0.000 C 
ENDBRANCH  28  30
ENDBRANCH  27  28
ENDBRANCH   1  27
TORSDOF 6
ENDMDL
MODEL 8
REMARK VINA RESULT:      -5.9      2.939      8.707
REMARK  Name = 
REMARK  8 active torsions:
REMARK  status: ('A' for Active; 'I' for Inactive)
REMARK    1  A    between atoms: C_1  and  C_2
REMARK    2  A    between atoms: C_2  and  C_3
REMARK    3  A    between atoms: C_2  and  C_4
REMARK    4  A    between atoms: C_4  and  O_5
REMARK    5  A    between atoms: O_5  and  N_6
REMARK    6  A    between atoms: C_9  and  O_10
REMARK    7  A    between atoms: C_11  and  O_12
REMARK    8  A    between atoms: N_20  and  C_21
REMARK                            x       y       z     vdW  Elec       q    Type
REMARK                         _______ _______ _______ _____ _____    ______ ____
ROOT
ATOM      1  N   UNL     1       0.115   9.999  18.809  0.00  0.00    +0.000 NA
ATOM      2  C   UNL     1      -0.041  11.281  18.791  0.00  0.00    +0.000 C 
ATOM      3  C   UNL     1       0.990  12.297  19.214  0.00  0.00    +0.000 C 
ATOM      4  C   UNL     1       0.536  12.796  20.583  0.00  0.00    +0.000 C 
ATOM      5  C   UNL     1      -0.947  13.265  20.566  0.00  0.00    +0.000 C 
ATOM      6  C   UNL     1      -1.943  12.190  20.006  0.00  0.00    +0.000 C 
ATOM      7  C   UNL     1      -1.449  11.827  18.586  0.00  0.00    +0.000 C 
ATOM      8  C   UNL     1      -2.328  10.821  17.865  0.00  0.00    +0.000 C 
ATOM      9  C   UNL     1      -3.805  11.139  17.854  0.00  0.00    +0.000 C 
ATOM     10  C   UNL     1      -4.307  12.136  18.883  0.00  0.00    +0.000 C 
ATOM     11  C   UNL     1      -5.495  11.606  19.662  0.00  0.00    +0.000 C 
ATOM     12  O   UNL     1      -6.275  10.755  19.264  0.00  0.00    +0.000 OA
ATOM     13  N   UNL     1      -5.557  12.260  20.862  0.00  0.00    +0.000 N 
ATOM     14  C   UNL     1      -4.233  12.422  21.231  0.00  0.00    +0.000 C 
ATOM     15  O   UNL     1      -3.808  12.282  22.364  0.00  0.00    +0.000 OA
ATOM     16  C   UNL     1      -3.397  12.693  19.980  0.00  0.00    +0.000 C 
ENDROOT
BRANCH  13  17
ATOM     17  C   UNL     1      -6.407  13.465  20.840  0.00  0.00    +0.000 C 
ATOM     18  C   UNL     1      -7.840  13.229  21.376  0.00  0.00    +0.000 C 
ATOM     19  C   UNL     1      -7.916  13.158  22.899  0.00  0.00    +0.000 C 
ATOM     20  C   UNL     1      -7.267  14.371  23.554  0.00  0.00    +0.000 C 
ATOM     21  C   UNL     1      -5.842  14.592  23.055  0.00  0.00    +0.000 C 
ATOM     22  C   UNL     1      -5.790  14.690  21.537  0.00  0.00    +0.000 C 
ENDBRANCH  13  17
BRANCH   4  23
ATOM     23  O   UNL     1       0.729  11.796  21.590  0.00  0.00    +0.000 OA
ATOM     24  H   UNL     1      -0.007  11.843  22.232  0.00  0.00    +0.000 HD
ENDBRANCH   4  23
BRANCH   5  25
ATOM     25  O   UNL     1      -1.336  13.720  21.854  0.00  0.00    +0.000 OA
ATOM     26  H   UNL     1      -0.925  13.128  22.516  0.00  0.00    +0.000 HD
ENDBRANCH   5  25
BRANCH   1  27
ATOM     27  O   UNL     1       1.376   9.613  19.261  0.00  0.00    +0.000 OA
BRANCH  27  28
ATOM     28  C   UNL     1       1.194   8.469  20.100  0.00  0.00    +0.000 C 
BRANCH  28  30
ATOM     29  C   UNL     1       1.813   6.031  20.221  0.00  0.00    +0.000 C 
ATOM     30  C   UNL     1       2.254   7.423  19.764  0.00  0.00    +0.000 C 
ATOM     31  C   UNL     1       2.542   7.436  18.266  0.00  0.00    +0.000 C 
ENDBRANCH  28  30
ENDBRANCH  27  28
ENDBRANCH   1  27
TORSDOF 6
ENDMDL
MODEL 9
REMARK VINA RESULT:      -5.9      2.545      8.423
REMARK  Name = 
REMARK  8 active torsions:
REMARK  status: ('A' for Active; 'I' for Inactive)
REMARK    1  A    between atoms: C_1  and  C_2
REMARK    2  A    between atoms: C_2  and  C_3
REMARK    3  A    between atoms: C_2  and  C_4
REMARK    4  A    between atoms: C_4  and  O_5
REMARK    5  A    between atoms: O_5  and  N_6
REMARK    6  A    between atoms: C_9  and  O_10
REMARK    7  A    between atoms: C_11  and  O_12
REMARK    8  A    between atoms: N_20  and  C_21
REMARK                            x       y       z     vdW  Elec       q    Type
REMARK                         _______ _______ _______ _____ _____    ______ ____
ROOT
ATOM      1  N   UNL     1       0.718   9.288  18.971  0.00  0.00    +0.000 NA
ATOM      2  C   UNL     1       0.669  10.534  18.637  0.00  0.00    +0.000 C 
ATOM      3  C   UNL     1       1.747  11.556  18.900  0.00  0.00    +0.000 C 
ATOM      4  C   UNL     1       1.239  12.398  20.067  0.00  0.00    +0.000 C 
ATOM      5  C   UNL     1      -0.195  12.942  19.808  0.00  0.00    +0.000 C 
ATOM      6  C   UNL     1      -1.233  11.828  19.430  0.00  0.00    +0.000 C 
ATOM      7  C   UNL     1      -0.670  11.103  18.185  0.00  0.00    +0.000 C 
ATOM      8  C   UNL     1      -1.575  10.009  17.645  0.00  0.00    +0.000 C 
ATOM      9  C   UNL     1      -3.017  10.408  17.428  0.00  0.00    +0.000 C 
ATOM     10  C   UNL     1      -3.508  11.654  18.144  0.00  0.00    +0.000 C 
ATOM     11  C   UNL     1      -4.788  11.403  18.917  0.00  0.00    +0.000 C 
ATOM     12  O   UNL     1      -5.605  10.532  18.662  0.00  0.00    +0.000 OA
ATOM     13  N   UNL     1      -4.881  12.330  19.919  0.00  0.00    +0.000 N 
ATOM     14  C   UNL     1      -3.579  12.493  20.356  0.00  0.00    +0.000 C 
ATOM     15  O   UNL     1      -3.249  12.604  21.523  0.00  0.00    +0.000 OA
ATOM     16  C   UNL     1      -2.635  12.400  19.156  0.00  0.00    +0.000 C 
ENDROOT
BRANCH  13  17
ATOM     17  C   UNL     1      -5.626  13.545  19.538  0.00  0.00    +0.000 C 
ATOM     18  C   UNL     1      -7.157  13.338  19.448  0.00  0.00    +0.000 C 
ATOM     19  C   UNL     1      -7.847  13.297  20.809  0.00  0.00    +0.000 C 
ATOM     20  C   UNL     1      -7.496  14.514  21.656  0.00  0.00    +0.000 C 
ATOM     21  C   UNL     1      -5.988  14.707  21.777  0.00  0.00    +0.000 C 
ATOM     22  C   UNL     1      -5.321  14.775  20.410  0.00  0.00    +0.000 C 
ENDBRANCH  13  17
BRANCH   4  23
ATOM     23  O   UNL     1       1.276  11.661  21.294  0.00  0.00    +0.000 OA
ATOM     24  H   UNL     1       1.829  10.864  21.171  0.00  0.00    +0.000 HD
ENDBRANCH   4  23
BRANCH   5  25
ATOM     25  O   UNL     1      -0.637  13.718  20.912  0.00  0.00    +0.000 OA
ATOM     26  H   UNL     1      -1.534  13.411  21.151  0.00  0.00    +0.000 HD
ENDBRANCH   5  25
BRANCH   1  27
ATOM     27  O   UNL     1       1.906   8.943  19.612  0.00  0.00    +0.000 OA
BRANCH  27  28
ATOM     28  C   UNL     1       1.990   7.516  19.613  0.00  0.00    +0.000 C 
BRANCH  28  30
ATOM     29  C   UNL     1       3.581   7.573  17.663  0.00  0.00    +0.000 C 
ATOM     30  C   UNL     1       2.255   7.025  18.193  0.00  0.00    +0.000 C 
ATOM     31  C   UNL     1       2.247   5.499  18.158  0.00  0.00    +0.000 C 
ENDBRANCH  28  30
ENDBRANCH  27  28
ENDBRANCH   1  27
TORSDOF 6
ENDMDL
