MODEL 1
REMARK VINA RESULT:      -8.7      0.000      0.000
REMARK  Name = 
REMARK  7 active torsions:
REMARK  status: ('A' for Active; 'I' for Inactive)
REMARK    1  A    between atoms: C_1  and  O_2
REMARK    2  A    between atoms: O_2  and  C_3
REMARK    3  A    between atoms: C_6  and  C_7
REMARK    4  A    between atoms: C_8  and  C_9
REMARK    5  A    between atoms: C_12  and  S_13
REMARK    6  A    between atoms: S_13  and  N_14
REMARK    7  A    between atoms: C_26  and  C_27
REMARK                            x       y       z     vdW  Elec       q    Type
REMARK                         _______ _______ _______ _____ _____    ______ ____
ROOT
ATOM      1  C   UNL     1       3.144   4.507  18.843  0.00  0.00    +0.000 A 
ATOM      2  C   UNL     1       2.024   5.159  19.463  0.00  0.00    +0.000 A 
ATOM      3  C   UNL     1       0.991   4.353  20.007  0.00  0.00    +0.000 A 
ATOM      4  C   UNL     1       1.017   2.961  19.929  0.00  0.00    +0.000 A 
ATOM      5  C   UNL     1       2.068   2.345  19.280  0.00  0.00    +0.000 A 
ATOM      6  F   UNL     1       2.084   1.008  19.179  0.00  0.00    +0.000 F 
ATOM      7  C   UNL     1       3.110   3.095  18.749  0.00  0.00    +0.000 A 
ATOM      8  F   UNL     1       4.114   2.426  18.159  0.00  0.00    +0.000 F 
ENDROOT
BRANCH   1  12
ATOM      9  C   UNL     1       6.664   6.594  17.408  0.00  0.00    +0.000 A 
ATOM     10  C   UNL     1       5.467   6.637  16.699  0.00  0.00    +0.000 A 
ATOM     11  C   UNL     1       4.322   6.030  17.210  0.00  0.00    +0.000 A 
ATOM     12  C   UNL     1       4.361   5.222  18.356  0.00  0.00    +0.000 A 
ATOM     13  C   UNL     1       5.597   5.138  19.025  0.00  0.00    +0.000 A 
ATOM     14  C   UNL     1       6.731   5.857  18.598  0.00  0.00    +0.000 A 
ATOM     15  C   UNL     1       7.979   5.832  19.437  0.00  0.00    +0.000 C 
BRANCH   9  17
ATOM     16  C   UNL     1       7.956   8.558  17.552  0.00  0.00    +0.000 C 
ATOM     17  O   UNL     1       7.798   7.249  17.004  0.00  0.00    +0.000 OA
ENDBRANCH   9  17
ENDBRANCH   1  12
BRANCH   2  18
ATOM     18  C   UNL     1       1.887   6.641  19.591  0.00  0.00    +0.000 A 
ATOM     19  C   UNL     1       1.629   7.253  20.833  0.00  0.00    +0.000 A 
ATOM     20  C   UNL     1       1.320   8.610  20.927  0.00  0.00    +0.000 A 
ATOM     21  C   UNL     1       1.375   9.405  19.785  0.00  0.00    +0.000 A 
ATOM     22  C   UNL     1       1.704   8.852  18.551  0.00  0.00    +0.000 A 
ATOM     23  C   UNL     1       1.946   7.479  18.457  0.00  0.00    +0.000 A 
BRANCH  21  24
ATOM     24  S   UNL     1       1.027  11.127  19.923  0.00  0.00    +0.000 S 
ATOM     25  O   UNL     1       1.065  11.522  21.316  0.00  0.00    +0.000 OA
ATOM     26  O   UNL     1       1.739  11.841  18.892  0.00  0.00    +0.000 OA
BRANCH  24  27
ATOM     27  N   UNL     1      -0.591  11.150  19.475  0.00  0.00    +0.000 NA
ATOM     28  H   UNL     1      -1.136  11.681  20.152  0.00  0.00    +0.000 HD
ATOM     29  H   UNL     1      -0.689  11.460  18.508  0.00  0.00    +0.000 HD
ENDBRANCH  24  27
ENDBRANCH  21  24
ENDBRANCH   2  18
TORSDOF 5
ENDMDL
MODEL 2
REMARK VINA RESULT:      -8.7      0.410      1.354
REMARK  Name = 
REMARK  7 active torsions:
REMARK  status: ('A' for Active; 'I' for Inactive)
REMARK    1  A    between atoms: C_1  and  O_2
REMARK    2  A    between atoms: O_2  and  C_3
REMARK    3  A    between atoms: C_6  and  C_7
REMARK    4  A    between atoms: C_8  and  C_9
REMARK    5  A    between atoms: C_12  and  S_13
REMARK    6  A    between atoms: S_13  and  N_14
REMARK    7  A    between atoms: C_26  and  C_27
REMARK                            x       y       z     vdW  Elec       q    Type
REMARK                         _______ _______ _______ _____ _____    ______ ____
ROOT
ATOM      1  C   UNL     1       3.045   4.406  19.042  0.00  0.00    +0.000 A 
ATOM      2  C   UNL     1       1.956   5.088  19.685  0.00  0.00    +0.000 A 
ATOM      3  C   UNL     1       0.940   4.311  20.297  0.00  0.00    +0.000 A 
ATOM      4  C   UNL     1       0.953   2.917  20.266  0.00  0.00    +0.000 A 
ATOM      5  C   UNL     1       1.972   2.270  19.596  0.00  0.00    +0.000 A 
ATOM      6  F   UNL     1       1.973   0.930  19.540  0.00  0.00    +0.000 F 
ATOM      7  C   UNL     1       2.996   2.993  18.997  0.00  0.00    +0.000 A 
ATOM      8  F   UNL     1       3.970   2.295  18.390  0.00  0.00    +0.000 F 
ENDROOT
BRANCH   1  12
ATOM      9  C   UNL     1       6.546   6.399  17.436  0.00  0.00    +0.000 A 
ATOM     10  C   UNL     1       6.513   5.961  18.757  0.00  0.00    +0.000 A 
ATOM     11  C   UNL     1       5.416   5.251  19.239  0.00  0.00    +0.000 A 
ATOM     12  C   UNL     1       4.245   5.093  18.481  0.00  0.00    +0.000 A 
ATOM     13  C   UNL     1       4.273   5.600  17.167  0.00  0.00    +0.000 A 
ATOM     14  C   UNL     1       5.425   6.198  16.618  0.00  0.00    +0.000 A 
ATOM     15  C   UNL     1       5.431   6.591  15.167  0.00  0.00    +0.000 C 
BRANCH   9  17
ATOM     16  C   UNL     1       8.032   8.222  17.533  0.00  0.00    +0.000 C 
ATOM     17  O   UNL     1       7.634   7.018  16.878  0.00  0.00    +0.000 OA
ENDBRANCH   9  17
ENDBRANCH   1  12
BRANCH   2  18
ATOM     18  C   UNL     1       1.836   6.575  19.767  0.00  0.00    +0.000 A 
ATOM     19  C   UNL     1       1.492   7.221  20.971  0.00  0.00    +0.000 A 
ATOM     20  C   UNL     1       1.200   8.585  21.010  0.00  0.00    +0.000 A 
ATOM     21  C   UNL     1       1.359   9.351  19.858  0.00  0.00    +0.000 A 
ATOM     22  C   UNL     1       1.773   8.763  18.666  0.00  0.00    +0.000 A 
ATOM     23  C   UNL     1       1.998   7.384  18.623  0.00  0.00    +0.000 A 
BRANCH  21  24
ATOM     24  S   UNL     1       1.030  11.081  19.928  0.00  0.00    +0.000 S 
ATOM     25  O   UNL     1       1.205  11.555  21.286  0.00  0.00    +0.000 OA
ATOM     26  O   UNL     1       1.642  11.728  18.794  0.00  0.00    +0.000 OA
BRANCH  24  27
ATOM     27  N   UNL     1      -0.623  11.092  19.639  0.00  0.00    +0.000 NA
ATOM     28  H   UNL     1      -1.131  11.244  20.508  0.00  0.00    +0.000 HD
ATOM     29  H   UNL     1      -0.849  11.748  18.891  0.00  0.00    +0.000 HD
ENDBRANCH  24  27
ENDBRANCH  21  24
ENDBRANCH   2  18
TORSDOF 5
ENDMDL
MODEL 3
REMARK VINA RESULT:      -8.5      1.202      1.350
REMARK  Name = 
REMARK  7 active torsions:
REMARK  status: ('A' for Active; 'I' for Inactive)
REMARK    1  A    between atoms: C_1  and  O_2
REMARK    2  A    between atoms: O_2  and  C_3
REMARK    3  A    between atoms: C_6  and  C_7
REMARK    4  A    between atoms: C_8  and  C_9
REMARK    5  A    between atoms: C_12  and  S_13
REMARK    6  A    between atoms: S_13  and  N_14
REMARK    7  A    between atoms: C_26  and  C_27
REMARK                            x       y       z     vdW  Elec       q    Type
REMARK                         _______ _______ _______ _____ _____    ______ ____
ROOT
ATOM      1  C   UNL     1       3.015   4.096  18.873  0.00  0.00    +0.000 A 
ATOM      2  C   UNL     1       2.073   4.964  19.523  0.00  0.00    +0.000 A 
ATOM      3  C   UNL     1       1.114   4.387  20.395  0.00  0.00    +0.000 A 
ATOM      4  C   UNL     1       1.042   3.012  20.613  0.00  0.00    +0.000 A 
ATOM      5  C   UNL     1       1.914   2.179  19.939  0.00  0.00    +0.000 A 
ATOM      6  F   UNL     1       1.831   0.854  20.124  0.00  0.00    +0.000 F 
ATOM      7  C   UNL     1       2.880   2.704  19.089  0.00  0.00    +0.000 A 
ATOM      8  F   UNL     1       3.713   1.836  18.492  0.00  0.00    +0.000 F 
ENDROOT
BRANCH   1  12
ATOM      9  C   UNL     1       6.323   5.490  16.440  0.00  0.00    +0.000 A 
ATOM     10  C   UNL     1       5.199   4.909  15.857  0.00  0.00    +0.000 A 
ATOM     11  C   UNL     1       4.109   4.539  16.641  0.00  0.00    +0.000 A 
ATOM     12  C   UNL     1       4.158   4.578  18.043  0.00  0.00    +0.000 A 
ATOM     13  C   UNL     1       5.329   5.109  18.617  0.00  0.00    +0.000 A 
ATOM     14  C   UNL     1       6.385   5.616  17.834  0.00  0.00    +0.000 A 
ATOM     15  C   UNL     1       7.544   6.295  18.510  0.00  0.00    +0.000 C 
BRANCH   9  17
ATOM     16  C   UNL     1       7.556   5.338  14.439  0.00  0.00    +0.000 C 
ATOM     17  O   UNL     1       7.385   5.960  15.713  0.00  0.00    +0.000 OA
ENDBRANCH   9  17
ENDBRANCH   1  12
BRANCH   2  18
ATOM     18  C   UNL     1       2.051   6.448  19.353  0.00  0.00    +0.000 A 
ATOM     19  C   UNL     1       1.805   7.310  20.440  0.00  0.00    +0.000 A 
ATOM     20  C   UNL     1       1.602   8.679  20.254  0.00  0.00    +0.000 A 
ATOM     21  C   UNL     1       1.755   9.226  18.983  0.00  0.00    +0.000 A 
ATOM     22  C   UNL     1       2.075   8.418  17.896  0.00  0.00    +0.000 A 
ATOM     23  C   UNL     1       2.211   7.039  18.082  0.00  0.00    +0.000 A 
BRANCH  21  24
ATOM     24  S   UNL     1       1.541  10.962  18.767  0.00  0.00    +0.000 S 
ATOM     25  O   UNL     1       1.310  11.588  20.053  0.00  0.00    +0.000 OA
ATOM     26  O   UNL     1       2.522  11.449  17.829  0.00  0.00    +0.000 OA
BRANCH  24  27
ATOM     27  N   UNL     1       0.068  10.992  17.962  0.00  0.00    +0.000 NA
ATOM     28  H   UNL     1      -0.629  11.480  18.522  0.00  0.00    +0.000 HD
ATOM     29  H   UNL     1       0.187  11.354  17.016  0.00  0.00    +0.000 HD
ENDBRANCH  24  27
ENDBRANCH  21  24
ENDBRANCH   2  18
TORSDOF 5
ENDMDL
MODEL 4
REMARK VINA RESULT:      -8.3      1.150      1.272
REMARK  Name = 
REMARK  7 active torsions:
REMARK  status: ('A' for Active; 'I' for Inactive)
REMARK    1  A    between atoms: C_1  and  O_2
REMARK    2  A    between atoms: O_2  and  C_3
REMARK    3  A    between atoms: C_6  and  C_7
REMARK    4  A    between atoms: C_8  and  C_9
REMARK    5  A    between atoms: C_12  and  S_13
REMARK    6  A    between atoms: S_13  and  N_14
REMARK    7  A    between atoms: C_26  and  C_27
REMARK                            x       y       z     vdW  Elec       q    Type
REMARK                         _______ _______ _______ _____ _____    ______ ____
ROOT
ATOM      1  C   UNL     1       3.603   4.775  17.984  0.00  0.00    +0.000 A 
ATOM      2  C   UNL     1       2.338   5.276  18.444  0.00  0.00    +0.000 A 
ATOM      3  C   UNL     1       1.262   4.362  18.589  0.00  0.00    +0.000 A 
ATOM      4  C   UNL     1       1.389   3.011  18.271  0.00  0.00    +0.000 A 
ATOM      5  C   UNL     1       2.592   2.549  17.774  0.00  0.00    +0.000 A 
ATOM      6  F   UNL     1       2.710   1.255  17.441  0.00  0.00    +0.000 F 
ATOM      7  C   UNL     1       3.676   3.406  17.633  0.00  0.00    +0.000 A 
ATOM      8  F   UNL     1       4.823   2.879  17.172  0.00  0.00    +0.000 F 
ENDROOT
BRANCH   1  12
ATOM      9  C   UNL     1       7.214   7.166  17.773  0.00  0.00    +0.000 A 
ATOM     10  C   UNL     1       6.135   7.422  16.930  0.00  0.00    +0.000 A 
ATOM     11  C   UNL     1       4.951   6.700  17.062  0.00  0.00    +0.000 A 
ATOM     12  C   UNL     1       4.850   5.593  17.917  0.00  0.00    +0.000 A 
ATOM     13  C   UNL     1       5.975   5.309  18.716  0.00  0.00    +0.000 A 
ATOM     14  C   UNL     1       7.131   6.115  18.695  0.00  0.00    +0.000 A 
ATOM     15  C   UNL     1       8.239   5.838  19.672  0.00  0.00    +0.000 C 
BRANCH   9  17
ATOM     16  C   UNL     1       8.187   9.301  17.979  0.00  0.00    +0.000 C 
ATOM     17  O   UNL     1       8.370   7.903  17.755  0.00  0.00    +0.000 OA
ENDBRANCH   9  17
ENDBRANCH   1  12
BRANCH   2  18
ATOM     18  C   UNL     1       2.086   6.705  18.801  0.00  0.00    +0.000 A 
ATOM     19  C   UNL     1       1.918   7.111  20.139  0.00  0.00    +0.000 A 
ATOM     20  C   UNL     1       1.503   8.404  20.463  0.00  0.00    +0.000 A 
ATOM     21  C   UNL     1       1.359   9.349  19.450  0.00  0.00    +0.000 A 
ATOM     22  C   UNL     1       1.592   9.007  18.121  0.00  0.00    +0.000 A 
ATOM     23  C   UNL     1       1.942   7.692  17.803  0.00  0.00    +0.000 A 
BRANCH  21  24
ATOM     24  S   UNL     1       0.878  10.990  19.874  0.00  0.00    +0.000 S 
ATOM     25  O   UNL     1       1.806  11.937  19.289  0.00  0.00    +0.000 OA
ATOM     26  O   UNL     1      -0.552  11.118  19.737  0.00  0.00    +0.000 OA
BRANCH  24  27
ATOM     27  N   UNL     1       1.192  10.987  21.523  0.00  0.00    +0.000 NA
ATOM     28  H   UNL     1       1.188  10.033  21.880  0.00  0.00    +0.000 HD
ATOM     29  H   UNL     1       2.040  11.516  21.725  0.00  0.00    +0.000 HD
ENDBRANCH  24  27
ENDBRANCH  21  24
ENDBRANCH   2  18
TORSDOF 5
ENDMDL
MODEL 5
REMARK VINA RESULT:      -8.2      1.597      2.047
REMARK  Name = 
REMARK  7 active torsions:
REMARK  status: ('A' for Active; 'I' for Inactive)
REMARK    1  A    between atoms: C_1  and  O_2
REMARK    2  A    between atoms: O_2  and  C_3
REMARK    3  A    between atoms: C_6  and  C_7
REMARK    4  A    between atoms: C_8  and  C_9
REMARK    5  A    between atoms: C_12  and  S_13
REMARK    6  A    between atoms: S_13  and  N_14
REMARK    7  A    between atoms: C_26  and  C_27
REMARK                            x       y       z     vdW  Elec       q    Type
REMARK                         _______ _______ _______ _____ _____    ______ ____
ROOT
ATOM      1  C   UNL     1       3.588   4.120  19.598  0.00  0.00    +0.000 A 
ATOM      2  C   UNL     1       2.592   4.931  20.241  0.00  0.00    +0.000 A 
ATOM      3  C   UNL     1       1.948   4.420  21.397  0.00  0.00    +0.000 A 
ATOM      4  C   UNL     1       2.230   3.153  21.904  0.00  0.00    +0.000 A 
ATOM      5  C   UNL     1       3.146   2.356  21.247  0.00  0.00    +0.000 A 
ATOM      6  F   UNL     1       3.401   1.125  21.715  0.00  0.00    +0.000 F 
ATOM      7  C   UNL     1       3.813   2.824  20.121  0.00  0.00    +0.000 A 
ATOM      8  F   UNL     1       4.713   2.005  19.552  0.00  0.00    +0.000 F 
ENDROOT
BRANCH   1  12
ATOM      9  C   UNL     1       6.041   5.459  16.282  0.00  0.00    +0.000 A 
ATOM     10  C   UNL     1       4.961   4.605  16.076  0.00  0.00    +0.000 A 
ATOM     11  C   UNL     1       4.131   4.247  17.136  0.00  0.00    +0.000 A 
ATOM     12  C   UNL     1       4.438   4.585  18.463  0.00  0.00    +0.000 A 
ATOM     13  C   UNL     1       5.572   5.396  18.660  0.00  0.00    +0.000 A 
ATOM     14  C   UNL     1       6.342   5.882  17.584  0.00  0.00    +0.000 A 
ATOM     15  C   UNL     1       7.456   6.855  17.855  0.00  0.00    +0.000 C 
BRANCH   9  17
ATOM     16  C   UNL     1       7.154   4.949  14.270  0.00  0.00    +0.000 C 
ATOM     17  O   UNL     1       6.835   5.921  15.266  0.00  0.00    +0.000 OA
ENDBRANCH   9  17
ENDBRANCH   1  12
BRANCH   2  18
ATOM     18  C   UNL     1       2.202   6.297  19.777  0.00  0.00    +0.000 A 
ATOM     19  C   UNL     1       2.410   6.710  18.446  0.00  0.00    +0.000 A 
ATOM     20  C   UNL     1       2.219   8.036  18.056  0.00  0.00    +0.000 A 
ATOM     21  C   UNL     1       1.706   8.951  18.971  0.00  0.00    +0.000 A 
ATOM     22  C   UNL     1       1.414   8.563  20.276  0.00  0.00    +0.000 A 
ATOM     23  C   UNL     1       1.672   7.248  20.674  0.00  0.00    +0.000 A 
BRANCH  21  24
ATOM     24  S   UNL     1       1.426  10.613  18.455  0.00  0.00    +0.000 S 
ATOM     25  O   UNL     1       1.219  11.456  19.615  0.00  0.00    +0.000 OA
ATOM     26  O   UNL     1       2.358  10.949  17.407  0.00  0.00    +0.000 OA
BRANCH  24  27
ATOM     27  N   UNL     1      -0.074  10.457  17.717  0.00  0.00    +0.000 NA
ATOM     28  H   UNL     1      -0.081   9.643  17.105  0.00  0.00    +0.000 HD
ATOM     29  H   UNL     1      -0.818  10.476  18.414  0.00  0.00    +0.000 HD
ENDBRANCH  24  27
ENDBRANCH  21  24
ENDBRANCH   2  18
TORSDOF 5
ENDMDL
MODEL 6
REMARK VINA RESULT:      -8.1      1.725      1.967
REMARK  Name = 
REMARK  7 active torsions:
REMARK  status: ('A' for Active; 'I' for Inactive)
REMARK    1  A    between atoms: C_1  and  O_2
REMARK    2  A    between atoms: O_2  and  C_3
REMARK    3  A    between atoms: C_6  and  C_7
REMARK    4  A    between atoms: C_8  and  C_9
REMARK    5  A    between atoms: C_12  and  S_13
REMARK    6  A    between atoms: S_13  and  N_14
REMARK    7  A    between atoms: C_26  and  C_27
REMARK                            x       y       z     vdW  Elec       q    Type
REMARK                         _______ _______ _______ _____ _____    ______ ____
ROOT
ATOM      1  C   UNL     1       3.689   4.106  19.721  0.00  0.00    +0.000 A 
ATOM      2  C   UNL     1       2.690   4.947  20.320  0.00  0.00    +0.000 A 
ATOM      3  C   UNL     1       1.945   4.436  21.414  0.00  0.00    +0.000 A 
ATOM      4  C   UNL     1       2.132   3.142  21.899  0.00  0.00    +0.000 A 
ATOM      5  C   UNL     1       3.053   2.320  21.281  0.00  0.00    +0.000 A 
ATOM      6  F   UNL     1       3.217   1.066  21.726  0.00  0.00    +0.000 F 
ATOM      7  C   UNL     1       3.816   2.787  20.217  0.00  0.00    +0.000 A 
ATOM      8  F   UNL     1       4.715   1.941  19.686  0.00  0.00    +0.000 F 
ENDROOT
BRANCH   1  12
ATOM      9  C   UNL     1       6.424   5.414  16.621  0.00  0.00    +0.000 A 
ATOM     10  C   UNL     1       5.350   4.579  16.324  0.00  0.00    +0.000 A 
ATOM     11  C   UNL     1       4.432   4.231  17.312  0.00  0.00    +0.000 A 
ATOM     12  C   UNL     1       4.635   4.560  18.660  0.00  0.00    +0.000 A 
ATOM     13  C   UNL     1       5.763   5.352  18.952  0.00  0.00    +0.000 A 
ATOM     14  C   UNL     1       6.625   5.829  17.944  0.00  0.00    +0.000 A 
ATOM     15  C   UNL     1       7.728   6.783  18.309  0.00  0.00    +0.000 C 
BRANCH   9  17
ATOM     16  C   UNL     1       7.165   5.257  14.391  0.00  0.00    +0.000 C 
ATOM     17  O   UNL     1       7.305   5.867  15.674  0.00  0.00    +0.000 OA
ENDBRANCH   9  17
ENDBRANCH   1  12
BRANCH   2  18
ATOM     18  C   UNL     1       2.397   6.342  19.874  0.00  0.00    +0.000 A 
ATOM     19  C   UNL     1       1.931   7.321  20.773  0.00  0.00    +0.000 A 
ATOM     20  C   UNL     1       1.484   8.566  20.329  0.00  0.00    +0.000 A 
ATOM     21  C   UNL     1       1.603   8.894  18.981  0.00  0.00    +0.000 A 
ATOM     22  C   UNL     1       2.132   7.982  18.072  0.00  0.00    +0.000 A 
ATOM     23  C   UNL     1       2.514   6.714  18.517  0.00  0.00    +0.000 A 
BRANCH  21  24
ATOM     24  S   UNL     1       1.077  10.486  18.438  0.00  0.00    +0.000 S 
ATOM     25  O   UNL     1      -0.098  10.353  17.602  0.00  0.00    +0.000 OA
ATOM     26  O   UNL     1       1.145  11.412  19.542  0.00  0.00    +0.000 OA
BRANCH  24  27
ATOM     27  N   UNL     1       2.340  10.892  17.408  0.00  0.00    +0.000 NA
ATOM     28  H   UNL     1       3.203  11.006  17.938  0.00  0.00    +0.000 HD
ATOM     29  H   UNL     1       2.396  10.229  16.635  0.00  0.00    +0.000 HD
ENDBRANCH  24  27
ENDBRANCH  21  24
ENDBRANCH   2  18
TORSDOF 5
ENDMDL
MODEL 7
REMARK VINA RESULT:      -7.9      0.565      1.082
REMARK  Name = 
REMARK  7 active torsions:
REMARK  status: ('A' for Active; 'I' for Inactive)
REMARK    1  A    between atoms: C_1  and  O_2
REMARK    2  A    between atoms: O_2  and  C_3
REMARK    3  A    between atoms: C_6  and  C_7
REMARK    4  A    between atoms: C_8  and  C_9
REMARK    5  A    between atoms: C_12  and  S_13
REMARK    6  A    between atoms: S_13  and  N_14
REMARK    7  A    between atoms: C_26  and  C_27
REMARK                            x       y       z     vdW  Elec       q    Type
REMARK                         _______ _______ _______ _____ _____    ______ ____
ROOT
ATOM      1  C   UNL     1       3.256   4.548  18.738  0.00  0.00    +0.000 A 
ATOM      2  C   UNL     1       2.047   5.178  19.192  0.00  0.00    +0.000 A 
ATOM      3  C   UNL     1       1.023   4.361  19.735  0.00  0.00    +0.000 A 
ATOM      4  C   UNL     1       1.144   2.974  19.813  0.00  0.00    +0.000 A 
ATOM      5  C   UNL     1       2.284   2.371  19.321  0.00  0.00    +0.000 A 
ATOM      6  F   UNL     1       2.393   1.035  19.369  0.00  0.00    +0.000 F 
ATOM      7  C   UNL     1       3.319   3.135  18.797  0.00  0.00    +0.000 A 
ATOM      8  F   UNL     1       4.411   2.482  18.366  0.00  0.00    +0.000 F 
ENDROOT
BRANCH   1  12
ATOM      9  C   UNL     1       6.748   6.726  17.373  0.00  0.00    +0.000 A 
ATOM     10  C   UNL     1       5.553   6.767  16.659  0.00  0.00    +0.000 A 
ATOM     11  C   UNL     1       4.416   6.130  17.149  0.00  0.00    +0.000 A 
ATOM     12  C   UNL     1       4.463   5.294  18.275  0.00  0.00    +0.000 A 
ATOM     13  C   UNL     1       5.697   5.213  18.948  0.00  0.00    +0.000 A 
ATOM     14  C   UNL     1       6.822   5.961  18.545  0.00  0.00    +0.000 A 
ATOM     15  C   UNL     1       8.065   5.935  19.389  0.00  0.00    +0.000 C 
BRANCH   9  17
ATOM     16  C   UNL     1       7.992   8.718  17.549  0.00  0.00    +0.000 C 
ATOM     17  O   UNL     1       7.873   7.410  16.991  0.00  0.00    +0.000 OA
ENDBRANCH   9  17
ENDBRANCH   1  12
BRANCH   2  18
ATOM     18  C   UNL     1       1.807   6.652  19.145  0.00  0.00    +0.000 A 
ATOM     19  C   UNL     1       1.755   7.351  17.923  0.00  0.00    +0.000 A 
ATOM     20  C   UNL     1       1.715   8.746  17.882  0.00  0.00    +0.000 A 
ATOM     21  C   UNL     1       1.610   9.461  19.072  0.00  0.00    +0.000 A 
ATOM     22  C   UNL     1       1.579   8.802  20.297  0.00  0.00    +0.000 A 
ATOM     23  C   UNL     1       1.687   7.409  20.329  0.00  0.00    +0.000 A 
BRANCH  21  24
ATOM     24  S   UNL     1       1.514  11.220  19.007  0.00  0.00    +0.000 S 
ATOM     25  O   UNL     1       1.326  11.748  20.342  0.00  0.00    +0.000 OA
ATOM     26  O   UNL     1       2.527  11.719  18.109  0.00  0.00    +0.000 OA
BRANCH  24  27
ATOM     27  N   UNL     1       0.047  11.419  18.215  0.00  0.00    +0.000 NA
ATOM     28  H   UNL     1      -0.658  10.807  18.622  0.00  0.00    +0.000 HD
ATOM     29  H   UNL     1      -0.209  12.406  18.182  0.00  0.00    +0.000 HD
ENDBRANCH  24  27
ENDBRANCH  21  24
ENDBRANCH   2  18
TORSDOF 5
ENDMDL
MODEL 8
REMARK VINA RESULT:      -7.9      0.701      1.724
REMARK  Name = 
REMARK  7 active torsions:
REMARK  status: ('A' for Active; 'I' for Inactive)
REMARK    1  A    between atoms: C_1  and  O_2
REMARK    2  A    between atoms: O_2  and  C_3
REMARK    3  A    between atoms: C_6  and  C_7
REMARK    4  A    between atoms: C_8  and  C_9
REMARK    5  A    between atoms: C_12  and  S_13
REMARK    6  A    between atoms: S_13  and  N_14
REMARK    7  A    between atoms: C_26  and  C_27
REMARK                            x       y       z     vdW  Elec       q    Type
REMARK                         _______ _______ _______ _____ _____    ______ ____
ROOT
ATOM      1  C   UNL     1       3.078   4.403  19.090  0.00  0.00    +0.000 A 
ATOM      2  C   UNL     1       1.913   5.101  19.557  0.00  0.00    +0.000 A 
ATOM      3  C   UNL     1       0.901   4.359  20.218  0.00  0.00    +0.000 A 
ATOM      4  C   UNL     1       0.991   2.979  20.398  0.00  0.00    +0.000 A 
ATOM      5  C   UNL     1       2.087   2.307  19.894  0.00  0.00    +0.000 A 
ATOM      6  F   UNL     1       2.165   0.976  20.041  0.00  0.00    +0.000 F 
ATOM      7  C   UNL     1       3.109   2.998  19.256  0.00  0.00    +0.000 A 
ATOM      8  F   UNL     1       4.159   2.282  18.819  0.00  0.00    +0.000 F 
ENDROOT
BRANCH   1  12
ATOM      9  C   UNL     1       6.569   6.356  17.414  0.00  0.00    +0.000 A 
ATOM     10  C   UNL     1       6.507   6.035  18.767  0.00  0.00    +0.000 A 
ATOM     11  C   UNL     1       5.416   5.336  19.279  0.00  0.00    +0.000 A 
ATOM     12  C   UNL     1       4.275   5.076  18.505  0.00  0.00    +0.000 A 
ATOM     13  C   UNL     1       4.330   5.465  17.153  0.00  0.00    +0.000 A 
ATOM     14  C   UNL     1       5.480   6.049  16.586  0.00  0.00    +0.000 A 
ATOM     15  C   UNL     1       5.521   6.312  15.106  0.00  0.00    +0.000 C 
BRANCH   9  17
ATOM     16  C   UNL     1       8.056   8.181  17.452  0.00  0.00    +0.000 C 
ATOM     17  O   UNL     1       7.655   6.958  16.835  0.00  0.00    +0.000 OA
ENDBRANCH   9  17
ENDBRANCH   1  12
BRANCH   2  18
ATOM     18  C   UNL     1       1.706   6.574  19.407  0.00  0.00    +0.000 A 
ATOM     19  C   UNL     1       1.813   7.208  18.154  0.00  0.00    +0.000 A 
ATOM     20  C   UNL     1       1.803   8.599  18.038  0.00  0.00    +0.000 A 
ATOM     21  C   UNL     1       1.572   9.378  19.169  0.00  0.00    +0.000 A 
ATOM     22  C   UNL     1       1.384   8.784  20.414  0.00  0.00    +0.000 A 
ATOM     23  C   UNL     1       1.462   7.394  20.529  0.00  0.00    +0.000 A 
BRANCH  21  24
ATOM     24  S   UNL     1       1.517  11.132  19.004  0.00  0.00    +0.000 S 
ATOM     25  O   UNL     1       1.373  11.740  20.310  0.00  0.00    +0.000 OA
ATOM     26  O   UNL     1       2.519  11.552  18.056  0.00  0.00    +0.000 OA
BRANCH  24  27
ATOM     27  N   UNL     1       0.037  11.322  18.234  0.00  0.00    +0.000 NA
ATOM     28  H   UNL     1       0.066  12.124  17.608  0.00  0.00    +0.000 HD
ATOM     29  H   UNL     1      -0.252  10.447  17.796  0.00  0.00    +0.000 HD
ENDBRANCH  24  27
ENDBRANCH  21  24
ENDBRANCH   2  18
TORSDOF 5
ENDMDL
MODEL 9
REMARK VINA RESULT:      -7.6      2.689      4.913
REMARK  Name = 
REMARK  7 active torsions:
REMARK  status: ('A' for Active; 'I' for Inactive)
REMARK    1  A    between atoms: C_1  and  O_2
REMARK    2  A    between atoms: O_2  and  C_3
REMARK    3  A    between atoms: C_6  and  C_7
REMARK    4  A    between atoms: C_8  and  C_9
REMARK    5  A    between atoms: C_12  and  S_13
REMARK    6  A    between atoms: S_13  and  N_14
REMARK    7  A    between atoms: C_26  and  C_27
REMARK                            x       y       z     vdW  Elec       q    Type
REMARK                         _______ _______ _______ _____ _____    ______ ____
ROOT
ATOM      1  C   UNL     1       4.323   5.091  17.120  0.00  0.00    +0.000 A 
ATOM      2  C   UNL     1       4.084   6.504  17.022  0.00  0.00    +0.000 A 
ATOM      3  C   UNL     1       4.651   7.210  15.930  0.00  0.00    +0.000 A 
ATOM      4  C   UNL     1       5.450   6.582  14.976  0.00  0.00    +0.000 A 
ATOM      5  C   UNL     1       5.723   5.235  15.110  0.00  0.00    +0.000 A 
ATOM      6  F   UNL     1       6.513   4.633  14.209  0.00  0.00    +0.000 F 
ATOM      7  C   UNL     1       5.173   4.502  16.155  0.00  0.00    +0.000 A 
ATOM      8  F   UNL     1       5.457   3.190  16.203  0.00  0.00    +0.000 F 
ENDROOT
BRANCH   1  12
ATOM      9  C   UNL     1       2.472   2.516  20.079  0.00  0.00    +0.000 A 
ATOM     10  C   UNL     1       3.789   2.945  20.225  0.00  0.00    +0.000 A 
ATOM     11  C   UNL     1       4.347   3.836  19.311  0.00  0.00    +0.000 A 
ATOM     12  C   UNL     1       3.678   4.204  18.133  0.00  0.00    +0.000 A 
ATOM     13  C   UNL     1       2.370   3.708  17.971  0.00  0.00    +0.000 A 
ATOM     14  C   UNL     1       1.741   2.918  18.953  0.00  0.00    +0.000 A 
ATOM     15  C   UNL     1       0.296   2.539  18.780  0.00  0.00    +0.000 C 
BRANCH   9  17
ATOM     16  C   UNL     1       1.386   2.395  22.165  0.00  0.00    +0.000 C 
ATOM     17  O   UNL     1       1.839   1.716  20.994  0.00  0.00    +0.000 OA
ENDBRANCH   9  17
ENDBRANCH   1  12
BRANCH   2  18
ATOM     18  C   UNL     1       3.255   7.279  17.994  0.00  0.00    +0.000 A 
ATOM     19  C   UNL     1       3.008   6.803  19.296  0.00  0.00    +0.000 A 
ATOM     20  C   UNL     1       2.090   7.429  20.140  0.00  0.00    +0.000 A 
ATOM     21  C   UNL     1       1.485   8.615  19.732  0.00  0.00    +0.000 A 
ATOM     22  C   UNL     1       1.763   9.161  18.482  0.00  0.00    +0.000 A 
ATOM     23  C   UNL     1       2.633   8.489  17.619  0.00  0.00    +0.000 A 
BRANCH  21  24
ATOM     24  S   UNL     1       0.361   9.422  20.823  0.00  0.00    +0.000 S 
ATOM     25  O   UNL     1      -0.418   8.433  21.540  0.00  0.00    +0.000 OA
ATOM     26  O   UNL     1       1.039  10.508  21.488  0.00  0.00    +0.000 OA
BRANCH  24  27
ATOM     27  N   UNL     1      -0.686  10.130  19.718  0.00  0.00    +0.000 NA
ATOM     28  H   UNL     1      -1.652   9.975  20.000  0.00  0.00    +0.000 HD
ATOM     29  H   UNL     1      -0.436  11.107  19.567  0.00  0.00    +0.000 HD
ENDBRANCH  24  27
ENDBRANCH  21  24
ENDBRANCH   2  18
TORSDOF 5
ENDMDL
