MODEL 1
REMARK VINA RESULT:      -7.2      0.000      0.000
REMARK  Name = 
REMARK  13 active torsions:
REMARK  status: ('A' for Active; 'I' for Inactive)
REMARK    1  A    between atoms: C_1  and  C_2
REMARK    2  A    between atoms: C_2  and  O_3
REMARK    3  A    between atoms: O_3  and  C_4
REMARK    4  A    between atoms: C_4  and  C_6
REMARK    5  A    between atoms: C_7  and  C_8
REMARK    6  A    between atoms: C_10  and  C_11
REMARK    7  A    between atoms: C_11  and  S_12
REMARK    8  A    between atoms: S_12  and  C_13
REMARK    9  A    between atoms: C_20  and  O_21
REMARK   10  A    between atoms: C_20  and  O_22
REMARK   11  A    between atoms: O_22  and  C_23
REMARK   12  A    between atoms: C_23  and  C_24
REMARK   13  A    between atoms: C_25  and  C_26
REMARK                            x       y       z     vdW  Elec       q    Type
REMARK                         _______ _______ _______ _____ _____    ______ ____
ROOT
ATOM      1  C   UNL     1       4.280   6.044  18.472  0.00  0.00    +0.000 C 
ATOM      2  C   UNL     1       4.154   6.747  17.334  0.00  0.00    +0.000 C 
ATOM      3  C   UNL     1       5.032   6.641  16.106  0.00  0.00    +0.000 C 
ATOM      4  N   UNL     1       3.177   7.689  17.152  0.00  0.00    +0.000 NA
ATOM      5  C   UNL     1       2.361   8.074  18.093  0.00  0.00    +0.000 C 
ATOM      6  C   UNL     1       2.351   7.436  19.466  0.00  0.00    +0.000 C 
ATOM      7  C   UNL     1       1.573   7.837  20.502  0.00  0.00    +0.000 C 
ATOM      8  C   UNL     1       3.275   6.214  19.583  0.00  0.00    +0.000 C 
ENDROOT
BRANCH   8   9
ATOM      9  C   UNL     1       2.446   4.939  19.750  0.00  0.00    +0.000 A 
ATOM     10  C   UNL     1       1.717   4.389  18.687  0.00  0.00    +0.000 A 
ATOM     11  C   UNL     1       0.934   3.260  18.897  0.00  0.00    +0.000 A 
ATOM     12  C   UNL     1       0.910   2.706  20.165  0.00  0.00    +0.000 A 
ATOM     13  N   UNL     1       1.617   3.188  21.209  0.00  0.00    +0.000 NA
ATOM     14  C   UNL     1       2.370   4.283  20.977  0.00  0.00    +0.000 A 
ENDBRANCH   8   9
BRANCH   1  15
ATOM     15  C   UNL     1       5.388   5.066  18.696  0.00  0.00    +0.000 C 
ATOM     16  O   UNL     1       5.489   3.970  18.171  0.00  0.00    +0.000 OA
BRANCH  15  17
ATOM     17  O   UNL     1       6.291   5.574  19.580  0.00  0.00    +0.000 OA
BRANCH  17  19
ATOM     18  C   UNL     1       7.900   6.943  18.350  0.00  0.00    +0.000 C 
ATOM     19  C   UNL     1       7.647   5.650  19.107  0.00  0.00    +0.000 C 
ENDBRANCH  17  19
ENDBRANCH  15  17
ENDBRANCH   1  15
BRANCH   7  20
ATOM     20  O   UNL     1       1.661   7.251  21.755  0.00  0.00    +0.000 OA
ATOM     21  H   UNL     1       0.883   7.428  22.299  0.00  0.00    +0.000 HD
ENDBRANCH   7  20
BRANCH   5  22
ATOM     22  C   UNL     1       1.394   9.251  17.735  0.00  0.00    +0.000 C 
BRANCH  22  23
ATOM     23  S   UNL     1       2.205  10.878  18.113  0.00  0.00    +0.000 S 
BRANCH  23  24
ATOM     24  C   UNL     1       0.994  11.971  18.829  0.00  0.00    +0.000 A 
ATOM     25  C   UNL     1       1.245  13.097  19.611  0.00  0.00    +0.000 A 
ATOM     26  C   UNL     1       0.172  13.855  20.112  0.00  0.00    +0.000 A 
ATOM     27  C   UNL     1      -1.149  13.497  19.838  0.00  0.00    +0.000 A 
ATOM     28  C   UNL     1      -1.409  12.376  19.062  0.00  0.00    +0.000 A 
ATOM     29  C   UNL     1      -0.343  11.623  18.563  0.00  0.00    +0.000 A 
ENDBRANCH  23  24
ENDBRANCH  22  23
ENDBRANCH   5  22
BRANCH   7  30
ATOM     30  O   UNL     1       0.611   8.818  20.353  0.00  0.00    +0.000 OA
BRANCH  30  31
ATOM     31  C   UNL     1      -0.243   8.941  21.501  0.00  0.00    +0.000 C 
ATOM     32  C   UNL     1      -0.149  10.349  22.052  0.00  0.00    +0.000 C 
ENDBRANCH  30  31
ENDBRANCH   7  30
TORSDOF 10
ENDMDL
MODEL 2
REMARK VINA RESULT:      -7.1      0.682      1.290
REMARK  Name = 
REMARK  13 active torsions:
REMARK  status: ('A' for Active; 'I' for Inactive)
REMARK    1  A    between atoms: C_1  and  C_2
REMARK    2  A    between atoms: C_2  and  O_3
REMARK    3  A    between atoms: O_3  and  C_4
REMARK    4  A    between atoms: C_4  and  C_6
REMARK    5  A    between atoms: C_7  and  C_8
REMARK    6  A    between atoms: C_10  and  C_11
REMARK    7  A    between atoms: C_11  and  S_12
REMARK    8  A    between atoms: S_12  and  C_13
REMARK    9  A    between atoms: C_20  and  O_21
REMARK   10  A    between atoms: C_20  and  O_22
REMARK   11  A    between atoms: O_22  and  C_23
REMARK   12  A    between atoms: C_23  and  C_24
REMARK   13  A    between atoms: C_25  and  C_26
REMARK                            x       y       z     vdW  Elec       q    Type
REMARK                         _______ _______ _______ _____ _____    ______ ____
ROOT
ATOM      1  C   UNL     1       4.249   6.082  18.293  0.00  0.00    +0.000 C 
ATOM      2  C   UNL     1       4.157   6.870  17.209  0.00  0.00    +0.000 C 
ATOM      3  C   UNL     1       5.051   6.835  15.989  0.00  0.00    +0.000 C 
ATOM      4  N   UNL     1       3.203   7.844  17.084  0.00  0.00    +0.000 NA
ATOM      5  C   UNL     1       2.381   8.178  18.040  0.00  0.00    +0.000 C 
ATOM      6  C   UNL     1       2.336   7.440  19.361  0.00  0.00    +0.000 C 
ATOM      7  C   UNL     1       1.551   7.781  20.413  0.00  0.00    +0.000 C 
ATOM      8  C   UNL     1       3.232   6.192  19.400  0.00  0.00    +0.000 C 
ENDROOT
BRANCH   8   9
ATOM      9  C   UNL     1       2.373   4.928  19.460  0.00  0.00    +0.000 A 
ATOM     10  C   UNL     1       2.212   4.201  20.647  0.00  0.00    +0.000 A 
ATOM     11  C   UNL     1       1.466   3.028  20.644  0.00  0.00    +0.000 A 
ATOM     12  C   UNL     1       0.891   2.621  19.453  0.00  0.00    +0.000 A 
ATOM     13  N   UNL     1       0.999   3.304  18.294  0.00  0.00    +0.000 NA
ATOM     14  C   UNL     1       1.727   4.440  18.326  0.00  0.00    +0.000 A 
ENDBRANCH   8   9
BRANCH   1  15
ATOM     15  C   UNL     1       5.333   5.065  18.460  0.00  0.00    +0.000 C 
ATOM     16  O   UNL     1       5.388   3.985  17.899  0.00  0.00    +0.000 OA
BRANCH  15  17
ATOM     17  O   UNL     1       6.271   5.518  19.338  0.00  0.00    +0.000 OA
BRANCH  17  19
ATOM     18  C   UNL     1       7.907   7.014  18.307  0.00  0.00    +0.000 C 
ATOM     19  C   UNL     1       7.609   5.615  18.820  0.00  0.00    +0.000 C 
ENDBRANCH  17  19
ENDBRANCH  15  17
ENDBRANCH   1  15
BRANCH   7  20
ATOM     20  O   UNL     1       1.606   7.103  21.620  0.00  0.00    +0.000 OA
ATOM     21  H   UNL     1       1.589   7.699  22.379  0.00  0.00    +0.000 HD
ENDBRANCH   7  20
BRANCH   5  22
ATOM     22  C   UNL     1       1.445   9.400  17.756  0.00  0.00    +0.000 C 
BRANCH  22  23
ATOM     23  S   UNL     1       2.307  10.980  18.214  0.00  0.00    +0.000 S 
BRANCH  23  24
ATOM     24  C   UNL     1       1.168  12.015  19.112  0.00  0.00    +0.000 A 
ATOM     25  C   UNL     1      -0.211  12.097  18.925  0.00  0.00    +0.000 A 
ATOM     26  C   UNL     1      -0.974  12.975  19.714  0.00  0.00    +0.000 A 
ATOM     27  C   UNL     1      -0.370  13.774  20.687  0.00  0.00    +0.000 A 
ATOM     28  C   UNL     1       1.002  13.701  20.880  0.00  0.00    +0.000 A 
ATOM     29  C   UNL     1       1.761  12.827  20.096  0.00  0.00    +0.000 A 
ENDBRANCH  23  24
ENDBRANCH  22  23
ENDBRANCH   5  22
BRANCH   7  30
ATOM     30  O   UNL     1       0.613   8.793  20.324  0.00  0.00    +0.000 OA
BRANCH  30  31
ATOM     31  C   UNL     1      -0.237   8.869  21.478  0.00  0.00    +0.000 C 
ATOM     32  C   UNL     1      -0.000  10.183  22.194  0.00  0.00    +0.000 C 
ENDBRANCH  30  31
ENDBRANCH   7  30
TORSDOF 10
ENDMDL
MODEL 3
REMARK VINA RESULT:      -7.0      1.267      1.700
REMARK  Name = 
REMARK  13 active torsions:
REMARK  status: ('A' for Active; 'I' for Inactive)
REMARK    1  A    between atoms: C_1  and  C_2
REMARK    2  A    between atoms: C_2  and  O_3
REMARK    3  A    between atoms: O_3  and  C_4
REMARK    4  A    between atoms: C_4  and  C_6
REMARK    5  A    between atoms: C_7  and  C_8
REMARK    6  A    between atoms: C_10  and  C_11
REMARK    7  A    between atoms: C_11  and  S_12
REMARK    8  A    between atoms: S_12  and  C_13
REMARK    9  A    between atoms: C_20  and  O_21
REMARK   10  A    between atoms: C_20  and  O_22
REMARK   11  A    between atoms: O_22  and  C_23
REMARK   12  A    between atoms: C_23  and  C_24
REMARK   13  A    between atoms: C_25  and  C_26
REMARK                            x       y       z     vdW  Elec       q    Type
REMARK                         _______ _______ _______ _____ _____    ______ ____
ROOT
ATOM      1  C   UNL     1       4.224   6.052  18.230  0.00  0.00    +0.000 C 
ATOM      2  C   UNL     1       4.161   6.915  17.203  0.00  0.00    +0.000 C 
ATOM      3  C   UNL     1       5.035   6.915  15.968  0.00  0.00    +0.000 C 
ATOM      4  N   UNL     1       3.262   7.947  17.160  0.00  0.00    +0.000 NA
ATOM      5  C   UNL     1       2.472   8.259  18.150  0.00  0.00    +0.000 C 
ATOM      6  C   UNL     1       2.404   7.438  19.419  0.00  0.00    +0.000 C 
ATOM      7  C   UNL     1       1.654   7.750  20.505  0.00  0.00    +0.000 C 
ATOM      8  C   UNL     1       3.229   6.143  19.360  0.00  0.00    +0.000 C 
ENDROOT
BRANCH   8   9
ATOM      9  C   UNL     1       2.301   4.927  19.350  0.00  0.00    +0.000 A 
ATOM     10  C   UNL     1       2.033   4.195  20.514  0.00  0.00    +0.000 A 
ATOM     11  C   UNL     1       1.227   3.064  20.450  0.00  0.00    +0.000 A 
ATOM     12  C   UNL     1       0.702   2.703  19.221  0.00  0.00    +0.000 A 
ATOM     13  N   UNL     1       0.914   3.395  18.081  0.00  0.00    +0.000 NA
ATOM     14  C   UNL     1       1.698   4.489  18.173  0.00  0.00    +0.000 A 
ENDBRANCH   8   9
BRANCH   1  15
ATOM     15  C   UNL     1       5.251   4.968  18.310  0.00  0.00    +0.000 C 
ATOM     16  O   UNL     1       5.242   3.930  17.672  0.00  0.00    +0.000 OA
BRANCH  15  17
ATOM     17  O   UNL     1       6.220   5.304  19.207  0.00  0.00    +0.000 OA
BRANCH  17  19
ATOM     18  C   UNL     1       7.851   6.889  18.310  0.00  0.00    +0.000 C 
ATOM     19  C   UNL     1       7.545   5.444  18.665  0.00  0.00    +0.000 C 
ENDBRANCH  17  19
ENDBRANCH  15  17
ENDBRANCH   1  15
BRANCH   7  20
ATOM     20  O   UNL     1       1.687   6.989  21.663  0.00  0.00    +0.000 OA
ATOM     21  H   UNL     1       2.254   6.212  21.577  0.00  0.00    +0.000 HD
ENDBRANCH   7  20
BRANCH   5  22
ATOM     22  C   UNL     1       1.603   9.548  17.965  0.00  0.00    +0.000 C 
BRANCH  22  23
ATOM     23  S   UNL     1      -0.075   9.095  17.314  0.00  0.00    +0.000 S 
BRANCH  23  24
ATOM     24  C   UNL     1      -1.273  10.243  17.964  0.00  0.00    +0.000 A 
ATOM     25  C   UNL     1      -1.029  11.290  18.852  0.00  0.00    +0.000 A 
ATOM     26  C   UNL     1      -2.090  12.106  19.280  0.00  0.00    +0.000 A 
ATOM     27  C   UNL     1      -3.393  11.885  18.829  0.00  0.00    +0.000 A 
ATOM     28  C   UNL     1      -3.646  10.845  17.947  0.00  0.00    +0.000 A 
ATOM     29  C   UNL     1      -2.591  10.033  17.520  0.00  0.00    +0.000 A 
ENDBRANCH  23  24
ENDBRANCH  22  23
ENDBRANCH   5  22
BRANCH   7  30
ATOM     30  O   UNL     1       0.773   8.815  20.500  0.00  0.00    +0.000 OA
BRANCH  30  31
ATOM     31  C   UNL     1      -0.228   8.716  21.524  0.00  0.00    +0.000 C 
ATOM     32  C   UNL     1      -0.141   9.924  22.435  0.00  0.00    +0.000 C 
ENDBRANCH  30  31
ENDBRANCH   7  30
TORSDOF 10
ENDMDL
MODEL 4
REMARK VINA RESULT:      -6.8      2.213      4.345
REMARK  Name = 
REMARK  13 active torsions:
REMARK  status: ('A' for Active; 'I' for Inactive)
REMARK    1  A    between atoms: C_1  and  C_2
REMARK    2  A    between atoms: C_2  and  O_3
REMARK    3  A    between atoms: O_3  and  C_4
REMARK    4  A    between atoms: C_4  and  C_6
REMARK    5  A    between atoms: C_7  and  C_8
REMARK    6  A    between atoms: C_10  and  C_11
REMARK    7  A    between atoms: C_11  and  S_12
REMARK    8  A    between atoms: S_12  and  C_13
REMARK    9  A    between atoms: C_20  and  O_21
REMARK   10  A    between atoms: C_20  and  O_22
REMARK   11  A    between atoms: O_22  and  C_23
REMARK   12  A    between atoms: C_23  and  C_24
REMARK   13  A    between atoms: C_25  and  C_26
REMARK                            x       y       z     vdW  Elec       q    Type
REMARK                         _______ _______ _______ _____ _____    ______ ____
ROOT
ATOM      1  C   UNL     1       2.209   4.444  18.917  0.00  0.00    +0.000 C 
ATOM      2  C   UNL     1       1.763   4.546  20.179  0.00  0.00    +0.000 C 
ATOM      3  C   UNL     1       1.300   3.412  21.068  0.00  0.00    +0.000 C 
ATOM      4  N   UNL     1       1.663   5.746  20.832  0.00  0.00    +0.000 NA
ATOM      5  C   UNL     1       1.876   6.899  20.262  0.00  0.00    +0.000 C 
ATOM      6  C   UNL     1       2.355   7.017  18.831  0.00  0.00    +0.000 C 
ATOM      7  C   UNL     1       2.529   8.185  18.165  0.00  0.00    +0.000 C 
ATOM      8  C   UNL     1       2.705   5.666  18.186  0.00  0.00    +0.000 C 
ENDROOT
BRANCH   8   9
ATOM      9  C   UNL     1       4.212   5.569  17.949  0.00  0.00    +0.000 A 
ATOM     10  C   UNL     1       5.126   5.542  19.012  0.00  0.00    +0.000 A 
ATOM     11  C   UNL     1       6.490   5.508  18.750  0.00  0.00    +0.000 A 
ATOM     12  C   UNL     1       6.904   5.491  17.430  0.00  0.00    +0.000 A 
ATOM     13  N   UNL     1       6.058   5.490  16.377  0.00  0.00    +0.000 NA
ATOM     14  C   UNL     1       4.739   5.521  16.660  0.00  0.00    +0.000 A 
ENDBRANCH   8   9
BRANCH   1  15
ATOM     15  C   UNL     1       2.252   3.144  18.180  0.00  0.00    +0.000 C 
ATOM     16  O   UNL     1       1.294   2.570  17.691  0.00  0.00    +0.000 OA
BRANCH  15  17
ATOM     17  O   UNL     1       3.531   2.678  18.122  0.00  0.00    +0.000 OA
BRANCH  17  19
ATOM     18  C   UNL     1       4.601   2.006  20.215  0.00  0.00    +0.000 C 
ATOM     19  C   UNL     1       3.826   1.566  18.984  0.00  0.00    +0.000 C 
ENDBRANCH  17  19
ENDBRANCH  15  17
ENDBRANCH   1  15
BRANCH   7  20
ATOM     20  O   UNL     1       2.908   8.221  16.832  0.00  0.00    +0.000 OA
ATOM     21  H   UNL     1       2.154   8.324  16.238  0.00  0.00    +0.000 HD
ENDBRANCH   7  20
BRANCH   5  22
ATOM     22  C   UNL     1       1.591   8.168  21.133  0.00  0.00    +0.000 C 
BRANCH  22  23
ATOM     23  S   UNL     1      -0.229   8.310  21.473  0.00  0.00    +0.000 S 
BRANCH  23  24
ATOM     24  C   UNL     1      -0.627  10.023  21.757  0.00  0.00    +0.000 A 
ATOM     25  C   UNL     1      -0.917  10.622  22.982  0.00  0.00    +0.000 A 
ATOM     26  C   UNL     1      -1.222  11.993  23.038  0.00  0.00    +0.000 A 
ATOM     27  C   UNL     1      -1.241  12.771  21.879  0.00  0.00    +0.000 A 
ATOM     28  C   UNL     1      -0.956  12.185  20.654  0.00  0.00    +0.000 A 
ATOM     29  C   UNL     1      -0.652  10.821  20.598  0.00  0.00    +0.000 A 
ENDBRANCH  23  24
ENDBRANCH  22  23
ENDBRANCH   5  22
BRANCH   7  30
ATOM     30  O   UNL     1       2.389   9.409  18.792  0.00  0.00    +0.000 OA
BRANCH  30  31
ATOM     31  C   UNL     1       1.660  10.360  18.003  0.00  0.00    +0.000 C 
ATOM     32  C   UNL     1       2.172  11.756  18.294  0.00  0.00    +0.000 C 
ENDBRANCH  30  31
ENDBRANCH   7  30
TORSDOF 10
ENDMDL
MODEL 5
REMARK VINA RESULT:      -6.7      2.159      4.076
REMARK  Name = 
REMARK  13 active torsions:
REMARK  status: ('A' for Active; 'I' for Inactive)
REMARK    1  A    between atoms: C_1  and  C_2
REMARK    2  A    between atoms: C_2  and  O_3
REMARK    3  A    between atoms: O_3  and  C_4
REMARK    4  A    between atoms: C_4  and  C_6
REMARK    5  A    between atoms: C_7  and  C_8
REMARK    6  A    between atoms: C_10  and  C_11
REMARK    7  A    between atoms: C_11  and  S_12
REMARK    8  A    between atoms: S_12  and  C_13
REMARK    9  A    between atoms: C_20  and  O_21
REMARK   10  A    between atoms: C_20  and  O_22
REMARK   11  A    between atoms: O_22  and  C_23
REMARK   12  A    between atoms: C_23  and  C_24
REMARK   13  A    between atoms: C_25  and  C_26
REMARK                            x       y       z     vdW  Elec       q    Type
REMARK                         _______ _______ _______ _____ _____    ______ ____
ROOT
ATOM      1  C   UNL     1       2.156   4.668  18.886  0.00  0.00    +0.000 C 
ATOM      2  C   UNL     1       1.731   4.760  20.156  0.00  0.00    +0.000 C 
ATOM      3  C   UNL     1       1.281   3.619  21.043  0.00  0.00    +0.000 C 
ATOM      4  N   UNL     1       1.642   5.955  20.820  0.00  0.00    +0.000 NA
ATOM      5  C   UNL     1       1.846   7.112  20.256  0.00  0.00    +0.000 C 
ATOM      6  C   UNL     1       2.303   7.241  18.819  0.00  0.00    +0.000 C 
ATOM      7  C   UNL     1       2.467   8.415  18.159  0.00  0.00    +0.000 C 
ATOM      8  C   UNL     1       2.641   5.896  18.157  0.00  0.00    +0.000 C 
ENDROOT
BRANCH   8   9
ATOM      9  C   UNL     1       4.145   5.800  17.896  0.00  0.00    +0.000 A 
ATOM     10  C   UNL     1       4.670   5.796  16.597  0.00  0.00    +0.000 A 
ATOM     11  C   UNL     1       6.039   5.653  16.404  0.00  0.00    +0.000 A 
ATOM     12  C   UNL     1       6.848   5.528  17.520  0.00  0.00    +0.000 A 
ATOM     13  N   UNL     1       6.387   5.554  18.789  0.00  0.00    +0.000 NA
ATOM     14  C   UNL     1       5.055   5.696  18.946  0.00  0.00    +0.000 A 
ENDBRANCH   8   9
BRANCH   1  15
ATOM     15  C   UNL     1       2.187   3.374  18.138  0.00  0.00    +0.000 C 
ATOM     16  O   UNL     1       1.225   2.817  17.637  0.00  0.00    +0.000 OA
BRANCH  15  17
ATOM     17  O   UNL     1       3.460   2.891  18.085  0.00  0.00    +0.000 OA
BRANCH  17  19
ATOM     18  C   UNL     1       4.517   2.130  20.153  0.00  0.00    +0.000 C 
ATOM     19  C   UNL     1       3.724   1.747  18.915  0.00  0.00    +0.000 C 
ENDBRANCH  17  19
ENDBRANCH  15  17
ENDBRANCH   1  15
BRANCH   7  20
ATOM     20  O   UNL     1       2.825   8.461  16.821  0.00  0.00    +0.000 OA
ATOM     21  H   UNL     1       2.159   8.060  16.248  0.00  0.00    +0.000 HD
ENDBRANCH   7  20
BRANCH   5  22
ATOM     22  C   UNL     1       1.576   8.374  21.142  0.00  0.00    +0.000 C 
BRANCH  22  23
ATOM     23  S   UNL     1      -0.251   8.673  21.282  0.00  0.00    +0.000 S 
BRANCH  23  24
ATOM     24  C   UNL     1      -0.603  10.336  20.747  0.00  0.00    +0.000 A 
ATOM     25  C   UNL     1      -0.359  11.511  21.457  0.00  0.00    +0.000 A 
ATOM     26  C   UNL     1      -0.704  12.752  20.897  0.00  0.00    +0.000 A 
ATOM     27  C   UNL     1      -1.293  12.831  19.634  0.00  0.00    +0.000 A 
ATOM     28  C   UNL     1      -1.542  11.667  18.920  0.00  0.00    +0.000 A 
ATOM     29  C   UNL     1      -1.198  10.432  19.476  0.00  0.00    +0.000 A 
ENDBRANCH  23  24
ENDBRANCH  22  23
ENDBRANCH   5  22
BRANCH   7  30
ATOM     30  O   UNL     1       2.338   9.633  18.799  0.00  0.00    +0.000 OA
BRANCH  30  31
ATOM     31  C   UNL     1       2.001  10.702  17.901  0.00  0.00    +0.000 C 
ATOM     32  C   UNL     1       2.178  12.030  18.608  0.00  0.00    +0.000 C 
ENDBRANCH  30  31
ENDBRANCH   7  30
TORSDOF 10
ENDMDL
MODEL 6
REMARK VINA RESULT:      -6.7      2.317      4.276
REMARK  Name = 
REMARK  13 active torsions:
REMARK  status: ('A' for Active; 'I' for Inactive)
REMARK    1  A    between atoms: C_1  and  C_2
REMARK    2  A    between atoms: C_2  and  O_3
REMARK    3  A    between atoms: O_3  and  C_4
REMARK    4  A    between atoms: C_4  and  C_6
REMARK    5  A    between atoms: C_7  and  C_8
REMARK    6  A    between atoms: C_10  and  C_11
REMARK    7  A    between atoms: C_11  and  S_12
REMARK    8  A    between atoms: S_12  and  C_13
REMARK    9  A    between atoms: C_20  and  O_21
REMARK   10  A    between atoms: C_20  and  O_22
REMARK   11  A    between atoms: O_22  and  C_23
REMARK   12  A    between atoms: C_23  and  C_24
REMARK   13  A    between atoms: C_25  and  C_26
REMARK                            x       y       z     vdW  Elec       q    Type
REMARK                         _______ _______ _______ _____ _____    ______ ____
ROOT
ATOM      1  C   UNL     1       2.155   4.446  18.930  0.00  0.00    +0.000 C 
ATOM      2  C   UNL     1       1.750   4.605  20.201  0.00  0.00    +0.000 C 
ATOM      3  C   UNL     1       1.261   3.521  21.136  0.00  0.00    +0.000 C 
ATOM      4  N   UNL     1       1.724   5.827  20.819  0.00  0.00    +0.000 NA
ATOM      5  C   UNL     1       1.972   6.952  20.208  0.00  0.00    +0.000 C 
ATOM      6  C   UNL     1       2.416   7.005  18.762  0.00  0.00    +0.000 C 
ATOM      7  C   UNL     1       2.624   8.144  18.056  0.00  0.00    +0.000 C 
ATOM      8  C   UNL     1       2.685   5.621  18.149  0.00  0.00    +0.000 C 
ENDROOT
BRANCH   8   9
ATOM      9  C   UNL     1       4.180   5.448  17.876  0.00  0.00    +0.000 A 
ATOM     10  C   UNL     1       4.674   5.247  16.580  0.00  0.00    +0.000 A 
ATOM     11  C   UNL     1       6.034   5.040  16.383  0.00  0.00    +0.000 A 
ATOM     12  C   UNL     1       6.865   5.050  17.490  0.00  0.00    +0.000 A 
ATOM     13  N   UNL     1       6.435   5.265  18.751  0.00  0.00    +0.000 NA
ATOM     14  C   UNL     1       5.110   5.465  18.913  0.00  0.00    +0.000 A 
ENDBRANCH   8   9
BRANCH   1  15
ATOM     15  C   UNL     1       2.117   3.123  18.233  0.00  0.00    +0.000 C 
ATOM     16  O   UNL     1       1.120   2.578  17.794  0.00  0.00    +0.000 OA
BRANCH  15  17
ATOM     17  O   UNL     1       3.373   2.602  18.147  0.00  0.00    +0.000 OA
BRANCH  17  19
ATOM     18  C   UNL     1       4.579   2.010  20.189  0.00  0.00    +0.000 C 
ATOM     19  C   UNL     1       3.667   1.538  19.069  0.00  0.00    +0.000 C 
ENDBRANCH  17  19
ENDBRANCH  15  17
ENDBRANCH   1  15
BRANCH   7  20
ATOM     20  O   UNL     1       2.967   8.123  16.714  0.00  0.00    +0.000 OA
ATOM     21  H   UNL     1       2.439   8.738  16.189  0.00  0.00    +0.000 HD
ENDBRANCH   7  20
BRANCH   5  22
ATOM     22  C   UNL     1       1.771   8.257  21.047  0.00  0.00    +0.000 C 
BRANCH  22  23
ATOM     23  S   UNL     1      -0.021   8.458  21.490  0.00  0.00    +0.000 S 
BRANCH  23  24
ATOM     24  C   UNL     1      -0.333  10.173  21.858  0.00  0.00    +0.000 A 
ATOM     25  C   UNL     1       0.231  11.279  21.223  0.00  0.00    +0.000 A 
ATOM     26  C   UNL     1      -0.114  12.577  21.639  0.00  0.00    +0.000 A 
ATOM     27  C   UNL     1      -1.016  12.779  22.685  0.00  0.00    +0.000 A 
ATOM     28  C   UNL     1      -1.582  11.685  23.324  0.00  0.00    +0.000 A 
ATOM     29  C   UNL     1      -1.240  10.394  22.910  0.00  0.00    +0.000 A 
ENDBRANCH  23  24
ENDBRANCH  22  23
ENDBRANCH   5  22
BRANCH   7  30
ATOM     30  O   UNL     1       2.558   9.391  18.650  0.00  0.00    +0.000 OA
BRANCH  30  31
ATOM     31  C   UNL     1       1.743  10.316  17.915  0.00  0.00    +0.000 C 
ATOM     32  C   UNL     1       0.290   9.897  18.013  0.00  0.00    +0.000 C 
ENDBRANCH  30  31
ENDBRANCH   7  30
TORSDOF 10
ENDMDL
MODEL 7
REMARK VINA RESULT:      -6.6      2.168      4.260
REMARK  Name = 
REMARK  13 active torsions:
REMARK  status: ('A' for Active; 'I' for Inactive)
REMARK    1  A    between atoms: C_1  and  C_2
REMARK    2  A    between atoms: C_2  and  O_3
REMARK    3  A    between atoms: O_3  and  C_4
REMARK    4  A    between atoms: C_4  and  C_6
REMARK    5  A    between atoms: C_7  and  C_8
REMARK    6  A    between atoms: C_10  and  C_11
REMARK    7  A    between atoms: C_11  and  S_12
REMARK    8  A    between atoms: S_12  and  C_13
REMARK    9  A    between atoms: C_20  and  O_21
REMARK   10  A    between atoms: C_20  and  O_22
REMARK   11  A    between atoms: O_22  and  C_23
REMARK   12  A    between atoms: C_23  and  C_24
REMARK   13  A    between atoms: C_25  and  C_26
REMARK                            x       y       z     vdW  Elec       q    Type
REMARK                         _______ _______ _______ _____ _____    ______ ____
ROOT
ATOM      1  C   UNL     1       2.160   4.484  18.875  0.00  0.00    +0.000 C 
ATOM      2  C   UNL     1       1.693   4.594  20.130  0.00  0.00    +0.000 C 
ATOM      3  C   UNL     1       1.193   3.468  21.009  0.00  0.00    +0.000 C 
ATOM      4  N   UNL     1       1.605   5.794  20.783  0.00  0.00    +0.000 NA
ATOM      5  C   UNL     1       1.850   6.944  20.218  0.00  0.00    +0.000 C 
ATOM      6  C   UNL     1       2.357   7.054  18.796  0.00  0.00    +0.000 C 
ATOM      7  C   UNL     1       2.565   8.219  18.135  0.00  0.00    +0.000 C 
ATOM      8  C   UNL     1       2.692   5.698  18.155  0.00  0.00    +0.000 C 
ENDROOT
BRANCH   8   9
ATOM      9  C   UNL     1       4.202   5.572  17.946  0.00  0.00    +0.000 A 
ATOM     10  C   UNL     1       5.097   5.547  19.023  0.00  0.00    +0.000 A 
ATOM     11  C   UNL     1       6.465   5.486  18.785  0.00  0.00    +0.000 A 
ATOM     12  C   UNL     1       6.899   5.440  17.472  0.00  0.00    +0.000 A 
ATOM     13  N   UNL     1       6.071   5.435  16.406  0.00  0.00    +0.000 NA
ATOM     14  C   UNL     1       4.748   5.493  16.667  0.00  0.00    +0.000 A 
ENDBRANCH   8   9
BRANCH   1  15
ATOM     15  C   UNL     1       2.191   3.184  18.137  0.00  0.00    +0.000 C 
ATOM     16  O   UNL     1       1.910   3.026  16.962  0.00  0.00    +0.000 OA
BRANCH  15  17
ATOM     17  O   UNL     1       2.587   2.181  18.969  0.00  0.00    +0.000 OA
BRANCH  17  19
ATOM     18  C   UNL     1       4.612   2.007  20.327  0.00  0.00    +0.000 C 
ATOM     19  C   UNL     1       3.992   1.875  18.946  0.00  0.00    +0.000 C 
ENDBRANCH  17  19
ENDBRANCH  15  17
ENDBRANCH   1  15
BRANCH   7  20
ATOM     20  O   UNL     1       2.969   8.249  16.809  0.00  0.00    +0.000 OA
ATOM     21  H   UNL     1       2.232   8.127  16.197  0.00  0.00    +0.000 HD
ENDBRANCH   7  20
BRANCH   5  22
ATOM     22  C   UNL     1       1.574   8.217  21.085  0.00  0.00    +0.000 C 
BRANCH  22  23
ATOM     23  S   UNL     1      -0.252   8.535  21.185  0.00  0.00    +0.000 S 
BRANCH  23  24
ATOM     24  C   UNL     1      -0.562  10.238  20.762  0.00  0.00    +0.000 A 
ATOM     25  C   UNL     1      -1.210  10.711  19.622  0.00  0.00    +0.000 A 
ATOM     26  C   UNL     1      -1.369  12.094  19.429  0.00  0.00    +0.000 A 
ATOM     27  C   UNL     1      -0.884  13.009  20.365  0.00  0.00    +0.000 A 
ATOM     28  C   UNL     1      -0.235  12.549  21.502  0.00  0.00    +0.000 A 
ATOM     29  C   UNL     1      -0.078  11.173  21.695  0.00  0.00    +0.000 A 
ENDBRANCH  23  24
ENDBRANCH  22  23
ENDBRANCH   5  22
BRANCH   7  30
ATOM     30  O   UNL     1       2.438   9.445  18.762  0.00  0.00    +0.000 OA
BRANCH  30  31
ATOM     31  C   UNL     1       1.903  10.460  17.899  0.00  0.00    +0.000 C 
ATOM     32  C   UNL     1       2.196  11.826  18.484  0.00  0.00    +0.000 C 
ENDBRANCH  30  31
ENDBRANCH   7  30
TORSDOF 10
ENDMDL
MODEL 8
REMARK VINA RESULT:      -6.6      1.065      1.569
REMARK  Name = 
REMARK  13 active torsions:
REMARK  status: ('A' for Active; 'I' for Inactive)
REMARK    1  A    between atoms: C_1  and  C_2
REMARK    2  A    between atoms: C_2  and  O_3
REMARK    3  A    between atoms: O_3  and  C_4
REMARK    4  A    between atoms: C_4  and  C_6
REMARK    5  A    between atoms: C_7  and  C_8
REMARK    6  A    between atoms: C_10  and  C_11
REMARK    7  A    between atoms: C_11  and  S_12
REMARK    8  A    between atoms: S_12  and  C_13
REMARK    9  A    between atoms: C_20  and  O_21
REMARK   10  A    between atoms: C_20  and  O_22
REMARK   11  A    between atoms: O_22  and  C_23
REMARK   12  A    between atoms: C_23  and  C_24
REMARK   13  A    between atoms: C_25  and  C_26
REMARK                            x       y       z     vdW  Elec       q    Type
REMARK                         _______ _______ _______ _____ _____    ______ ____
ROOT
ATOM      1  C   UNL     1       4.288   6.129  18.199  0.00  0.00    +0.000 C 
ATOM      2  C   UNL     1       4.150   6.959  17.152  0.00  0.00    +0.000 C 
ATOM      3  C   UNL     1       5.019   7.005  15.915  0.00  0.00    +0.000 C 
ATOM      4  N   UNL     1       3.164   7.908  17.088  0.00  0.00    +0.000 NA
ATOM      5  C   UNL     1       2.352   8.174  18.073  0.00  0.00    +0.000 C 
ATOM      6  C   UNL     1       2.356   7.379  19.361  0.00  0.00    +0.000 C 
ATOM      7  C   UNL     1       1.583   7.650  20.442  0.00  0.00    +0.000 C 
ATOM      8  C   UNL     1       3.290   6.159  19.329  0.00  0.00    +0.000 C 
ENDROOT
BRANCH   8   9
ATOM      9  C   UNL     1       2.471   4.868  19.350  0.00  0.00    +0.000 A 
ATOM     10  C   UNL     1       2.439   4.033  20.475  0.00  0.00    +0.000 A 
ATOM     11  C   UNL     1       1.725   2.841  20.432  0.00  0.00    +0.000 A 
ATOM     12  C   UNL     1       1.052   2.523  19.265  0.00  0.00    +0.000 A 
ATOM     13  N   UNL     1       1.035   3.310  18.169  0.00  0.00    +0.000 NA
ATOM     14  C   UNL     1       1.735   4.462  18.239  0.00  0.00    +0.000 A 
ENDBRANCH   8   9
BRANCH   1  15
ATOM     15  C   UNL     1       5.405   5.140  18.301  0.00  0.00    +0.000 C 
ATOM     16  O   UNL     1       6.284   5.143  19.145  0.00  0.00    +0.000 OA
BRANCH  15  17
ATOM     17  O   UNL     1       5.304   4.213  17.308  0.00  0.00    +0.000 OA
BRANCH  17  19
ATOM     18  C   UNL     1       6.089   3.801  15.030  0.00  0.00    +0.000 C 
ATOM     19  C   UNL     1       6.469   4.065  16.477  0.00  0.00    +0.000 C 
ENDBRANCH  17  19
ENDBRANCH  15  17
ENDBRANCH   1  15
BRANCH   7  20
ATOM     20  O   UNL     1       1.684   6.923  21.617  0.00  0.00    +0.000 OA
ATOM     21  H   UNL     1       0.833   6.825  22.063  0.00  0.00    +0.000 HD
ENDBRANCH   7  20
BRANCH   5  22
ATOM     22  C   UNL     1       1.374   9.378  17.861  0.00  0.00    +0.000 C 
BRANCH  22  23
ATOM     23  S   UNL     1       2.230  10.972  18.275  0.00  0.00    +0.000 S 
BRANCH  23  24
ATOM     24  C   UNL     1       1.145  11.960  19.287  0.00  0.00    +0.000 A 
ATOM     25  C   UNL     1       1.521  12.866  20.277  0.00  0.00    +0.000 A 
ATOM     26  C   UNL     1       0.537  13.565  20.997  0.00  0.00    +0.000 A 
ATOM     27  C   UNL     1      -0.820  13.366  20.737  0.00  0.00    +0.000 A 
ATOM     28  C   UNL     1      -1.205  12.466  19.754  0.00  0.00    +0.000 A 
ATOM     29  C   UNL     1      -0.227  11.770  19.037  0.00  0.00    +0.000 A 
ENDBRANCH  23  24
ENDBRANCH  22  23
ENDBRANCH   5  22
BRANCH   7  30
ATOM     30  O   UNL     1       0.613   8.635  20.415  0.00  0.00    +0.000 OA
BRANCH  30  31
ATOM     31  C   UNL     1      -0.181   8.668  21.610  0.00  0.00    +0.000 C 
ATOM     32  C   UNL     1       0.037   9.986  22.325  0.00  0.00    +0.000 C 
ENDBRANCH  30  31
ENDBRANCH   7  30
TORSDOF 10
ENDMDL
MODEL 9
REMARK VINA RESULT:      -6.6      0.853      1.579
REMARK  Name = 
REMARK  13 active torsions:
REMARK  status: ('A' for Active; 'I' for Inactive)
REMARK    1  A    between atoms: C_1  and  C_2
REMARK    2  A    between atoms: C_2  and  O_3
REMARK    3  A    between atoms: O_3  and  C_4
REMARK    4  A    between atoms: C_4  and  C_6
REMARK    5  A    between atoms: C_7  and  C_8
REMARK    6  A    between atoms: C_10  and  C_11
REMARK    7  A    between atoms: C_11  and  S_12
REMARK    8  A    between atoms: S_12  and  C_13
REMARK    9  A    between atoms: C_20  and  O_21
REMARK   10  A    between atoms: C_20  and  O_22
REMARK   11  A    between atoms: O_22  and  C_23
REMARK   12  A    between atoms: C_23  and  C_24
REMARK   13  A    between atoms: C_25  and  C_26
REMARK                            x       y       z     vdW  Elec       q    Type
REMARK                         _______ _______ _______ _____ _____    ______ ____
ROOT
ATOM      1  C   UNL     1       4.180   6.008  18.686  0.00  0.00    +0.000 C 
ATOM      2  C   UNL     1       4.069   6.665  17.520  0.00  0.00    +0.000 C 
ATOM      3  C   UNL     1       4.934   6.479  16.292  0.00  0.00    +0.000 C 
ATOM      4  N   UNL     1       3.121   7.630  17.304  0.00  0.00    +0.000 NA
ATOM      5  C   UNL     1       2.325   8.081  18.232  0.00  0.00    +0.000 C 
ATOM      6  C   UNL     1       2.304   7.503  19.631  0.00  0.00    +0.000 C 
ATOM      7  C   UNL     1       1.547   7.973  20.653  0.00  0.00    +0.000 C 
ATOM      8  C   UNL     1       3.189   6.258  19.795  0.00  0.00    +0.000 C 
ENDROOT
BRANCH   8   9
ATOM      9  C   UNL     1       2.320   5.019  20.021  0.00  0.00    +0.000 A 
ATOM     10  C   UNL     1       1.464   4.528  19.027  0.00  0.00    +0.000 A 
ATOM     11  C   UNL     1       0.652   3.432  19.294  0.00  0.00    +0.000 A 
ATOM     12  C   UNL     1       0.728   2.850  20.547  0.00  0.00    +0.000 A 
ATOM     13  N   UNL     1       1.558   3.275  21.524  0.00  0.00    +0.000 NA
ATOM     14  C   UNL     1       2.336   4.339  21.237  0.00  0.00    +0.000 A 
ENDBRANCH   8   9
BRANCH   1  15
ATOM     15  C   UNL     1       5.257   5.004  18.946  0.00  0.00    +0.000 C 
ATOM     16  O   UNL     1       6.248   5.185  19.634  0.00  0.00    +0.000 OA
BRANCH  15  17
ATOM     17  O   UNL     1       4.977   3.837  18.303  0.00  0.00    +0.000 OA
BRANCH  17  19
ATOM     18  C   UNL     1       3.745   1.732  18.466  0.00  0.00    +0.000 C 
ATOM     19  C   UNL     1       4.675   2.717  19.154  0.00  0.00    +0.000 C 
ENDBRANCH  17  19
ENDBRANCH  15  17
ENDBRANCH   1  15
BRANCH   7  20
ATOM     20  O   UNL     1       1.625   7.439  21.929  0.00  0.00    +0.000 OA
ATOM     21  H   UNL     1       2.044   6.569  21.940  0.00  0.00    +0.000 HD
ENDBRANCH   7  20
BRANCH   5  22
ATOM     22  C   UNL     1       1.394   9.274  17.829  0.00  0.00    +0.000 C 
BRANCH  22  23
ATOM     23  S   UNL     1       2.303  10.881  18.017  0.00  0.00    +0.000 S 
BRANCH  23  24
ATOM     24  C   UNL     1       1.193  12.090  18.712  0.00  0.00    +0.000 A 
ATOM     25  C   UNL     1       1.542  13.201  19.478  0.00  0.00    +0.000 A 
ATOM     26  C   UNL     1       0.541  14.060  19.963  0.00  0.00    +0.000 A 
ATOM     27  C   UNL     1      -0.807  13.818  19.689  0.00  0.00    +0.000 A 
ATOM     28  C   UNL     1      -1.165  12.714  18.929  0.00  0.00    +0.000 A 
ATOM     29  C   UNL     1      -0.169  11.859  18.446  0.00  0.00    +0.000 A 
ENDBRANCH  23  24
ENDBRANCH  22  23
ENDBRANCH   5  22
BRANCH   7  30
ATOM     30  O   UNL     1       0.617   8.979  20.468  0.00  0.00    +0.000 OA
BRANCH  30  31
ATOM     31  C   UNL     1       0.720  10.022  21.449  0.00  0.00    +0.000 C 
ATOM     32  C   UNL     1      -0.669  10.457  21.871  0.00  0.00    +0.000 C 
ENDBRANCH  30  31
ENDBRANCH   7  30
TORSDOF 10
ENDMDL
