MODEL 1
REMARK VINA RESULT:      -7.5      0.000      0.000
REMARK  Name = 
REMARK  7 active torsions:
REMARK  status: ('A' for Active; 'I' for Inactive)
REMARK    1  A    between atoms: C_1  and  C_2
REMARK    2  A    between atoms: C_2  and  N_3
REMARK    3  A    between atoms: C_5  and  C_6
REMARK    4  A    between atoms: C_6  and  N_7
REMARK    5  A    between atoms: C_10  and  O_11
REMARK    6  A    between atoms: C_10  and  C_12
REMARK    7  A    between atoms: C_12  and  N_13
REMARK                            x       y       z     vdW  Elec       q    Type
REMARK                         _______ _______ _______ _____ _____    ______ ____
ROOT
ATOM      1  N   UNL     1       6.400   4.776  14.925  0.00  0.00    +0.000 NA
ATOM      2  C   UNL     1       7.213   5.699  15.724  0.00  0.00    +0.000 C 
ATOM      3  C   UNL     1       6.547   6.078  17.050  0.00  0.00    +0.000 C 
ATOM      4  C   UNL     1       6.170   4.831  17.868  0.00  0.00    +0.000 C 
ATOM      5  C   UNL     1       5.284   3.935  16.995  0.00  0.00    +0.000 C 
ATOM      6  C   UNL     1       5.976   3.587  15.675  0.00  0.00    +0.000 C 
ENDROOT
BRANCH   4   7
ATOM      7  O   UNL     1       7.377   4.119  18.184  0.00  0.00    +0.000 OA
ATOM      8  H   UNL     1       8.137   4.610  17.830  0.00  0.00    +0.000 HD
ENDBRANCH   4   7
BRANCH   1   9
ATOM      9  C   UNL     1       7.044   4.425  13.640  0.00  0.00    +0.000 C 
BRANCH   9  12
ATOM     10  N   UNL     1       4.498   3.031  11.392  0.00  0.00    +0.000 N 
ATOM     11  C   UNL     1       4.939   4.072  12.156  0.00  0.00    +0.000 A 
ATOM     12  C   UNL     1       6.153   3.685  12.691  0.00  0.00    +0.000 A 
ATOM     13  C   UNL     1       6.376   2.413  12.111  0.00  0.00    +0.000 A 
ATOM     14  N   UNL     1       5.374   2.013  11.327  0.00  0.00    +0.000 NA
BRANCH  10  16
ATOM     15  C   UNL     1       3.016   4.146   9.763  0.00  0.00    +0.000 C 
ATOM     16  C   UNL     1       3.240   2.952  10.674  0.00  0.00    +0.000 C 
ENDBRANCH  10  16
ENDBRANCH   9  12
ENDBRANCH   1   9
BRANCH   4  17
ATOM     17  C   UNL     1       5.463   5.262  19.173  0.00  0.00    +0.000 C 
BRANCH  17  18
ATOM     18  N   UNL     1       4.005   5.232  19.134  0.00  0.00    +0.000 N 
ATOM     19  C   UNL     1       3.248   6.001  18.280  0.00  0.00    +0.000 A 
ATOM     20  C   UNL     1       1.929   5.638  18.426  0.00  0.00    +0.000 A 
ATOM     21  C   UNL     1       1.888   4.575  19.355  0.00  0.00    +0.000 A 
ATOM     22  N   UNL     1       0.814   3.853  19.760  0.00  0.00    +0.000 NA
ATOM     23  C   UNL     1       1.093   2.874  20.640  0.00  0.00    +0.000 A 
ATOM     24  C   UNL     1       2.347   2.593  21.164  0.00  0.00    +0.000 A 
ATOM     25  C   UNL     1       3.443   3.350  20.758  0.00  0.00    +0.000 A 
ATOM     26  C   UNL     1       3.189   4.347  19.809  0.00  0.00    +0.000 A 
ENDBRANCH  17  18
ENDBRANCH   4  17
TORSDOF 6
ENDMDL
MODEL 2
REMARK VINA RESULT:      -7.4      1.241      1.306
REMARK  Name = 
REMARK  7 active torsions:
REMARK  status: ('A' for Active; 'I' for Inactive)
REMARK    1  A    between atoms: C_1  and  C_2
REMARK    2  A    between atoms: C_2  and  N_3
REMARK    3  A    between atoms: C_5  and  C_6
REMARK    4  A    between atoms: C_6  and  N_7
REMARK    5  A    between atoms: C_10  and  O_11
REMARK    6  A    between atoms: C_10  and  C_12
REMARK    7  A    between atoms: C_12  and  N_13
REMARK                            x       y       z     vdW  Elec       q    Type
REMARK                         _______ _______ _______ _____ _____    ______ ____
ROOT
ATOM      1  N   UNL     1       6.360   4.588  15.109  0.00  0.00    +0.000 NA
ATOM      2  C   UNL     1       5.466   5.717  15.389  0.00  0.00    +0.000 C 
ATOM      3  C   UNL     1       4.917   5.695  16.818  0.00  0.00    +0.000 C 
ATOM      4  C   UNL     1       6.050   5.624  17.856  0.00  0.00    +0.000 C 
ATOM      5  C   UNL     1       6.916   4.400  17.536  0.00  0.00    +0.000 C 
ATOM      6  C   UNL     1       7.437   4.448  16.097  0.00  0.00    +0.000 C 
ENDROOT
BRANCH   4   7
ATOM      7  O   UNL     1       6.856   6.805  17.725  0.00  0.00    +0.000 OA
ATOM      8  H   UNL     1       7.354   6.759  16.891  0.00  0.00    +0.000 HD
ENDBRANCH   4   7
BRANCH   1   9
ATOM      9  C   UNL     1       6.877   4.609  13.722  0.00  0.00    +0.000 C 
BRANCH   9  12
ATOM     10  N   UNL     1       4.487   3.052  11.410  0.00  0.00    +0.000 N 
ATOM     11  C   UNL     1       4.842   4.123  12.178  0.00  0.00    +0.000 A 
ATOM     12  C   UNL     1       6.060   3.811  12.753  0.00  0.00    +0.000 A 
ATOM     13  C   UNL     1       6.374   2.550  12.192  0.00  0.00    +0.000 A 
ATOM     14  N   UNL     1       5.422   2.086  11.381  0.00  0.00    +0.000 NA
BRANCH  10  16
ATOM     15  C   UNL     1       3.013   4.047   9.699  0.00  0.00    +0.000 C 
ATOM     16  C   UNL     1       3.258   2.893  10.655  0.00  0.00    +0.000 C 
ENDBRANCH  10  16
ENDBRANCH   9  12
ENDBRANCH   1   9
BRANCH   4  17
ATOM     17  C   UNL     1       5.447   5.559  19.278  0.00  0.00    +0.000 C 
BRANCH  17  18
ATOM     18  N   UNL     1       4.023   5.255  19.340  0.00  0.00    +0.000 N 
ATOM     19  C   UNL     1       3.042   6.210  19.486  0.00  0.00    +0.000 A 
ATOM     20  C   UNL     1       1.818   5.590  19.387  0.00  0.00    +0.000 A 
ATOM     21  C   UNL     1       2.060   4.226  19.114  0.00  0.00    +0.000 A 
ATOM     22  N   UNL     1       1.157   3.245  18.871  0.00  0.00    +0.000 NA
ATOM     23  C   UNL     1       1.693   2.037  18.611  0.00  0.00    +0.000 A 
ATOM     24  C   UNL     1       3.048   1.739  18.613  0.00  0.00    +0.000 A 
ATOM     25  C   UNL     1       3.969   2.748  18.882  0.00  0.00    +0.000 A 
ATOM     26  C   UNL     1       3.441   4.024  19.112  0.00  0.00    +0.000 A 
ENDBRANCH  17  18
ENDBRANCH   4  17
TORSDOF 6
ENDMDL
MODEL 3
REMARK VINA RESULT:      -7.3      4.179      9.057
REMARK  Name = 
REMARK  7 active torsions:
REMARK  status: ('A' for Active; 'I' for Inactive)
REMARK    1  A    between atoms: C_1  and  C_2
REMARK    2  A    between atoms: C_2  and  N_3
REMARK    3  A    between atoms: C_5  and  C_6
REMARK    4  A    between atoms: C_6  and  N_7
REMARK    5  A    between atoms: C_10  and  O_11
REMARK    6  A    between atoms: C_10  and  C_12
REMARK    7  A    between atoms: C_12  and  N_13
REMARK                            x       y       z     vdW  Elec       q    Type
REMARK                         _______ _______ _______ _____ _____    ______ ____
ROOT
ATOM      1  N   UNL     1       1.972   8.162  19.543  0.00  0.00    +0.000 NA
ATOM      2  C   UNL     1       2.552   7.889  18.224  0.00  0.00    +0.000 C 
ATOM      3  C   UNL     1       3.597   6.770  18.258  0.00  0.00    +0.000 C 
ATOM      4  C   UNL     1       3.027   5.485  18.882  0.00  0.00    +0.000 C 
ATOM      5  C   UNL     1       2.482   5.829  20.273  0.00  0.00    +0.000 C 
ATOM      6  C   UNL     1       1.451   6.958  20.203  0.00  0.00    +0.000 C 
ENDROOT
BRANCH   4   7
ATOM      7  O   UNL     1       1.939   5.030  18.062  0.00  0.00    +0.000 OA
ATOM      8  H   UNL     1       1.243   5.708  18.053  0.00  0.00    +0.000 HD
ENDBRANCH   4   7
BRANCH   1   9
ATOM      9  C   UNL     1       0.972   9.252  19.504  0.00  0.00    +0.000 C 
BRANCH   9  12
ATOM     10  N   UNL     1      -0.577  10.638  22.532  0.00  0.00    +0.000 N 
ATOM     11  C   UNL     1      -0.589  10.491  21.174  0.00  0.00    +0.000 A 
ATOM     12  C   UNL     1       0.489   9.688  20.854  0.00  0.00    +0.000 A 
ATOM     13  C   UNL     1       1.033   9.349  22.116  0.00  0.00    +0.000 A 
ATOM     14  N   UNL     1       0.392   9.925  23.134  0.00  0.00    +0.000 NA
BRANCH  10  16
ATOM     15  C   UNL     1      -1.367  12.924  23.020  0.00  0.00    +0.000 C 
ATOM     16  C   UNL     1      -1.486  11.441  23.327  0.00  0.00    +0.000 C 
ENDBRANCH  10  16
ENDBRANCH   9  12
ENDBRANCH   1   9
BRANCH   4  17
ATOM     17  C   UNL     1       4.128   4.401  18.936  0.00  0.00    +0.000 C 
BRANCH  17  18
ATOM     18  N   UNL     1       5.380   4.749  18.276  0.00  0.00    +0.000 N 
ATOM     19  C   UNL     1       6.527   5.106  18.949  0.00  0.00    +0.000 A 
ATOM     20  C   UNL     1       7.540   5.250  18.030  0.00  0.00    +0.000 A 
ATOM     21  C   UNL     1       7.010   4.914  16.766  0.00  0.00    +0.000 A 
ATOM     22  N   UNL     1       7.654   4.846  15.575  0.00  0.00    +0.000 NA
ATOM     23  C   UNL     1       6.885   4.465  14.538  0.00  0.00    +0.000 A 
ATOM     24  C   UNL     1       5.527   4.187  14.601  0.00  0.00    +0.000 A 
ATOM     25  C   UNL     1       4.867   4.276  15.824  0.00  0.00    +0.000 A 
ATOM     26  C   UNL     1       5.653   4.627  16.928  0.00  0.00    +0.000 A 
ENDBRANCH  17  18
ENDBRANCH   4  17
TORSDOF 6
ENDMDL
MODEL 4
REMARK VINA RESULT:      -7.3      1.160      1.829
REMARK  Name = 
REMARK  7 active torsions:
REMARK  status: ('A' for Active; 'I' for Inactive)
REMARK    1  A    between atoms: C_1  and  C_2
REMARK    2  A    between atoms: C_2  and  N_3
REMARK    3  A    between atoms: C_5  and  C_6
REMARK    4  A    between atoms: C_6  and  N_7
REMARK    5  A    between atoms: C_10  and  O_11
REMARK    6  A    between atoms: C_10  and  C_12
REMARK    7  A    between atoms: C_12  and  N_13
REMARK                            x       y       z     vdW  Elec       q    Type
REMARK                         _______ _______ _______ _____ _____    ______ ____
ROOT
ATOM      1  N   UNL     1       6.515   4.386  15.064  0.00  0.00    +0.000 NA
ATOM      2  C   UNL     1       5.278   5.146  15.267  0.00  0.00    +0.000 C 
ATOM      3  C   UNL     1       4.776   5.083  16.712  0.00  0.00    +0.000 C 
ATOM      4  C   UNL     1       5.862   5.529  17.706  0.00  0.00    +0.000 C 
ATOM      5  C   UNL     1       7.107   4.666  17.474  0.00  0.00    +0.000 C 
ATOM      6  C   UNL     1       7.573   4.743  16.018  0.00  0.00    +0.000 C 
ENDROOT
BRANCH   4   7
ATOM      7  O   UNL     1       6.192   6.899  17.427  0.00  0.00    +0.000 OA
ATOM      8  H   UNL     1       6.071   7.426  18.234  0.00  0.00    +0.000 HD
ENDBRANCH   4   7
BRANCH   1   9
ATOM      9  C   UNL     1       6.987   4.441  13.662  0.00  0.00    +0.000 C 
BRANCH   9  12
ATOM     10  N   UNL     1       4.473   3.039  11.383  0.00  0.00    +0.000 N 
ATOM     11  C   UNL     1       4.884   4.067  12.181  0.00  0.00    +0.000 A 
ATOM     12  C   UNL     1       6.114   3.704  12.693  0.00  0.00    +0.000 A 
ATOM     13  C   UNL     1       6.377   2.461  12.068  0.00  0.00    +0.000 A 
ATOM     14  N   UNL     1       5.383   2.054  11.277  0.00  0.00    +0.000 NA
BRANCH  10  16
ATOM     15  C   UNL     1       3.003   4.091   9.704  0.00  0.00    +0.000 C 
ATOM     16  C   UNL     1       3.213   2.940  10.672  0.00  0.00    +0.000 C 
ENDBRANCH  10  16
ENDBRANCH   9  12
ENDBRANCH   1   9
BRANCH   4  17
ATOM     17  C   UNL     1       5.325   5.407  19.150  0.00  0.00    +0.000 C 
BRANCH  17  18
ATOM     18  N   UNL     1       4.547   4.205  19.429  0.00  0.00    +0.000 N 
ATOM     19  C   UNL     1       5.093   2.945  19.517  0.00  0.00    +0.000 A 
ATOM     20  C   UNL     1       4.103   2.072  19.906  0.00  0.00    +0.000 A 
ATOM     21  C   UNL     1       2.933   2.833  20.118  0.00  0.00    +0.000 A 
ATOM     22  N   UNL     1       1.727   2.412  20.572  0.00  0.00    +0.000 NA
ATOM     23  C   UNL     1       0.803   3.383  20.702  0.00  0.00    +0.000 A 
ATOM     24  C   UNL     1       0.987   4.720  20.379  0.00  0.00    +0.000 A 
ATOM     25  C   UNL     1       2.223   5.142  19.896  0.00  0.00    +0.000 A 
ATOM     26  C   UNL     1       3.216   4.161  19.793  0.00  0.00    +0.000 A 
ENDBRANCH  17  18
ENDBRANCH   4  17
TORSDOF 6
ENDMDL
MODEL 5
REMARK VINA RESULT:      -7.1      3.701      8.506
REMARK  Name = 
REMARK  7 active torsions:
REMARK  status: ('A' for Active; 'I' for Inactive)
REMARK    1  A    between atoms: C_1  and  C_2
REMARK    2  A    between atoms: C_2  and  N_3
REMARK    3  A    between atoms: C_5  and  C_6
REMARK    4  A    between atoms: C_6  and  N_7
REMARK    5  A    between atoms: C_10  and  O_11
REMARK    6  A    between atoms: C_10  and  C_12
REMARK    7  A    between atoms: C_12  and  N_13
REMARK                            x       y       z     vdW  Elec       q    Type
REMARK                         _______ _______ _______ _____ _____    ______ ____
ROOT
ATOM      1  N   UNL     1       1.688   6.565  20.703  0.00  0.00    +0.000 NA
ATOM      2  C   UNL     1       2.333   6.951  19.444  0.00  0.00    +0.000 C 
ATOM      3  C   UNL     1       3.611   6.155  19.167  0.00  0.00    +0.000 C 
ATOM      4  C   UNL     1       3.351   4.639  19.206  0.00  0.00    +0.000 C 
ATOM      5  C   UNL     1       2.723   4.297  20.562  0.00  0.00    +0.000 C 
ATOM      6  C   UNL     1       1.456   5.119  20.811  0.00  0.00    +0.000 C 
ENDROOT
BRANCH   4   7
ATOM      7  O   UNL     1       2.412   4.316  18.169  0.00  0.00    +0.000 OA
ATOM      8  H   UNL     1       1.603   4.840  18.298  0.00  0.00    +0.000 HD
ENDBRANCH   4   7
BRANCH   1   9
ATOM      9  C   UNL     1       0.460   7.347  20.971  0.00  0.00    +0.000 C 
BRANCH   9  12
ATOM     10  N   UNL     1       0.876  10.951  20.401  0.00  0.00    +0.000 N 
ATOM     11  C   UNL     1       0.520   9.724  19.919  0.00  0.00    +0.000 A 
ATOM     12  C   UNL     1       0.666   8.831  20.963  0.00  0.00    +0.000 A 
ATOM     13  C   UNL     1       1.045   9.655  22.050  0.00  0.00    +0.000 A 
ATOM     14  N   UNL     1       1.176  10.938  21.712  0.00  0.00    +0.000 NA
BRANCH  10  16
ATOM     15  C   UNL     1       0.464  13.383  20.474  0.00  0.00    +0.000 C 
ATOM     16  C   UNL     1       0.935  12.193  19.656  0.00  0.00    +0.000 C 
ENDBRANCH  10  16
ENDBRANCH   9  12
ENDBRANCH   1   9
BRANCH   4  17
ATOM     17  C   UNL     1       4.675   3.879  18.966  0.00  0.00    +0.000 C 
BRANCH  17  18
ATOM     18  N   UNL     1       5.695   4.616  18.229  0.00  0.00    +0.000 N 
ATOM     19  C   UNL     1       6.725   5.304  18.829  0.00  0.00    +0.000 A 
ATOM     20  C   UNL     1       7.560   5.778  17.843  0.00  0.00    +0.000 A 
ATOM     21  C   UNL     1       7.056   5.315  16.609  0.00  0.00    +0.000 A 
ATOM     22  N   UNL     1       7.585   5.475  15.371  0.00  0.00    +0.000 NA
ATOM     23  C   UNL     1       6.888   4.889  14.379  0.00  0.00    +0.000 A 
ATOM     24  C   UNL     1       5.696   4.195  14.532  0.00  0.00    +0.000 A 
ATOM     25  C   UNL     1       5.148   4.049  15.805  0.00  0.00    +0.000 A 
ATOM     26  C   UNL     1       5.876   4.611  16.860  0.00  0.00    +0.000 A 
ENDBRANCH  17  18
ENDBRANCH   4  17
TORSDOF 6
ENDMDL
MODEL 6
REMARK VINA RESULT:      -6.9      3.026      3.809
REMARK  Name = 
REMARK  7 active torsions:
REMARK  status: ('A' for Active; 'I' for Inactive)
REMARK    1  A    between atoms: C_1  and  C_2
REMARK    2  A    between atoms: C_2  and  N_3
REMARK    3  A    between atoms: C_5  and  C_6
REMARK    4  A    between atoms: C_6  and  N_7
REMARK    5  A    between atoms: C_10  and  O_11
REMARK    6  A    between atoms: C_10  and  C_12
REMARK    7  A    between atoms: C_12  and  N_13
REMARK                            x       y       z     vdW  Elec       q    Type
REMARK                         _______ _______ _______ _____ _____    ______ ____
ROOT
ATOM      1  N   UNL     1       5.444   5.318  16.327  0.00  0.00    +0.000 NA
ATOM      2  C   UNL     1       5.478   6.615  17.010  0.00  0.00    +0.000 C 
ATOM      3  C   UNL     1       4.138   6.978  17.657  0.00  0.00    +0.000 C 
ATOM      4  C   UNL     1       3.653   5.871  18.608  0.00  0.00    +0.000 C 
ATOM      5  C   UNL     1       3.594   4.556  17.822  0.00  0.00    +0.000 C 
ATOM      6  C   UNL     1       4.946   4.231  17.180  0.00  0.00    +0.000 C 
ENDROOT
BRANCH   4   7
ATOM      7  O   UNL     1       4.615   5.732  19.665  0.00  0.00    +0.000 OA
ATOM      8  H   UNL     1       4.757   6.599  20.081  0.00  0.00    +0.000 HD
ENDBRANCH   4   7
BRANCH   1   9
ATOM      9  C   UNL     1       6.739   4.980  15.695  0.00  0.00    +0.000 C 
BRANCH   9  12
ATOM     10  N   UNL     1       6.034   3.455  12.429  0.00  0.00    +0.000 N 
ATOM     11  C   UNL     1       5.679   3.641  13.734  0.00  0.00    +0.000 A 
ATOM     12  C   UNL     1       6.621   4.489  14.284  0.00  0.00    +0.000 A 
ATOM     13  C   UNL     1       7.456   4.809  13.186  0.00  0.00    +0.000 A 
ATOM     14  N   UNL     1       7.106   4.182  12.063  0.00  0.00    +0.000 NA
BRANCH  10  16
ATOM     15  C   UNL     1       3.982   3.089  11.109  0.00  0.00    +0.000 C 
ATOM     16  C   UNL     1       5.375   2.598  11.462  0.00  0.00    +0.000 C 
ENDBRANCH  10  16
ENDBRANCH   9  12
ENDBRANCH   1   9
BRANCH   4  17
ATOM     17  C   UNL     1       2.279   6.260  19.200  0.00  0.00    +0.000 C 
BRANCH  17  18
ATOM     18  N   UNL     1       1.920   7.668  19.073  0.00  0.00    +0.000 N 
ATOM     19  C   UNL     1       1.815   8.325  17.868  0.00  0.00    +0.000 A 
ATOM     20  C   UNL     1       1.346   9.596  18.109  0.00  0.00    +0.000 A 
ATOM     21  C   UNL     1       1.104   9.697  19.496  0.00  0.00    +0.000 A 
ATOM     22  N   UNL     1       0.576  10.740  20.183  0.00  0.00    +0.000 NA
ATOM     23  C   UNL     1       0.435  10.530  21.506  0.00  0.00    +0.000 A 
ATOM     24  C   UNL     1       0.815   9.381  22.185  0.00  0.00    +0.000 A 
ATOM     25  C   UNL     1       1.373   8.321  21.475  0.00  0.00    +0.000 A 
ATOM     26  C   UNL     1       1.490   8.495  20.092  0.00  0.00    +0.000 A 
ENDBRANCH  17  18
ENDBRANCH   4  17
TORSDOF 6
ENDMDL
MODEL 7
REMARK VINA RESULT:      -6.9      1.471      2.029
REMARK  Name = 
REMARK  7 active torsions:
REMARK  status: ('A' for Active; 'I' for Inactive)
REMARK    1  A    between atoms: C_1  and  C_2
REMARK    2  A    between atoms: C_2  and  N_3
REMARK    3  A    between atoms: C_5  and  C_6
REMARK    4  A    between atoms: C_6  and  N_7
REMARK    5  A    between atoms: C_10  and  O_11
REMARK    6  A    between atoms: C_10  and  C_12
REMARK    7  A    between atoms: C_12  and  N_13
REMARK                            x       y       z     vdW  Elec       q    Type
REMARK                         _______ _______ _______ _____ _____    ______ ____
ROOT
ATOM      1  N   UNL     1       6.185   4.699  15.007  0.00  0.00    +0.000 NA
ATOM      2  C   UNL     1       5.336   5.835  15.377  0.00  0.00    +0.000 C 
ATOM      3  C   UNL     1       4.852   5.764  16.828  0.00  0.00    +0.000 C 
ATOM      4  C   UNL     1       6.028   5.618  17.808  0.00  0.00    +0.000 C 
ATOM      5  C   UNL     1       6.845   4.389  17.396  0.00  0.00    +0.000 C 
ATOM      6  C   UNL     1       7.301   4.488  15.938  0.00  0.00    +0.000 C 
ENDROOT
BRANCH   4   7
ATOM      7  O   UNL     1       6.859   6.784  17.691  0.00  0.00    +0.000 OA
ATOM      8  H   UNL     1       6.585   7.438  18.356  0.00  0.00    +0.000 HD
ENDBRANCH   4   7
BRANCH   1   9
ATOM      9  C   UNL     1       6.639   4.768  13.600  0.00  0.00    +0.000 C 
BRANCH   9  12
ATOM     10  N   UNL     1       5.724   1.962  11.416  0.00  0.00    +0.000 N 
ATOM     11  C   UNL     1       6.653   2.572  12.209  0.00  0.00    +0.000 A 
ATOM     12  C   UNL     1       6.055   3.710  12.716  0.00  0.00    +0.000 A 
ATOM     13  C   UNL     1       4.732   3.636  12.215  0.00  0.00    +0.000 A 
ATOM     14  N   UNL     1       4.530   2.581  11.425  0.00  0.00    +0.000 NA
BRANCH  10  16
ATOM     15  C   UNL     1       6.227  -0.453  11.482  0.00  0.00    +0.000 C 
ATOM     16  C   UNL     1       5.911   0.761  10.625  0.00  0.00    +0.000 C 
ENDBRANCH  10  16
ENDBRANCH   9  12
ENDBRANCH   1   9
BRANCH   4  17
ATOM     17  C   UNL     1       5.489   5.506  19.253  0.00  0.00    +0.000 C 
BRANCH  17  18
ATOM     18  N   UNL     1       4.065   5.214  19.368  0.00  0.00    +0.000 N 
ATOM     19  C   UNL     1       3.105   6.172  19.599  0.00  0.00    +0.000 A 
ATOM     20  C   UNL     1       1.869   5.570  19.531  0.00  0.00    +0.000 A 
ATOM     21  C   UNL     1       2.081   4.217  19.190  0.00  0.00    +0.000 A 
ATOM     22  N   UNL     1       1.155   3.256  18.947  0.00  0.00    +0.000 NA
ATOM     23  C   UNL     1       1.664   2.056  18.612  0.00  0.00    +0.000 A 
ATOM     24  C   UNL     1       3.014   1.743  18.539  0.00  0.00    +0.000 A 
ATOM     25  C   UNL     1       3.959   2.730  18.807  0.00  0.00    +0.000 A 
ATOM     26  C   UNL     1       3.458   4.000  19.115  0.00  0.00    +0.000 A 
ENDBRANCH  17  18
ENDBRANCH   4  17
TORSDOF 6
ENDMDL
MODEL 8
REMARK VINA RESULT:      -6.8      4.080      6.855
REMARK  Name = 
REMARK  7 active torsions:
REMARK  status: ('A' for Active; 'I' for Inactive)
REMARK    1  A    between atoms: C_1  and  C_2
REMARK    2  A    between atoms: C_2  and  N_3
REMARK    3  A    between atoms: C_5  and  C_6
REMARK    4  A    between atoms: C_6  and  N_7
REMARK    5  A    between atoms: C_10  and  O_11
REMARK    6  A    between atoms: C_10  and  C_12
REMARK    7  A    between atoms: C_12  and  N_13
REMARK                            x       y       z     vdW  Elec       q    Type
REMARK                         _______ _______ _______ _____ _____    ______ ____
ROOT
ATOM      1  N   UNL     1       7.329   7.737  18.005  0.00  0.00    +0.000 NA
ATOM      2  C   UNL     1       8.185   6.729  18.639  0.00  0.00    +0.000 C 
ATOM      3  C   UNL     1       7.383   5.655  19.378  0.00  0.00    +0.000 C 
ATOM      4  C   UNL     1       6.344   4.991  18.457  0.00  0.00    +0.000 C 
ATOM      5  C   UNL     1       5.456   6.092  17.867  0.00  0.00    +0.000 C 
ATOM      6  C   UNL     1       6.291   7.154  17.147  0.00  0.00    +0.000 C 
ENDROOT
BRANCH   4   7
ATOM      7  O   UNL     1       7.045   4.340  17.385  0.00  0.00    +0.000 OA
ATOM      8  H   UNL     1       6.979   3.378  17.502  0.00  0.00    +0.000 HD
ENDBRANCH   4   7
BRANCH   1   9
ATOM      9  C   UNL     1       8.112   8.779  17.302  0.00  0.00    +0.000 C 
BRANCH   9  12
ATOM     10  N   UNL     1       9.327  11.774  19.044  0.00  0.00    +0.000 N 
ATOM     11  C   UNL     1       8.767  11.215  17.932  0.00  0.00    +0.000 A 
ATOM     12  C   UNL     1       8.625   9.866  18.196  0.00  0.00    +0.000 A 
ATOM     13  C   UNL     1       9.067   9.745  19.536  0.00  0.00    +0.000 A 
ATOM     14  N   UNL     1       9.495  10.898  20.051  0.00  0.00    +0.000 NA
BRANCH  10  16
ATOM     15  C   UNL     1       9.682  13.939  17.915  0.00  0.00    +0.000 C 
ATOM     16  C   UNL     1       9.714  13.161  19.218  0.00  0.00    +0.000 C 
ENDBRANCH  10  16
ENDBRANCH   9  12
ENDBRANCH   1   9
BRANCH   4  17
ATOM     17  C   UNL     1       5.531   3.949  19.258  0.00  0.00    +0.000 C 
BRANCH  17  18
ATOM     18  N   UNL     1       4.248   3.574  18.675  0.00  0.00    +0.000 N 
ATOM     19  C   UNL     1       4.113   2.983  17.440  0.00  0.00    +0.000 A 
ATOM     20  C   UNL     1       2.788   2.661  17.258  0.00  0.00    +0.000 A 
ATOM     21  C   UNL     1       2.105   3.013  18.442  0.00  0.00    +0.000 A 
ATOM     22  N   UNL     1       0.799   2.819  18.749  0.00  0.00    +0.000 NA
ATOM     23  C   UNL     1       0.440   3.236  19.978  0.00  0.00    +0.000 A 
ATOM     24  C   UNL     1       1.276   3.858  20.895  0.00  0.00    +0.000 A 
ATOM     25  C   UNL     1       2.613   4.070  20.566  0.00  0.00    +0.000 A 
ATOM     26  C   UNL     1       3.023   3.606  19.311  0.00  0.00    +0.000 A 
ENDBRANCH  17  18
ENDBRANCH   4  17
TORSDOF 6
ENDMDL
MODEL 9
REMARK VINA RESULT:      -6.8      4.114      7.084
REMARK  Name = 
REMARK  7 active torsions:
REMARK  status: ('A' for Active; 'I' for Inactive)
REMARK    1  A    between atoms: C_1  and  C_2
REMARK    2  A    between atoms: C_2  and  N_3
REMARK    3  A    between atoms: C_5  and  C_6
REMARK    4  A    between atoms: C_6  and  N_7
REMARK    5  A    between atoms: C_10  and  O_11
REMARK    6  A    between atoms: C_10  and  C_12
REMARK    7  A    between atoms: C_12  and  N_13
REMARK                            x       y       z     vdW  Elec       q    Type
REMARK                         _______ _______ _______ _____ _____    ______ ____
ROOT
ATOM      1  N   UNL     1       7.442   7.781  18.028  0.00  0.00    +0.000 NA
ATOM      2  C   UNL     1       8.236   6.757  18.716  0.00  0.00    +0.000 C 
ATOM      3  C   UNL     1       7.368   5.718  19.431  0.00  0.00    +0.000 C 
ATOM      4  C   UNL     1       6.356   5.071  18.471  0.00  0.00    +0.000 C 
ATOM      5  C   UNL     1       5.529   6.188  17.824  0.00  0.00    +0.000 C 
ATOM      6  C   UNL     1       6.428   7.215  17.130  0.00  0.00    +0.000 C 
ENDROOT
BRANCH   4   7
ATOM      7  O   UNL     1       7.086   4.384  17.442  0.00  0.00    +0.000 OA
ATOM      8  H   UNL     1       7.116   4.942  16.647  0.00  0.00    +0.000 HD
ENDBRANCH   4   7
BRANCH   1   9
ATOM      9  C   UNL     1       8.287   8.788  17.350  0.00  0.00    +0.000 C 
BRANCH   9  12
ATOM     10  N   UNL     1       9.339  11.236  19.877  0.00  0.00    +0.000 N 
ATOM     11  C   UNL     1       9.206   9.932  19.497  0.00  0.00    +0.000 A 
ATOM     12  C   UNL     1       8.679   9.943  18.219  0.00  0.00    +0.000 A 
ATOM     13  C   UNL     1       8.610  11.322  17.906  0.00  0.00    +0.000 A 
ATOM     14  N   UNL     1       9.006  12.107  18.909  0.00  0.00    +0.000 NA
BRANCH  10  16
ATOM     15  C   UNL     1       9.430  13.177  21.398  0.00  0.00    +0.000 C 
ATOM     16  C   UNL     1       9.802  11.723  21.163  0.00  0.00    +0.000 C 
ENDBRANCH  10  16
ENDBRANCH   9  12
ENDBRANCH   1   9
BRANCH   4  17
ATOM     17  C   UNL     1       5.475   4.065  19.246  0.00  0.00    +0.000 C 
BRANCH  17  18
ATOM     18  N   UNL     1       4.226   3.693  18.592  0.00  0.00    +0.000 N 
ATOM     19  C   UNL     1       4.149   3.221  17.301  0.00  0.00    +0.000 A 
ATOM     20  C   UNL     1       2.845   2.860  17.050  0.00  0.00    +0.000 A 
ATOM     21  C   UNL     1       2.118   3.063  18.242  0.00  0.00    +0.000 A 
ATOM     22  N   UNL     1       0.814   2.784  18.490  0.00  0.00    +0.000 NA
ATOM     23  C   UNL     1       0.406   3.061  19.743  0.00  0.00    +0.000 A 
ATOM     24  C   UNL     1       1.189   3.626  20.740  0.00  0.00    +0.000 A 
ATOM     25  C   UNL     1       2.522   3.928  20.473  0.00  0.00    +0.000 A 
ATOM     26  C   UNL     1       2.985   3.608  19.191  0.00  0.00    +0.000 A 
ENDBRANCH  17  18
ENDBRANCH   4  17
TORSDOF 6
ENDMDL
