MODEL 1
REMARK VINA RESULT:      -8.1      0.000      0.000
REMARK  Name = 
REMARK  5 active torsions:
REMARK  status: ('A' for Active; 'I' for Inactive)
REMARK    1  A    between atoms: C_2  and  C_3
REMARK    2  A    between atoms: C_3  and  C_4
REMARK    3  A    between atoms: C_4  and  C_5
REMARK    4  A    between atoms: N_11  and  N_12
REMARK    5  A    between atoms: N_12  and  C_13
REMARK                            x       y       z     vdW  Elec       q    Type
REMARK                         _______ _______ _______ _____ _____    ______ ____
ROOT
ATOM      1  O   UNL     1       3.876   2.390  20.723  0.00  0.00    +0.000 OA
ATOM      2  C   UNL     1       3.711   2.391  19.505  0.00  0.00    +0.000 C 
ATOM      3  N   UNL     1       4.787   2.716  18.709  0.00  0.00    +0.000 N 
ATOM      4  H   UNL     1       5.551   3.133  19.231  0.00  0.00    +0.000 HD
ENDROOT
BRANCH   3   5
ATOM      5  N   UNL     1       4.661   3.054  17.356  0.00  0.00    +0.000 N 
ATOM      6  H   UNL     1       4.653   2.241  16.737  0.00  0.00    +0.000 HD
BRANCH   5   7
ATOM      7  C   UNL     1       5.636   3.982  16.896  0.00  0.00    +0.000 A 
ATOM      8  C   UNL     1       5.958   3.986  15.540  0.00  0.00    +0.000 A 
ATOM      9  C   UNL     1       6.858   4.926  15.070  0.00  0.00    +0.000 A 
ATOM     10 CL   UNL     1       7.312   4.957  13.417  0.00  0.00    +0.000 Cl
ATOM     11  N   UNL     1       7.435   5.874  15.832  0.00  0.00    +0.000 NA
ATOM     12  C   UNL     1       7.075   5.884  17.122  0.00  0.00    +0.000 A 
ATOM     13 CL   UNL     1       7.791   7.122  18.063  0.00  0.00    +0.000 Cl
ATOM     14  C   UNL     1       6.186   4.986  17.699  0.00  0.00    +0.000 A 
ENDBRANCH   5   7
ENDBRANCH   3   5
BRANCH   2  15
ATOM     15  C   UNL     1       2.407   2.005  18.824  0.00  0.00    +0.000 C 
BRANCH  15  16
ATOM     16  C   UNL     1       1.265   2.989  19.080  0.00  0.00    +0.000 C 
BRANCH  16  17
ATOM     17  C   UNL     1       1.688   4.428  19.200  0.00  0.00    +0.000 A 
ATOM     18  C   UNL     1       1.605   5.075  20.442  0.00  0.00    +0.000 A 
ATOM     19  C   UNL     1       1.916   6.427  20.561  0.00  0.00    +0.000 A 
ATOM     20  C   UNL     1       2.324   7.149  19.441  0.00  0.00    +0.000 A 
ATOM     21  C   UNL     1       2.431   6.507  18.206  0.00  0.00    +0.000 A 
ATOM     22  C   UNL     1       2.126   5.153  18.086  0.00  0.00    +0.000 A 
ENDBRANCH  16  17
ENDBRANCH  15  16
ENDBRANCH   2  15
TORSDOF 5
ENDMDL
MODEL 2
REMARK VINA RESULT:      -7.9      1.040      1.576
REMARK  Name = 
REMARK  5 active torsions:
REMARK  status: ('A' for Active; 'I' for Inactive)
REMARK    1  A    between atoms: C_2  and  C_3
REMARK    2  A    between atoms: C_3  and  C_4
REMARK    3  A    between atoms: C_4  and  C_5
REMARK    4  A    between atoms: N_11  and  N_12
REMARK    5  A    between atoms: N_12  and  C_13
REMARK                            x       y       z     vdW  Elec       q    Type
REMARK                         _______ _______ _______ _____ _____    ______ ____
ROOT
ATOM      1  O   UNL     1       2.901   1.339  17.995  0.00  0.00    +0.000 OA
ATOM      2  C   UNL     1       3.491   2.224  18.612  0.00  0.00    +0.000 C 
ATOM      3  N   UNL     1       4.583   2.810  18.012  0.00  0.00    +0.000 N 
ATOM      4  H   UNL     1       4.914   2.291  17.205  0.00  0.00    +0.000 HD
ENDROOT
BRANCH   3   5
ATOM      5  N   UNL     1       5.512   3.589  18.713  0.00  0.00    +0.000 N 
ATOM      6  H   UNL     1       5.103   4.085  19.507  0.00  0.00    +0.000 HD
BRANCH   5   7
ATOM      7  C   UNL     1       6.226   4.512  17.901  0.00  0.00    +0.000 A 
ATOM      8  C   UNL     1       6.296   4.272  16.530  0.00  0.00    +0.000 A 
ATOM      9  C   UNL     1       6.933   5.196  15.721  0.00  0.00    +0.000 A 
ATOM     10 CL   UNL     1       7.074   4.936  14.033  0.00  0.00    +0.000 Cl
ATOM     11  N   UNL     1       7.477   6.346  16.162  0.00  0.00    +0.000 NA
ATOM     12  C   UNL     1       7.356   6.581  17.476  0.00  0.00    +0.000 A 
ATOM     13 CL   UNL     1       8.020   8.067  18.008  0.00  0.00    +0.000 Cl
ATOM     14  C   UNL     1       6.742   5.721  18.377  0.00  0.00    +0.000 A 
ENDBRANCH   5   7
ENDBRANCH   3   5
BRANCH   2  15
ATOM     15  C   UNL     1       3.055   2.744  19.973  0.00  0.00    +0.000 C 
BRANCH  15  16
ATOM     16  C   UNL     1       1.748   3.537  19.939  0.00  0.00    +0.000 C 
BRANCH  16  17
ATOM     17  C   UNL     1       1.904   4.996  19.606  0.00  0.00    +0.000 A 
ATOM     18  C   UNL     1       2.214   5.380  18.293  0.00  0.00    +0.000 A 
ATOM     19  C   UNL     1       2.441   6.717  17.979  0.00  0.00    +0.000 A 
ATOM     20  C   UNL     1       2.352   7.691  18.971  0.00  0.00    +0.000 A 
ATOM     21  C   UNL     1       2.021   7.320  20.275  0.00  0.00    +0.000 A 
ATOM     22  C   UNL     1       1.788   5.984  20.592  0.00  0.00    +0.000 A 
ENDBRANCH  16  17
ENDBRANCH  15  16
ENDBRANCH   2  15
TORSDOF 5
ENDMDL
MODEL 3
REMARK VINA RESULT:      -7.9      1.085      2.337
REMARK  Name = 
REMARK  5 active torsions:
REMARK  status: ('A' for Active; 'I' for Inactive)
REMARK    1  A    between atoms: C_2  and  C_3
REMARK    2  A    between atoms: C_3  and  C_4
REMARK    3  A    between atoms: C_4  and  C_5
REMARK    4  A    between atoms: N_11  and  N_12
REMARK    5  A    between atoms: N_12  and  C_13
REMARK                            x       y       z     vdW  Elec       q    Type
REMARK                         _______ _______ _______ _____ _____    ______ ____
ROOT
ATOM      1  O   UNL     1       2.339   1.701  18.956  0.00  0.00    +0.000 OA
ATOM      2  C   UNL     1       3.141   2.554  19.330  0.00  0.00    +0.000 C 
ATOM      3  N   UNL     1       4.262   2.767  18.560  0.00  0.00    +0.000 N 
ATOM      4  H   UNL     1       4.411   2.035  17.873  0.00  0.00    +0.000 HD
ENDROOT
BRANCH   3   5
ATOM      5  N   UNL     1       5.383   3.467  19.022  0.00  0.00    +0.000 N 
ATOM      6  H   UNL     1       5.208   3.979  19.889  0.00  0.00    +0.000 HD
BRANCH   5   7
ATOM      7  C   UNL     1       5.953   4.349  18.063  0.00  0.00    +0.000 A 
ATOM      8  C   UNL     1       6.616   5.487  18.522  0.00  0.00    +0.000 A 
ATOM      9  C   UNL     1       7.229   6.319  17.603  0.00  0.00    +0.000 A 
ATOM     10 CL   UNL     1       8.032   7.746  18.110  0.00  0.00    +0.000 Cl
ATOM     11  N   UNL     1       7.259   6.096  16.276  0.00  0.00    +0.000 NA
ATOM     12  C   UNL     1       6.658   4.972  15.861  0.00  0.00    +0.000 A 
ATOM     13 CL   UNL     1       6.744   4.688  14.174  0.00  0.00    +0.000 Cl
ATOM     14  C   UNL     1       6.010   4.071  16.695  0.00  0.00    +0.000 A 
ENDBRANCH   5   7
ENDBRANCH   3   5
BRANCH   2  15
ATOM     15  C   UNL     1       2.942   3.423  20.562  0.00  0.00    +0.000 C 
BRANCH  15  16
ATOM     16  C   UNL     1       1.695   4.306  20.498  0.00  0.00    +0.000 C 
BRANCH  16  17
ATOM     17  C   UNL     1       1.921   5.674  19.913  0.00  0.00    +0.000 A 
ATOM     18  C   UNL     1       1.592   6.813  20.662  0.00  0.00    +0.000 A 
ATOM     19  C   UNL     1       1.719   8.086  20.112  0.00  0.00    +0.000 A 
ATOM     20  C   UNL     1       2.186   8.239  18.808  0.00  0.00    +0.000 A 
ATOM     21  C   UNL     1       2.538   7.112  18.064  0.00  0.00    +0.000 A 
ATOM     22  C   UNL     1       2.417   5.837  18.613  0.00  0.00    +0.000 A 
ENDBRANCH  16  17
ENDBRANCH  15  16
ENDBRANCH   2  15
TORSDOF 5
ENDMDL
MODEL 4
REMARK VINA RESULT:      -7.8      1.404      2.209
REMARK  Name = 
REMARK  5 active torsions:
REMARK  status: ('A' for Active; 'I' for Inactive)
REMARK    1  A    between atoms: C_2  and  C_3
REMARK    2  A    between atoms: C_3  and  C_4
REMARK    3  A    between atoms: C_4  and  C_5
REMARK    4  A    between atoms: N_11  and  N_12
REMARK    5  A    between atoms: N_12  and  C_13
REMARK                            x       y       z     vdW  Elec       q    Type
REMARK                         _______ _______ _______ _____ _____    ______ ____
ROOT
ATOM      1  O   UNL     1       2.362   2.338  18.077  0.00  0.00    +0.000 OA
ATOM      2  C   UNL     1       3.191   3.171  18.436  0.00  0.00    +0.000 C 
ATOM      3  N   UNL     1       4.519   2.908  18.190  0.00  0.00    +0.000 N 
ATOM      4  H   UNL     1       4.686   1.942  17.927  0.00  0.00    +0.000 HD
ENDROOT
BRANCH   3   5
ATOM      5  N   UNL     1       5.563   3.604  18.811  0.00  0.00    +0.000 N 
ATOM      6  H   UNL     1       5.271   4.096  19.657  0.00  0.00    +0.000 HD
BRANCH   5   7
ATOM      7  C   UNL     1       6.247   4.511  17.954  0.00  0.00    +0.000 A 
ATOM      8  C   UNL     1       6.266   4.244  16.586  0.00  0.00    +0.000 A 
ATOM      9  C   UNL     1       6.872   5.152  15.737  0.00  0.00    +0.000 A 
ATOM     10 CL   UNL     1       6.950   4.858  14.049  0.00  0.00    +0.000 Cl
ATOM     11  N   UNL     1       7.430   6.310  16.134  0.00  0.00    +0.000 NA
ATOM     12  C   UNL     1       7.358   6.571  17.446  0.00  0.00    +0.000 A 
ATOM     13 CL   UNL     1       8.040   8.068  17.924  0.00  0.00    +0.000 Cl
ATOM     14  C   UNL     1       6.778   5.729  18.386  0.00  0.00    +0.000 A 
ENDBRANCH   5   7
ENDBRANCH   3   5
BRANCH   2  15
ATOM     15  C   UNL     1       2.832   4.498  19.089  0.00  0.00    +0.000 C 
BRANCH  15  16
ATOM     16  C   UNL     1       2.724   5.660  18.101  0.00  0.00    +0.000 C 
BRANCH  16  17
ATOM     17  C   UNL     1       2.190   6.938  18.689  0.00  0.00    +0.000 A 
ATOM     18  C   UNL     1       2.051   8.072  17.875  0.00  0.00    +0.000 A 
ATOM     19  C   UNL     1       1.634   9.286  18.414  0.00  0.00    +0.000 A 
ATOM     20  C   UNL     1       1.341   9.382  19.773  0.00  0.00    +0.000 A 
ATOM     21  C   UNL     1       1.455   8.253  20.585  0.00  0.00    +0.000 A 
ATOM     22  C   UNL     1       1.866   7.035  20.048  0.00  0.00    +0.000 A 
ENDBRANCH  16  17
ENDBRANCH  15  16
ENDBRANCH   2  15
TORSDOF 5
ENDMDL
MODEL 5
REMARK VINA RESULT:      -7.8      1.522      2.124
REMARK  Name = 
REMARK  5 active torsions:
REMARK  status: ('A' for Active; 'I' for Inactive)
REMARK    1  A    between atoms: C_2  and  C_3
REMARK    2  A    between atoms: C_3  and  C_4
REMARK    3  A    between atoms: C_4  and  C_5
REMARK    4  A    between atoms: N_11  and  N_12
REMARK    5  A    between atoms: N_12  and  C_13
REMARK                            x       y       z     vdW  Elec       q    Type
REMARK                         _______ _______ _______ _____ _____    ______ ____
ROOT
ATOM      1  O   UNL     1       1.937   2.754  17.426  0.00  0.00    +0.000 OA
ATOM      2  C   UNL     1       2.845   3.420  17.918  0.00  0.00    +0.000 C 
ATOM      3  N   UNL     1       4.142   3.041  17.651  0.00  0.00    +0.000 N 
ATOM      4  H   UNL     1       4.204   2.112  17.246  0.00  0.00    +0.000 HD
ENDROOT
BRANCH   3   5
ATOM      5  N   UNL     1       5.240   3.508  18.383  0.00  0.00    +0.000 N 
ATOM      6  H   UNL     1       4.977   3.925  19.279  0.00  0.00    +0.000 HD
BRANCH   5   7
ATOM      7  C   UNL     1       6.070   4.417  17.670  0.00  0.00    +0.000 A 
ATOM      8  C   UNL     1       6.231   4.229  16.298  0.00  0.00    +0.000 A 
ATOM      9  C   UNL     1       6.984   5.143  15.583  0.00  0.00    +0.000 A 
ATOM     10 CL   UNL     1       7.238   4.944  13.899  0.00  0.00    +0.000 Cl
ATOM     11  N   UNL     1       7.561   6.236  16.115  0.00  0.00    +0.000 NA
ATOM     12  C   UNL     1       7.354   6.424  17.426  0.00  0.00    +0.000 A 
ATOM     13 CL   UNL     1       8.063   7.842  18.073  0.00  0.00    +0.000 Cl
ATOM     14  C   UNL     1       6.620   5.569  18.238  0.00  0.00    +0.000 A 
ENDBRANCH   5   7
ENDBRANCH   3   5
BRANCH   2  15
ATOM     15  C   UNL     1       2.623   4.667  18.760  0.00  0.00    +0.000 C 
BRANCH  15  16
ATOM     16  C   UNL     1       2.894   5.972  18.011  0.00  0.00    +0.000 C 
BRANCH  16  17
ATOM     17  C   UNL     1       2.308   7.200  18.654  0.00  0.00    +0.000 A 
ATOM     18  C   UNL     1       2.037   7.201  20.031  0.00  0.00    +0.000 A 
ATOM     19  C   UNL     1       1.423   8.296  20.633  0.00  0.00    +0.000 A 
ATOM     20  C   UNL     1       1.081   9.411  19.869  0.00  0.00    +0.000 A 
ATOM     21  C   UNL     1       1.369   9.427  18.504  0.00  0.00    +0.000 A 
ATOM     22  C   UNL     1       1.988   8.335  17.899  0.00  0.00    +0.000 A 
ENDBRANCH  16  17
ENDBRANCH  15  16
ENDBRANCH   2  15
TORSDOF 5
ENDMDL
MODEL 6
REMARK VINA RESULT:      -7.8      1.702      3.141
REMARK  Name = 
REMARK  5 active torsions:
REMARK  status: ('A' for Active; 'I' for Inactive)
REMARK    1  A    between atoms: C_2  and  C_3
REMARK    2  A    between atoms: C_3  and  C_4
REMARK    3  A    between atoms: C_4  and  C_5
REMARK    4  A    between atoms: N_11  and  N_12
REMARK    5  A    between atoms: N_12  and  C_13
REMARK                            x       y       z     vdW  Elec       q    Type
REMARK                         _______ _______ _______ _____ _____    ______ ____
ROOT
ATOM      1  O   UNL     1       1.200   3.835  17.514  0.00  0.00    +0.000 OA
ATOM      2  C   UNL     1       2.342   4.120  17.869  0.00  0.00    +0.000 C 
ATOM      3  N   UNL     1       3.384   3.395  17.334  0.00  0.00    +0.000 N 
ATOM      4  H   UNL     1       3.074   2.551  16.862  0.00  0.00    +0.000 HD
ENDROOT
BRANCH   3   5
ATOM      5  N   UNL     1       4.675   3.403  17.874  0.00  0.00    +0.000 N 
ATOM      6  H   UNL     1       4.690   3.598  18.877  0.00  0.00    +0.000 HD
BRANCH   5   7
ATOM      7  C   UNL     1       5.576   4.283  17.213  0.00  0.00    +0.000 A 
ATOM      8  C   UNL     1       6.267   5.221  17.978  0.00  0.00    +0.000 A 
ATOM      9  C   UNL     1       7.193   6.039  17.356  0.00  0.00    +0.000 A 
ATOM     10 CL   UNL     1       8.050   7.229  18.244  0.00  0.00    +0.000 Cl
ATOM     11  N   UNL     1       7.504   5.979  16.047  0.00  0.00    +0.000 NA
ATOM     12  C   UNL     1       6.864   5.038  15.339  0.00  0.00    +0.000 A 
ATOM     13 CL   UNL     1       7.304   4.953  13.687  0.00  0.00    +0.000 Cl
ATOM     14  C   UNL     1       5.915   4.169  15.862  0.00  0.00    +0.000 A 
ENDBRANCH   5   7
ENDBRANCH   3   5
BRANCH   2  15
ATOM     15  C   UNL     1       2.676   5.258  18.821  0.00  0.00    +0.000 C 
BRANCH  15  16
ATOM     16  C   UNL     1       2.936   6.592  18.119  0.00  0.00    +0.000 C 
BRANCH  16  17
ATOM     17  C   UNL     1       2.206   7.767  18.711  0.00  0.00    +0.000 A 
ATOM     18  C   UNL     1       1.859   7.756  20.070  0.00  0.00    +0.000 A 
ATOM     19  C   UNL     1       1.115   8.796  20.622  0.00  0.00    +0.000 A 
ATOM     20  C   UNL     1       0.718   9.868  19.825  0.00  0.00    +0.000 A 
ATOM     21  C   UNL     1       1.079   9.898  18.478  0.00  0.00    +0.000 A 
ATOM     22  C   UNL     1       1.828   8.861  17.924  0.00  0.00    +0.000 A 
ENDBRANCH  16  17
ENDBRANCH  15  16
ENDBRANCH   2  15
TORSDOF 5
ENDMDL
MODEL 7
REMARK VINA RESULT:      -7.6      1.108      2.509
REMARK  Name = 
REMARK  5 active torsions:
REMARK  status: ('A' for Active; 'I' for Inactive)
REMARK    1  A    between atoms: C_2  and  C_3
REMARK    2  A    between atoms: C_3  and  C_4
REMARK    3  A    between atoms: C_4  and  C_5
REMARK    4  A    between atoms: N_11  and  N_12
REMARK    5  A    between atoms: N_12  and  C_13
REMARK                            x       y       z     vdW  Elec       q    Type
REMARK                         _______ _______ _______ _____ _____    ______ ____
ROOT
ATOM      1  O   UNL     1       4.459   0.997  19.781  0.00  0.00    +0.000 OA
ATOM      2  C   UNL     1       4.368   2.222  19.834  0.00  0.00    +0.000 C 
ATOM      3  N   UNL     1       5.334   2.969  19.198  0.00  0.00    +0.000 N 
ATOM      4  H   UNL     1       6.145   2.419  18.933  0.00  0.00    +0.000 HD
ENDROOT
BRANCH   3   5
ATOM      5  N   UNL     1       5.523   4.335  19.438  0.00  0.00    +0.000 N 
ATOM      6  H   UNL     1       4.670   4.812  19.737  0.00  0.00    +0.000 HD
BRANCH   5   7
ATOM      7  C   UNL     1       6.097   5.043  18.346  0.00  0.00    +0.000 A 
ATOM      8  C   UNL     1       6.758   6.242  18.608  0.00  0.00    +0.000 A 
ATOM      9  C   UNL     1       7.375   6.907  17.564  0.00  0.00    +0.000 A 
ATOM     10 CL   UNL     1       8.177   8.399  17.825  0.00  0.00    +0.000 Cl
ATOM     11  N   UNL     1       7.411   6.462  16.294  0.00  0.00    +0.000 NA
ATOM     12  C   UNL     1       6.811   5.284  16.072  0.00  0.00    +0.000 A 
ATOM     13 CL   UNL     1       6.903   4.718  14.459  0.00  0.00    +0.000 Cl
ATOM     14  C   UNL     1       6.160   4.537  17.045  0.00  0.00    +0.000 A 
ENDBRANCH   5   7
ENDBRANCH   3   5
BRANCH   2  15
ATOM     15  C   UNL     1       3.224   2.959  20.514  0.00  0.00    +0.000 C 
BRANCH  15  16
ATOM     16  C   UNL     1       2.155   3.464  19.544  0.00  0.00    +0.000 C 
BRANCH  16  17
ATOM     17  C   UNL     1       2.152   4.954  19.331  0.00  0.00    +0.000 A 
ATOM     18  C   UNL     1       2.431   5.474  18.059  0.00  0.00    +0.000 A 
ATOM     19  C   UNL     1       2.512   6.849  17.856  0.00  0.00    +0.000 A 
ATOM     20  C   UNL     1       2.305   7.725  18.920  0.00  0.00    +0.000 A 
ATOM     21  C   UNL     1       2.004   7.216  20.184  0.00  0.00    +0.000 A 
ATOM     22  C   UNL     1       1.917   5.841  20.389  0.00  0.00    +0.000 A 
ENDBRANCH  16  17
ENDBRANCH  15  16
ENDBRANCH   2  15
TORSDOF 5
ENDMDL
MODEL 8
REMARK VINA RESULT:      -7.5      1.586      2.217
REMARK  Name = 
REMARK  5 active torsions:
REMARK  status: ('A' for Active; 'I' for Inactive)
REMARK    1  A    between atoms: C_2  and  C_3
REMARK    2  A    between atoms: C_3  and  C_4
REMARK    3  A    between atoms: C_4  and  C_5
REMARK    4  A    between atoms: N_11  and  N_12
REMARK    5  A    between atoms: N_12  and  C_13
REMARK                            x       y       z     vdW  Elec       q    Type
REMARK                         _______ _______ _______ _____ _____    ______ ____
ROOT
ATOM      1  O   UNL     1       2.720   3.147  19.214  0.00  0.00    +0.000 OA
ATOM      2  C   UNL     1       3.729   3.846  19.265  0.00  0.00    +0.000 C 
ATOM      3  N   UNL     1       4.928   3.276  18.901  0.00  0.00    +0.000 N 
ATOM      4  H   UNL     1       4.879   2.265  18.835  0.00  0.00    +0.000 HD
ENDROOT
BRANCH   3   5
ATOM      5  N   UNL     1       6.169   3.849  19.205  0.00  0.00    +0.000 N 
ATOM      6  H   UNL     1       6.182   4.322  20.111  0.00  0.00    +0.000 HD
BRANCH   5   7
ATOM      7  C   UNL     1       6.659   4.737  18.208  0.00  0.00    +0.000 A 
ATOM      8  C   UNL     1       6.567   4.348  16.872  0.00  0.00    +0.000 A 
ATOM      9  C   UNL     1       6.981   5.229  15.890  0.00  0.00    +0.000 A 
ATOM     10 CL   UNL     1       6.917   4.791  14.234  0.00  0.00    +0.000 Cl
ATOM     11  N   UNL     1       7.450   6.468  16.127  0.00  0.00    +0.000 NA
ATOM     12  C   UNL     1       7.485   6.841  17.414  0.00  0.00    +0.000 A 
ATOM     13 CL   UNL     1       8.047   8.435  17.690  0.00  0.00    +0.000 Cl
ATOM     14  C   UNL     1       7.098   6.036  18.478  0.00  0.00    +0.000 A 
ENDBRANCH   5   7
ENDBRANCH   3   5
BRANCH   2  15
ATOM     15  C   UNL     1       3.724   5.316  19.655  0.00  0.00    +0.000 C 
BRANCH  15  16
ATOM     16  C   UNL     1       2.352   5.831  20.095  0.00  0.00    +0.000 C 
BRANCH  16  17
ATOM     17  C   UNL     1       2.027   7.226  19.634  0.00  0.00    +0.000 A 
ATOM     18  C   UNL     1       1.374   8.111  20.506  0.00  0.00    +0.000 A 
ATOM     19  C   UNL     1       0.993   9.379  20.077  0.00  0.00    +0.000 A 
ATOM     20  C   UNL     1       1.267   9.785  18.772  0.00  0.00    +0.000 A 
ATOM     21  C   UNL     1       1.936   8.920  17.906  0.00  0.00    +0.000 A 
ATOM     22  C   UNL     1       2.324   7.652  18.334  0.00  0.00    +0.000 A 
ENDBRANCH  16  17
ENDBRANCH  15  16
ENDBRANCH   2  15
TORSDOF 5
ENDMDL
MODEL 9
REMARK VINA RESULT:      -7.5      1.472      2.846
REMARK  Name = 
REMARK  5 active torsions:
REMARK  status: ('A' for Active; 'I' for Inactive)
REMARK    1  A    between atoms: C_2  and  C_3
REMARK    2  A    between atoms: C_3  and  C_4
REMARK    3  A    between atoms: C_4  and  C_5
REMARK    4  A    between atoms: N_11  and  N_12
REMARK    5  A    between atoms: N_12  and  C_13
REMARK                            x       y       z     vdW  Elec       q    Type
REMARK                         _______ _______ _______ _____ _____    ______ ____
ROOT
ATOM      1  O   UNL     1       1.916   3.366  18.911  0.00  0.00    +0.000 OA
ATOM      2  C   UNL     1       3.037   3.849  19.050  0.00  0.00    +0.000 C 
ATOM      3  N   UNL     1       4.072   3.296  18.330  0.00  0.00    +0.000 N 
ATOM      4  H   UNL     1       3.830   2.399  17.920  0.00  0.00    +0.000 HD
ENDROOT
BRANCH   3   5
ATOM      5  N   UNL     1       5.420   3.537  18.623  0.00  0.00    +0.000 N 
ATOM      6  H   UNL     1       5.574   3.831  19.589  0.00  0.00    +0.000 HD
BRANCH   5   7
ATOM      7  C   UNL     1       6.049   4.463  17.745  0.00  0.00    +0.000 A 
ATOM      8  C   UNL     1       6.636   5.602  18.294  0.00  0.00    +0.000 A 
ATOM      9  C   UNL     1       7.306   6.477  17.458  0.00  0.00    +0.000 A 
ATOM     10 CL   UNL     1       8.021   7.907  18.076  0.00  0.00    +0.000 Cl
ATOM     11  N   UNL     1       7.461   6.295  16.133  0.00  0.00    +0.000 NA
ATOM     12  C   UNL     1       6.932   5.170  15.634  0.00  0.00    +0.000 A 
ATOM     13 CL   UNL     1       7.175   4.940  13.955  0.00  0.00    +0.000 Cl
ATOM     14  C   UNL     1       6.236   4.227  16.380  0.00  0.00    +0.000 A 
ENDBRANCH   5   7
ENDBRANCH   3   5
BRANCH   2  15
ATOM     15  C   UNL     1       3.339   5.053  19.928  0.00  0.00    +0.000 C 
BRANCH  15  16
ATOM     16  C   UNL     1       2.104   5.884  20.280  0.00  0.00    +0.000 C 
BRANCH  16  17
ATOM     17  C   UNL     1       2.018   7.212  19.577  0.00  0.00    +0.000 A 
ATOM     18  C   UNL     1       1.400   8.297  20.217  0.00  0.00    +0.000 A 
ATOM     19  C   UNL     1       1.239   9.512  19.557  0.00  0.00    +0.000 A 
ATOM     20  C   UNL     1       1.701   9.663  18.251  0.00  0.00    +0.000 A 
ATOM     21  C   UNL     1       2.337   8.595  17.616  0.00  0.00    +0.000 A 
ATOM     22  C   UNL     1       2.505   7.380  18.275  0.00  0.00    +0.000 A 
ENDBRANCH  16  17
ENDBRANCH  15  16
ENDBRANCH   2  15
TORSDOF 5
ENDMDL
