MODEL 1
REMARK VINA RESULT:      -6.5      0.000      0.000
REMARK  Name = 
REMARK  8 active torsions:
REMARK  status: ('A' for Active; 'I' for Inactive)
REMARK    1  A    between atoms: C_1  and  C_2
REMARK    2  A    between atoms: C_2  and  C_3
REMARK    3  A    between atoms: C_3  and  O_4
REMARK    4  A    between atoms: O_4  and  C_5
REMARK    5  A    between atoms: C_8  and  C_9
REMARK    6  A    between atoms: C_9  and  N_10
REMARK    7  A    between atoms: C_11  and  C_13
REMARK    8  A    between atoms: C_13  and  C_14
REMARK                            x       y       z     vdW  Elec       q    Type
REMARK                         _______ _______ _______ _____ _____    ______ ____
ROOT
ATOM      1  C   UNL     1       3.718   6.408  17.736  0.00  0.00    +0.000 C 
ENDROOT
BRANCH   1   5
ATOM      2  C   UNL     1       1.075   9.332  19.519  0.00  0.00    +0.000 A 
ATOM      3  C   UNL     1       1.498   8.204  20.229  0.00  0.00    +0.000 A 
ATOM      4  C   UNL     1       2.331   7.257  19.635  0.00  0.00    +0.000 A 
ATOM      5  C   UNL     1       2.775   7.423  18.319  0.00  0.00    +0.000 A 
ATOM      6  C   UNL     1       2.329   8.537  17.593  0.00  0.00    +0.000 A 
ATOM      7  C   UNL     1       1.489   9.487  18.194  0.00  0.00    +0.000 A 
BRANCH   2   8
ATOM      8  O   UNL     1       0.272  10.324  20.032  0.00  0.00    +0.000 OA
BRANCH   8   9
ATOM      9  C   UNL     1       0.680  10.821  21.310  0.00  0.00    +0.000 C 
BRANCH   9  11
ATOM     10  C   UNL     1      -0.226   9.561  23.261  0.00  0.00    +0.000 C 
ATOM     11  C   UNL     1      -0.455  10.738  22.323  0.00  0.00    +0.000 C 
ENDBRANCH   9  11
ENDBRANCH   8   9
ENDBRANCH   2   8
ENDBRANCH   1   5
BRANCH   1  12
ATOM     12  N   UNL     1       3.400   5.061  18.144  0.00  0.00    +0.000 N 
ATOM     13  C   UNL     1       3.847   3.995  17.389  0.00  0.00    +0.000 C 
ATOM     14  O   UNL     1       4.507   4.137  16.362  0.00  0.00    +0.000 OA
ATOM     15  H   UNL     1       3.107   4.898  19.100  0.00  0.00    +0.000 HD
BRANCH  13  16
ATOM     16  C   UNL     1       3.422   2.630  17.896  0.00  0.00    +0.000 C 
BRANCH  16  17
ATOM     17  C   UNL     1       2.799   2.723  19.255  0.00  0.00    +0.000 A 
ATOM     18  C   UNL     1       3.422   2.677  20.487  0.00  0.00    +0.000 A 
ATOM     19  C   UNL     1       2.494   2.707  21.568  0.00  0.00    +0.000 A 
ATOM     20  C   UNL     1       1.192   2.791  21.126  0.00  0.00    +0.000 A 
ATOM     21  S   UNL     1       1.096   2.841  19.419  0.00  0.00    +0.000 S 
ENDBRANCH  16  17
ENDBRANCH  13  16
ENDBRANCH   1  12
TORSDOF 7
ENDMDL
MODEL 2
REMARK VINA RESULT:      -6.5      4.330      8.349
REMARK  Name = 
REMARK  8 active torsions:
REMARK  status: ('A' for Active; 'I' for Inactive)
REMARK    1  A    between atoms: C_1  and  C_2
REMARK    2  A    between atoms: C_2  and  C_3
REMARK    3  A    between atoms: C_3  and  O_4
REMARK    4  A    between atoms: O_4  and  C_5
REMARK    5  A    between atoms: C_8  and  C_9
REMARK    6  A    between atoms: C_9  and  N_10
REMARK    7  A    between atoms: C_11  and  C_13
REMARK    8  A    between atoms: C_13  and  C_14
REMARK                            x       y       z     vdW  Elec       q    Type
REMARK                         _______ _______ _______ _____ _____    ______ ____
ROOT
ATOM      1  C   UNL     1       6.926   5.439  16.751  0.00  0.00    +0.000 C 
ENDROOT
BRANCH   1   5
ATOM      2  C   UNL     1       6.282   3.914  12.754  0.00  0.00    +0.000 A 
ATOM      3  C   UNL     1       7.400   4.695  13.064  0.00  0.00    +0.000 A 
ATOM      4  C   UNL     1       7.584   5.200  14.351  0.00  0.00    +0.000 A 
ATOM      5  C   UNL     1       6.661   4.923  15.364  0.00  0.00    +0.000 A 
ATOM      6  C   UNL     1       5.522   4.166  15.050  0.00  0.00    +0.000 A 
ATOM      7  C   UNL     1       5.340   3.662  13.753  0.00  0.00    +0.000 A 
BRANCH   2   8
ATOM      8  O   UNL     1       6.032   3.361  11.520  0.00  0.00    +0.000 OA
BRANCH   8   9
ATOM      9  C   UNL     1       5.551   2.014  11.556  0.00  0.00    +0.000 C 
BRANCH   9  11
ATOM     10  C   UNL     1       6.148  -0.392  11.300  0.00  0.00    +0.000 C 
ATOM     11  C   UNL     1       6.599   1.038  11.039  0.00  0.00    +0.000 C 
ENDBRANCH   9  11
ENDBRANCH   8   9
ENDBRANCH   2   8
ENDBRANCH   1   5
BRANCH   1  12
ATOM     12  N   UNL     1       5.713   5.635  17.508  0.00  0.00    +0.000 N 
ATOM     13  C   UNL     1       5.666   5.246  18.833  0.00  0.00    +0.000 C 
ATOM     14  O   UNL     1       6.618   4.725  19.409  0.00  0.00    +0.000 OA
ATOM     15  H   UNL     1       5.024   6.291  17.163  0.00  0.00    +0.000 HD
BRANCH  13  16
ATOM     16  C   UNL     1       4.330   5.469  19.516  0.00  0.00    +0.000 C 
BRANCH  16  17
ATOM     17  C   UNL     1       3.270   4.578  18.945  0.00  0.00    +0.000 A 
ATOM     18  C   UNL     1       2.236   4.915  18.093  0.00  0.00    +0.000 A 
ATOM     19  C   UNL     1       1.367   3.816  17.831  0.00  0.00    +0.000 A 
ATOM     20  C   UNL     1       1.775   2.671  18.479  0.00  0.00    +0.000 A 
ATOM     21  S   UNL     1       3.201   2.923  19.389  0.00  0.00    +0.000 S 
ENDBRANCH  16  17
ENDBRANCH  13  16
ENDBRANCH   1  12
TORSDOF 7
ENDMDL
MODEL 3
REMARK VINA RESULT:      -6.4      4.116      7.514
REMARK  Name = 
REMARK  8 active torsions:
REMARK  status: ('A' for Active; 'I' for Inactive)
REMARK    1  A    between atoms: C_1  and  C_2
REMARK    2  A    between atoms: C_2  and  C_3
REMARK    3  A    between atoms: C_3  and  O_4
REMARK    4  A    between atoms: O_4  and  C_5
REMARK    5  A    between atoms: C_8  and  C_9
REMARK    6  A    between atoms: C_9  and  N_10
REMARK    7  A    between atoms: C_11  and  C_13
REMARK    8  A    between atoms: C_13  and  C_14
REMARK                            x       y       z     vdW  Elec       q    Type
REMARK                         _______ _______ _______ _____ _____    ______ ____
ROOT
ATOM      1  C   UNL     1       6.945   5.034  17.613  0.00  0.00    +0.000 C 
ENDROOT
BRANCH   1   5
ATOM      2  C   UNL     1       6.060   3.813  13.558  0.00  0.00    +0.000 A 
ATOM      3  C   UNL     1       5.290   3.368  14.637  0.00  0.00    +0.000 A 
ATOM      4  C   UNL     1       5.600   3.750  15.941  0.00  0.00    +0.000 A 
ATOM      5  C   UNL     1       6.680   4.601  16.197  0.00  0.00    +0.000 A 
ATOM      6  C   UNL     1       7.474   5.024  15.122  0.00  0.00    +0.000 A 
ATOM      7  C   UNL     1       7.160   4.636  13.811  0.00  0.00    +0.000 A 
BRANCH   2   8
ATOM      8  O   UNL     1       5.815   3.503  12.240  0.00  0.00    +0.000 OA
BRANCH   8   9
ATOM      9  C   UNL     1       4.624   4.084  11.702  0.00  0.00    +0.000 C 
BRANCH   9  11
ATOM     10  C   UNL     1       3.046   3.732   9.805  0.00  0.00    +0.000 C 
ATOM     11  C   UNL     1       3.801   3.054  10.939  0.00  0.00    +0.000 C 
ENDBRANCH   9  11
ENDBRANCH   8   9
ENDBRANCH   2   8
ENDBRANCH   1   5
BRANCH   1  12
ATOM     12  N   UNL     1       5.774   5.589  18.248  0.00  0.00    +0.000 N 
ATOM     13  C   UNL     1       5.053   4.821  19.140  0.00  0.00    +0.000 C 
ATOM     14  O   UNL     1       5.358   3.664  19.421  0.00  0.00    +0.000 OA
ATOM     15  H   UNL     1       5.654   6.595  18.256  0.00  0.00    +0.000 HD
BRANCH  13  16
ATOM     16  C   UNL     1       3.824   5.497  19.717  0.00  0.00    +0.000 C 
BRANCH  16  17
ATOM     17  C   UNL     1       2.684   4.534  19.852  0.00  0.00    +0.000 A 
ATOM     18  C   UNL     1       2.114   4.040  21.009  0.00  0.00    +0.000 A 
ATOM     19  C   UNL     1       1.102   3.071  20.747  0.00  0.00    +0.000 A 
ATOM     20  C   UNL     1       0.923   2.868  19.397  0.00  0.00    +0.000 A 
ATOM     21  S   UNL     1       1.963   3.846  18.456  0.00  0.00    +0.000 S 
ENDBRANCH  16  17
ENDBRANCH  13  16
ENDBRANCH   1  12
TORSDOF 7
ENDMDL
MODEL 4
REMARK VINA RESULT:      -6.3      4.115      7.636
REMARK  Name = 
REMARK  8 active torsions:
REMARK  status: ('A' for Active; 'I' for Inactive)
REMARK    1  A    between atoms: C_1  and  C_2
REMARK    2  A    between atoms: C_2  and  C_3
REMARK    3  A    between atoms: C_3  and  O_4
REMARK    4  A    between atoms: O_4  and  C_5
REMARK    5  A    between atoms: C_8  and  C_9
REMARK    6  A    between atoms: C_9  and  N_10
REMARK    7  A    between atoms: C_11  and  C_13
REMARK    8  A    between atoms: C_13  and  C_14
REMARK                            x       y       z     vdW  Elec       q    Type
REMARK                         _______ _______ _______ _____ _____    ______ ____
ROOT
ATOM      1  C   UNL     1       6.598   5.716  17.151  0.00  0.00    +0.000 C 
ENDROOT
BRANCH   1   5
ATOM      2  C   UNL     1       6.209   3.970  13.211  0.00  0.00    +0.000 A 
ATOM      3  C   UNL     1       7.309   4.765  13.550  0.00  0.00    +0.000 A 
ATOM      4  C   UNL     1       7.410   5.341  14.816  0.00  0.00    +0.000 A 
ATOM      5  C   UNL     1       6.421   5.123  15.780  0.00  0.00    +0.000 A 
ATOM      6  C   UNL     1       5.302   4.353  15.435  0.00  0.00    +0.000 A 
ATOM      7  C   UNL     1       5.202   3.776  14.159  0.00  0.00    +0.000 A 
BRANCH   2   8
ATOM      8  O   UNL     1       6.038   3.349  11.996  0.00  0.00    +0.000 OA
BRANCH   8   9
ATOM      9  C   UNL     1       4.689   2.972  11.703  0.00  0.00    +0.000 C 
BRANCH   9  11
ATOM     10  C   UNL     1       2.957   3.319   9.945  0.00  0.00    +0.000 C 
ATOM     11  C   UNL     1       4.011   4.000  10.807  0.00  0.00    +0.000 C 
ENDBRANCH   9  11
ENDBRANCH   8   9
ENDBRANCH   2   8
ENDBRANCH   1   5
BRANCH   1  12
ATOM     12  N   UNL     1       5.344   5.883  17.846  0.00  0.00    +0.000 N 
ATOM     13  C   UNL     1       5.126   5.208  19.031  0.00  0.00    +0.000 C 
ATOM     14  O   UNL     1       5.957   4.453  19.530  0.00  0.00    +0.000 OA
ATOM     15  H   UNL     1       4.765   6.682  17.620  0.00  0.00    +0.000 HD
BRANCH  13  16
ATOM     16  C   UNL     1       3.761   5.434  19.652  0.00  0.00    +0.000 C 
BRANCH  16  17
ATOM     17  C   UNL     1       2.819   4.318  19.319  0.00  0.00    +0.000 A 
ATOM     18  C   UNL     1       2.870   3.446  18.249  0.00  0.00    +0.000 A 
ATOM     19  C   UNL     1       1.749   2.566  18.210  0.00  0.00    +0.000 A 
ATOM     20  C   UNL     1       0.886   2.786  19.260  0.00  0.00    +0.000 A 
ATOM     21  S   UNL     1       1.432   4.039  20.288  0.00  0.00    +0.000 S 
ENDBRANCH  16  17
ENDBRANCH  13  16
ENDBRANCH   1  12
TORSDOF 7
ENDMDL
MODEL 5
REMARK VINA RESULT:      -6.3      3.394      7.299
REMARK  Name = 
REMARK  8 active torsions:
REMARK  status: ('A' for Active; 'I' for Inactive)
REMARK    1  A    between atoms: C_1  and  C_2
REMARK    2  A    between atoms: C_2  and  C_3
REMARK    3  A    between atoms: C_3  and  O_4
REMARK    4  A    between atoms: O_4  and  C_5
REMARK    5  A    between atoms: C_8  and  C_9
REMARK    6  A    between atoms: C_9  and  N_10
REMARK    7  A    between atoms: C_11  and  C_13
REMARK    8  A    between atoms: C_13  and  C_14
REMARK                            x       y       z     vdW  Elec       q    Type
REMARK                         _______ _______ _______ _____ _____    ______ ____
ROOT
ATOM      1  C   UNL     1       5.947   5.552  18.330  0.00  0.00    +0.000 C 
ENDROOT
BRANCH   1   5
ATOM      2  C   UNL     1       6.121   4.034  14.282  0.00  0.00    +0.000 A 
ATOM      3  C   UNL     1       7.024   5.000  14.738  0.00  0.00    +0.000 A 
ATOM      4  C   UNL     1       6.942   5.498  16.037  0.00  0.00    +0.000 A 
ATOM      5  C   UNL     1       5.964   5.030  16.920  0.00  0.00    +0.000 A 
ATOM      6  C   UNL     1       5.037   4.084  16.459  0.00  0.00    +0.000 A 
ATOM      7  C   UNL     1       5.122   3.587  15.149  0.00  0.00    +0.000 A 
BRANCH   2   8
ATOM      8  O   UNL     1       6.142   3.474  13.026  0.00  0.00    +0.000 OA
BRANCH   8   9
ATOM      9  C   UNL     1       5.149   3.983  12.130  0.00  0.00    +0.000 C 
BRANCH   9  11
ATOM     10  C   UNL     1       3.379   3.430  10.466  0.00  0.00    +0.000 C 
ATOM     11  C   UNL     1       4.443   2.855  11.389  0.00  0.00    +0.000 C 
ENDBRANCH   9  11
ENDBRANCH   8   9
ENDBRANCH   2   8
ENDBRANCH   1   5
BRANCH   1  12
ATOM     12  N   UNL     1       4.634   5.486  18.927  0.00  0.00    +0.000 N 
ATOM     13  C   UNL     1       3.658   6.378  18.529  0.00  0.00    +0.000 C 
ATOM     14  O   UNL     1       3.856   7.248  17.684  0.00  0.00    +0.000 OA
ATOM     15  H   UNL     1       4.359   4.637  19.406  0.00  0.00    +0.000 HD
BRANCH  13  16
ATOM     16  C   UNL     1       2.331   6.236  19.250  0.00  0.00    +0.000 C 
BRANCH  16  17
ATOM     17  C   UNL     1       1.965   4.796  19.439  0.00  0.00    +0.000 A 
ATOM     18  C   UNL     1       1.461   3.911  18.505  0.00  0.00    +0.000 A 
ATOM     19  C   UNL     1       1.147   2.641  19.072  0.00  0.00    +0.000 A 
ATOM     20  C   UNL     1       1.437   2.593  20.417  0.00  0.00    +0.000 A 
ATOM     21  S   UNL     1       2.090   4.068  20.987  0.00  0.00    +0.000 S 
ENDBRANCH  16  17
ENDBRANCH  13  16
ENDBRANCH   1  12
TORSDOF 7
ENDMDL
MODEL 6
REMARK VINA RESULT:      -6.3      5.366      7.834
REMARK  Name = 
REMARK  8 active torsions:
REMARK  status: ('A' for Active; 'I' for Inactive)
REMARK    1  A    between atoms: C_1  and  C_2
REMARK    2  A    between atoms: C_2  and  C_3
REMARK    3  A    between atoms: C_3  and  O_4
REMARK    4  A    between atoms: O_4  and  C_5
REMARK    5  A    between atoms: C_8  and  C_9
REMARK    6  A    between atoms: C_9  and  N_10
REMARK    7  A    between atoms: C_11  and  C_13
REMARK    8  A    between atoms: C_13  and  C_14
REMARK                            x       y       z     vdW  Elec       q    Type
REMARK                         _______ _______ _______ _____ _____    ______ ____
ROOT
ATOM      1  C   UNL     1       7.246   6.444  17.066  0.00  0.00    +0.000 C 
ENDROOT
BRANCH   1   5
ATOM      2  C   UNL     1       3.306   4.764  17.670  0.00  0.00    +0.000 A 
ATOM      3  C   UNL     1       4.385   3.966  17.276  0.00  0.00    +0.000 A 
ATOM      4  C   UNL     1       5.645   4.524  17.063  0.00  0.00    +0.000 A 
ATOM      5  C   UNL     1       5.860   5.893  17.252  0.00  0.00    +0.000 A 
ATOM      6  C   UNL     1       4.774   6.702  17.617  0.00  0.00    +0.000 A 
ATOM      7  C   UNL     1       3.507   6.137  17.829  0.00  0.00    +0.000 A 
BRANCH   2   8
ATOM      8  O   UNL     1       2.037   4.295  17.922  0.00  0.00    +0.000 OA
BRANCH   8   9
ATOM      9  C   UNL     1       1.641   4.356  19.295  0.00  0.00    +0.000 C 
BRANCH   9  11
ATOM     10  C   UNL     1       1.793   3.149  21.470  0.00  0.00    +0.000 C 
ATOM     11  C   UNL     1       2.508   3.451  20.161  0.00  0.00    +0.000 C 
ENDBRANCH   9  11
ENDBRANCH   8   9
ENDBRANCH   2   8
ENDBRANCH   1   5
BRANCH   1  12
ATOM     12  N   UNL     1       7.271   7.887  17.069  0.00  0.00    +0.000 N 
ATOM     13  C   UNL     1       8.057   8.554  17.988  0.00  0.00    +0.000 C 
ATOM     14  O   UNL     1       8.743   7.972  18.825  0.00  0.00    +0.000 OA
ATOM     15  H   UNL     1       6.950   8.382  16.246  0.00  0.00    +0.000 HD
BRANCH  13  16
ATOM     16  C   UNL     1       7.976  10.067  17.918  0.00  0.00    +0.000 C 
BRANCH  16  17
ATOM     17  C   UNL     1       9.201  10.706  18.496  0.00  0.00    +0.000 A 
ATOM     18  C   UNL     1      10.342  11.120  17.837  0.00  0.00    +0.000 A 
ATOM     19  C   UNL     1      11.342  11.605  18.731  0.00  0.00    +0.000 A 
ATOM     20  C   UNL     1      10.924  11.560  20.042  0.00  0.00    +0.000 A 
ATOM     21  S   UNL     1       9.335  10.944  20.190  0.00  0.00    +0.000 S 
ENDBRANCH  16  17
ENDBRANCH  13  16
ENDBRANCH   1  12
TORSDOF 7
ENDMDL
MODEL 7
REMARK VINA RESULT:      -6.3      2.719      6.893
REMARK  Name = 
REMARK  8 active torsions:
REMARK  status: ('A' for Active; 'I' for Inactive)
REMARK    1  A    between atoms: C_1  and  C_2
REMARK    2  A    between atoms: C_2  and  C_3
REMARK    3  A    between atoms: C_3  and  O_4
REMARK    4  A    between atoms: O_4  and  C_5
REMARK    5  A    between atoms: C_8  and  C_9
REMARK    6  A    between atoms: C_9  and  N_10
REMARK    7  A    between atoms: C_11  and  C_13
REMARK    8  A    between atoms: C_13  and  C_14
REMARK                            x       y       z     vdW  Elec       q    Type
REMARK                         _______ _______ _______ _____ _____    ______ ____
ROOT
ATOM      1  C   UNL     1       2.559   8.611  17.794  0.00  0.00    +0.000 C 
ENDROOT
BRANCH   1   5
ATOM      2  C   UNL     1       3.919   4.724  19.120  0.00  0.00    +0.000 A 
ATOM      3  C   UNL     1       4.347   5.270  17.905  0.00  0.00    +0.000 A 
ATOM      4  C   UNL     1       3.883   6.513  17.479  0.00  0.00    +0.000 A 
ATOM      5  C   UNL     1       2.990   7.249  18.264  0.00  0.00    +0.000 A 
ATOM      6  C   UNL     1       2.534   6.692  19.467  0.00  0.00    +0.000 A 
ATOM      7  C   UNL     1       3.002   5.439  19.892  0.00  0.00    +0.000 A 
BRANCH   2   8
ATOM      8  O   UNL     1       4.340   3.516  19.626  0.00  0.00    +0.000 OA
BRANCH   8   9
ATOM      9  C   UNL     1       3.286   2.614  19.972  0.00  0.00    +0.000 C 
BRANCH   9  11
ATOM     10  C   UNL     1       1.141   2.328  18.735  0.00  0.00    +0.000 C 
ATOM     11  C   UNL     1       2.632   2.024  18.728  0.00  0.00    +0.000 C 
ENDBRANCH   9  11
ENDBRANCH   8   9
ENDBRANCH   2   8
ENDBRANCH   1   5
BRANCH   1  12
ATOM     12  N   UNL     1       1.257   8.981  18.295  0.00  0.00    +0.000 N 
ATOM     13  C   UNL     1       1.003  10.296  18.629  0.00  0.00    +0.000 C 
ATOM     14  O   UNL     1       1.847  11.184  18.528  0.00  0.00    +0.000 OA
ATOM     15  H   UNL     1       0.477   8.354  18.135  0.00  0.00    +0.000 HD
BRANCH  13  16
ATOM     16  C   UNL     1      -0.387  10.559  19.177  0.00  0.00    +0.000 C 
BRANCH  16  17
ATOM     17  C   UNL     1      -0.442  10.334  20.657  0.00  0.00    +0.000 A 
ATOM     18  C   UNL     1      -0.176   9.173  21.356  0.00  0.00    +0.000 A 
ATOM     19  C   UNL     1      -0.419   9.311  22.754  0.00  0.00    +0.000 A 
ATOM     20  C   UNL     1      -0.848  10.579  23.078  0.00  0.00    +0.000 A 
ATOM     21  S   UNL     1      -0.948  11.594  21.705  0.00  0.00    +0.000 S 
ENDBRANCH  16  17
ENDBRANCH  13  16
ENDBRANCH   1  12
TORSDOF 7
ENDMDL
MODEL 8
REMARK VINA RESULT:      -6.3      0.468      1.241
REMARK  Name = 
REMARK  8 active torsions:
REMARK  status: ('A' for Active; 'I' for Inactive)
REMARK    1  A    between atoms: C_1  and  C_2
REMARK    2  A    between atoms: C_2  and  C_3
REMARK    3  A    between atoms: C_3  and  O_4
REMARK    4  A    between atoms: O_4  and  C_5
REMARK    5  A    between atoms: C_8  and  C_9
REMARK    6  A    between atoms: C_9  and  N_10
REMARK    7  A    between atoms: C_11  and  C_13
REMARK    8  A    between atoms: C_13  and  C_14
REMARK                            x       y       z     vdW  Elec       q    Type
REMARK                         _______ _______ _______ _____ _____    ______ ____
ROOT
ATOM      1  C   UNL     1       3.441   6.412  17.576  0.00  0.00    +0.000 C 
ENDROOT
BRANCH   1   5
ATOM      2  C   UNL     1       1.083   9.222  19.868  0.00  0.00    +0.000 A 
ATOM      3  C   UNL     1       1.440   9.483  18.541  0.00  0.00    +0.000 A 
ATOM      4  C   UNL     1       2.220   8.580  17.821  0.00  0.00    +0.000 A 
ATOM      5  C   UNL     1       2.650   7.384  18.406  0.00  0.00    +0.000 A 
ATOM      6  C   UNL     1       2.321   7.133  19.745  0.00  0.00    +0.000 A 
ATOM      7  C   UNL     1       1.537   8.046  20.467  0.00  0.00    +0.000 A 
BRANCH   2   8
ATOM      8  O   UNL     1       0.301  10.046  20.644  0.00  0.00    +0.000 OA
BRANCH   8   9
ATOM      9  C   UNL     1       0.609  10.018  22.041  0.00  0.00    +0.000 C 
BRANCH   9  11
ATOM     10  C   UNL     1      -1.371  11.220  22.962  0.00  0.00    +0.000 C 
ATOM     11  C   UNL     1      -0.653   9.880  22.882  0.00  0.00    +0.000 C 
ENDBRANCH   9  11
ENDBRANCH   8   9
ENDBRANCH   2   8
ENDBRANCH   1   5
BRANCH   1  12
ATOM     12  N   UNL     1       3.392   5.069  18.103  0.00  0.00    +0.000 N 
ATOM     13  C   UNL     1       3.838   4.015  17.330  0.00  0.00    +0.000 C 
ATOM     14  O   UNL     1       4.275   4.164  16.191  0.00  0.00    +0.000 OA
ATOM     15  H   UNL     1       3.303   4.941  19.104  0.00  0.00    +0.000 HD
BRANCH  13  16
ATOM     16  C   UNL     1       3.706   2.649  17.975  0.00  0.00    +0.000 C 
BRANCH  16  17
ATOM     17  C   UNL     1       2.952   2.726  19.266  0.00  0.00    +0.000 A 
ATOM     18  C   UNL     1       3.452   2.681  20.553  0.00  0.00    +0.000 A 
ATOM     19  C   UNL     1       2.422   2.694  21.539  0.00  0.00    +0.000 A 
ATOM     20  C   UNL     1       1.169   2.764  20.971  0.00  0.00    +0.000 A 
ATOM     21  S   UNL     1       1.239   2.822  19.264  0.00  0.00    +0.000 S 
ENDBRANCH  16  17
ENDBRANCH  13  16
ENDBRANCH   1  12
TORSDOF 7
ENDMDL
MODEL 9
REMARK VINA RESULT:      -6.3      4.038      7.878
REMARK  Name = 
REMARK  8 active torsions:
REMARK  status: ('A' for Active; 'I' for Inactive)
REMARK    1  A    between atoms: C_1  and  C_2
REMARK    2  A    between atoms: C_2  and  C_3
REMARK    3  A    between atoms: C_3  and  O_4
REMARK    4  A    between atoms: O_4  and  C_5
REMARK    5  A    between atoms: C_8  and  C_9
REMARK    6  A    between atoms: C_9  and  N_10
REMARK    7  A    between atoms: C_11  and  C_13
REMARK    8  A    between atoms: C_13  and  C_14
REMARK                            x       y       z     vdW  Elec       q    Type
REMARK                         _______ _______ _______ _____ _____    ______ ____
ROOT
ATOM      1  C   UNL     1       6.833   5.221  17.655  0.00  0.00    +0.000 C 
ENDROOT
BRANCH   1   5
ATOM      2  C   UNL     1       6.026   3.857  13.630  0.00  0.00    +0.000 A 
ATOM      3  C   UNL     1       5.260   3.418  14.715  0.00  0.00    +0.000 A 
ATOM      4  C   UNL     1       5.546   3.847  16.010  0.00  0.00    +0.000 A 
ATOM      5  C   UNL     1       6.596   4.739  16.251  0.00  0.00    +0.000 A 
ATOM      6  C   UNL     1       7.386   5.158  15.171  0.00  0.00    +0.000 A 
ATOM      7  C   UNL     1       7.096   4.722  13.868  0.00  0.00    +0.000 A 
BRANCH   2   8
ATOM      8  O   UNL     1       5.803   3.502  12.320  0.00  0.00    +0.000 OA
BRANCH   8   9
ATOM      9  C   UNL     1       6.980   3.444  11.509  0.00  0.00    +0.000 C 
BRANCH   9  11
ATOM     10  C   UNL     1       6.136   1.139  11.078  0.00  0.00    +0.000 C 
ATOM     11  C   UNL     1       7.381   2.003  11.218  0.00  0.00    +0.000 C 
ENDBRANCH   9  11
ENDBRANCH   8   9
ENDBRANCH   2   8
ENDBRANCH   1   5
BRANCH   1  12
ATOM     12  N   UNL     1       5.634   5.735  18.273  0.00  0.00    +0.000 N 
ATOM     13  C   UNL     1       4.971   4.973  19.215  0.00  0.00    +0.000 C 
ATOM     14  O   UNL     1       5.353   3.856  19.557  0.00  0.00    +0.000 OA
ATOM     15  H   UNL     1       5.449   6.729  18.225  0.00  0.00    +0.000 HD
BRANCH  13  16
ATOM     16  C   UNL     1       3.706   5.601  19.768  0.00  0.00    +0.000 C 
BRANCH  16  17
ATOM     17  C   UNL     1       2.631   4.577  19.967  0.00  0.00    +0.000 A 
ATOM     18  C   UNL     1       2.206   4.001  21.148  0.00  0.00    +0.000 A 
ATOM     19  C   UNL     1       1.217   2.995  20.938  0.00  0.00    +0.000 A 
ATOM     20  C   UNL     1       0.909   2.848  19.604  0.00  0.00    +0.000 A 
ATOM     21  S   UNL     1       1.801   3.921  18.617  0.00  0.00    +0.000 S 
ENDBRANCH  16  17
ENDBRANCH  13  16
ENDBRANCH   1  12
TORSDOF 7
ENDMDL
