MODEL 1
REMARK VINA RESULT:      -6.2      0.000      0.000
REMARK  Name = 
REMARK  9 active torsions:
REMARK  status: ('A' for Active; 'I' for Inactive)
REMARK    1  A    between atoms: C_1  and  C_2
REMARK    2  A    between atoms: C_6  and  C_7
REMARK    3  A    between atoms: C_7  and  O_8
REMARK    4  A    between atoms: C_9  and  C_10
REMARK    5  A    between atoms: C_16  and  C_17
REMARK    6  A    between atoms: C_17  and  N_18
REMARK    7  A    between atoms: N_18  and  C_19
REMARK    8  A    between atoms: C_19  and  C_20
REMARK    9  A    between atoms: C_25  and  C_26
REMARK                            x       y       z     vdW  Elec       q    Type
REMARK                         _______ _______ _______ _____ _____    ______ ____
ROOT
ATOM      1  C   UNL     1       4.330   1.912  21.213  0.00  0.00    +0.000 C 
ATOM      2  C   UNL     1       3.356   2.815  20.544  0.00  0.00    +0.000 A 
ATOM      3  N   UNL     1       3.784   3.623  19.494  0.00  0.00    +0.000 NA
ATOM      4  C   UNL     1       2.803   4.386  19.058  0.00  0.00    +0.000 A 
ATOM      5  N   UNL     1       2.864   5.314  18.064  0.00  0.00    +0.000 N 
ATOM      6  C   UNL     1       3.678   5.316  16.871  0.00  0.00    +0.000 C 
ATOM      7  C   UNL     1       4.286   6.671  17.300  0.00  0.00    +0.000 C 
ATOM      8  C   UNL     1       3.166   6.707  18.365  0.00  0.00    +0.000 C 
ATOM      9  S   UNL     1       1.303   4.139  19.885  0.00  0.00    +0.000 S 
ATOM     10  C   UNL     1       2.015   2.934  20.861  0.00  0.00    +0.000 A 
ATOM     11  C   UNL     1       1.209   2.195  21.869  0.00  0.00    +0.000 C 
ENDROOT
BRANCH   7  12
ATOM     12  C   UNL     1       5.834   6.724  17.746  0.00  0.00    +0.000 A 
ATOM     13  C   UNL     1       6.363   5.787  18.657  0.00  0.00    +0.000 A 
ATOM     14  C   UNL     1       7.667   5.884  19.156  0.00  0.00    +0.000 A 
ATOM     15  C   UNL     1       8.491   6.930  18.755  0.00  0.00    +0.000 A 
ATOM     16  C   UNL     1       8.021   7.853  17.830  0.00  0.00    +0.000 A 
ATOM     17  C   UNL     1       6.721   7.737  17.326  0.00  0.00    +0.000 A 
ENDBRANCH   7  12
BRANCH   6  18
ATOM     18  C   UNL     1       4.548   4.108  16.568  0.00  0.00    +0.000 C 
BRANCH  18  19
ATOM     19  O   UNL     1       5.185   4.310  15.301  0.00  0.00    +0.000 OA
ATOM     20  H   UNL     1       4.546   4.784  14.737  0.00  0.00    +0.000 HD
ENDBRANCH  18  19
ENDBRANCH   6  18
BRANCH   8  21
ATOM     21  C   UNL     1       1.946   7.608  18.065  0.00  0.00    +0.000 C 
BRANCH  21  22
ATOM     22  N   UNL     1       1.690   8.479  19.214  0.00  0.00    +0.000 NA
ATOM     23  H   UNL     1       0.759   8.882  19.125  0.00  0.00    +0.000 HD
BRANCH  22  24
ATOM     24  C   UNL     1       1.816   7.819  20.507  0.00  0.00    +0.000 C 
BRANCH  24  25
ATOM     25  C   UNL     1       1.150   8.708  21.555  0.00  0.00    +0.000 C 
ATOM     26  C   UNL     1       0.909  10.195  21.162  0.00  0.00    +0.000 C 
ATOM     27  C   UNL     1      -0.378  10.131  22.004  0.00  0.00    +0.000 C 
ATOM     28  C   UNL     1      -0.390   8.609  21.731  0.00  0.00    +0.000 C 
ENDBRANCH  24  25
ENDBRANCH  22  24
ENDBRANCH  21  22
ENDBRANCH   8  21
TORSDOF 7
ENDMDL
MODEL 2
REMARK VINA RESULT:      -6.2      2.301      5.338
REMARK  Name = 
REMARK  9 active torsions:
REMARK  status: ('A' for Active; 'I' for Inactive)
REMARK    1  A    between atoms: C_1  and  C_2
REMARK    2  A    between atoms: C_6  and  C_7
REMARK    3  A    between atoms: C_7  and  O_8
REMARK    4  A    between atoms: C_9  and  C_10
REMARK    5  A    between atoms: C_16  and  C_17
REMARK    6  A    between atoms: C_17  and  N_18
REMARK    7  A    between atoms: N_18  and  C_19
REMARK    8  A    between atoms: C_19  and  C_20
REMARK    9  A    between atoms: C_25  and  C_26
REMARK                            x       y       z     vdW  Elec       q    Type
REMARK                         _______ _______ _______ _____ _____    ______ ____
ROOT
ATOM      1  C   UNL     1       2.410   8.929  17.465  0.00  0.00    +0.000 C 
ATOM      2  C   UNL     1       2.761   7.841  18.416  0.00  0.00    +0.000 A 
ATOM      3  N   UNL     1       3.903   7.077  18.187  0.00  0.00    +0.000 NA
ATOM      4  C   UNL     1       4.029   6.135  19.099  0.00  0.00    +0.000 A 
ATOM      5  N   UNL     1       5.008   5.191  19.175  0.00  0.00    +0.000 N 
ATOM      6  C   UNL     1       6.392   5.282  18.775  0.00  0.00    +0.000 C 
ATOM      7  C   UNL     1       6.188   4.075  17.830  0.00  0.00    +0.000 C 
ATOM      8  C   UNL     1       4.832   3.887  18.549  0.00  0.00    +0.000 C 
ATOM      9  S   UNL     1       2.780   6.149  20.297  0.00  0.00    +0.000 S 
ATOM     10  C   UNL     1       2.052   7.500  19.553  0.00  0.00    +0.000 A 
ATOM     11  C   UNL     1       0.836   8.128  20.136  0.00  0.00    +0.000 C 
ENDROOT
BRANCH   7  12
ATOM     12  C   UNL     1       6.236   4.314  16.237  0.00  0.00    +0.000 A 
ATOM     13  C   UNL     1       5.141   3.978  15.415  0.00  0.00    +0.000 A 
ATOM     14  C   UNL     1       5.201   4.060  14.019  0.00  0.00    +0.000 A 
ATOM     15  C   UNL     1       6.369   4.485  13.396  0.00  0.00    +0.000 A 
ATOM     16  C   UNL     1       7.458   4.862  14.171  0.00  0.00    +0.000 A 
ATOM     17  C   UNL     1       7.381   4.792  15.566  0.00  0.00    +0.000 A 
ENDBRANCH   7  12
BRANCH   6  18
ATOM     18  C   UNL     1       6.929   6.611  18.270  0.00  0.00    +0.000 C 
BRANCH  18  19
ATOM     19  O   UNL     1       8.204   6.848  18.880  0.00  0.00    +0.000 OA
ATOM     20  H   UNL     1       8.123   7.676  19.388  0.00  0.00    +0.000 HD
ENDBRANCH  18  19
ENDBRANCH   6  18
BRANCH   8  21
ATOM     21  C   UNL     1       4.758   2.774  19.620  0.00  0.00    +0.000 C 
BRANCH  21  22
ATOM     22  N   UNL     1       4.192   1.562  19.023  0.00  0.00    +0.000 NA
ATOM     23  H   UNL     1       3.803   0.978  19.761  0.00  0.00    +0.000 HD
BRANCH  22  24
ATOM     24  C   UNL     1       3.174   1.812  18.009  0.00  0.00    +0.000 C 
BRANCH  24  25
ATOM     25  C   UNL     1       1.831   1.964  18.719  0.00  0.00    +0.000 C 
ATOM     26  C   UNL     1       1.873   2.403  20.212  0.00  0.00    +0.000 C 
ATOM     27  C   UNL     1       0.566   3.171  19.945  0.00  0.00    +0.000 C 
ATOM     28  C   UNL     1       1.008   3.256  18.466  0.00  0.00    +0.000 C 
ENDBRANCH  24  25
ENDBRANCH  22  24
ENDBRANCH  21  22
ENDBRANCH   8  21
TORSDOF 7
ENDMDL
MODEL 3
REMARK VINA RESULT:      -5.9      1.309      1.464
REMARK  Name = 
REMARK  9 active torsions:
REMARK  status: ('A' for Active; 'I' for Inactive)
REMARK    1  A    between atoms: C_1  and  C_2
REMARK    2  A    between atoms: C_6  and  C_7
REMARK    3  A    between atoms: C_7  and  O_8
REMARK    4  A    between atoms: C_9  and  C_10
REMARK    5  A    between atoms: C_16  and  C_17
REMARK    6  A    between atoms: C_17  and  N_18
REMARK    7  A    between atoms: N_18  and  C_19
REMARK    8  A    between atoms: C_19  and  C_20
REMARK    9  A    between atoms: C_25  and  C_26
REMARK                            x       y       z     vdW  Elec       q    Type
REMARK                         _______ _______ _______ _____ _____    ______ ____
ROOT
ATOM      1  C   UNL     1       4.388   1.995  21.211  0.00  0.00    +0.000 C 
ATOM      2  C   UNL     1       3.421   2.855  20.479  0.00  0.00    +0.000 A 
ATOM      3  N   UNL     1       3.871   3.640  19.421  0.00  0.00    +0.000 NA
ATOM      4  C   UNL     1       2.890   4.368  18.925  0.00  0.00    +0.000 A 
ATOM      5  N   UNL     1       2.969   5.266  17.905  0.00  0.00    +0.000 N 
ATOM      6  C   UNL     1       3.827   5.250  16.743  0.00  0.00    +0.000 C 
ATOM      7  C   UNL     1       4.389   6.631  17.152  0.00  0.00    +0.000 C 
ATOM      8  C   UNL     1       3.230   6.674  18.173  0.00  0.00    +0.000 C 
ATOM      9  S   UNL     1       1.366   4.111  19.703  0.00  0.00    +0.000 S 
ATOM     10  C   UNL     1       2.066   2.953  20.742  0.00  0.00    +0.000 A 
ATOM     11  C   UNL     1       1.239   2.227  21.742  0.00  0.00    +0.000 C 
ENDROOT
BRANCH   7  12
ATOM     12  C   UNL     1       5.918   6.733  17.654  0.00  0.00    +0.000 A 
ATOM     13  C   UNL     1       6.443   5.814  18.586  0.00  0.00    +0.000 A 
ATOM     14  C   UNL     1       7.724   5.952  19.131  0.00  0.00    +0.000 A 
ATOM     15  C   UNL     1       8.529   7.023  18.758  0.00  0.00    +0.000 A 
ATOM     16  C   UNL     1       8.064   7.930  17.814  0.00  0.00    +0.000 A 
ATOM     17  C   UNL     1       6.787   7.773  17.263  0.00  0.00    +0.000 A 
ENDBRANCH   7  12
BRANCH   6  18
ATOM     18  C   UNL     1       4.734   4.053  16.511  0.00  0.00    +0.000 C 
BRANCH  18  19
ATOM     19  O   UNL     1       5.346   4.188  15.223  0.00  0.00    +0.000 OA
ATOM     20  H   UNL     1       5.403   5.143  15.037  0.00  0.00    +0.000 HD
ENDBRANCH  18  19
ENDBRANCH   6  18
BRANCH   8  21
ATOM     21  C   UNL     1       2.002   7.537  17.800  0.00  0.00    +0.000 C 
BRANCH  21  22
ATOM     22  N   UNL     1       1.826   8.591  18.801  0.00  0.00    +0.000 NA
ATOM     23  H   UNL     1       2.714   8.752  19.274  0.00  0.00    +0.000 HD
BRANCH  22  24
ATOM     24  C   UNL     1       1.323   9.850  18.265  0.00  0.00    +0.000 C 
BRANCH  24  25
ATOM     25  C   UNL     1       0.005  10.166  18.967  0.00  0.00    +0.000 C 
ATOM     26  C   UNL     1      -0.231  11.648  19.382  0.00  0.00    +0.000 C 
ATOM     27  C   UNL     1      -1.722  11.417  19.080  0.00  0.00    +0.000 C 
ATOM     28  C   UNL     1      -1.274  10.312  18.097  0.00  0.00    +0.000 C 
ENDBRANCH  24  25
ENDBRANCH  22  24
ENDBRANCH  21  22
ENDBRANCH   8  21
TORSDOF 7
ENDMDL
MODEL 4
REMARK VINA RESULT:      -5.8      2.531      5.134
REMARK  Name = 
REMARK  9 active torsions:
REMARK  status: ('A' for Active; 'I' for Inactive)
REMARK    1  A    between atoms: C_1  and  C_2
REMARK    2  A    between atoms: C_6  and  C_7
REMARK    3  A    between atoms: C_7  and  O_8
REMARK    4  A    between atoms: C_9  and  C_10
REMARK    5  A    between atoms: C_16  and  C_17
REMARK    6  A    between atoms: C_17  and  N_18
REMARK    7  A    between atoms: N_18  and  C_19
REMARK    8  A    between atoms: C_19  and  C_20
REMARK    9  A    between atoms: C_25  and  C_26
REMARK                            x       y       z     vdW  Elec       q    Type
REMARK                         _______ _______ _______ _____ _____    ______ ____
ROOT
ATOM      1  C   UNL     1       5.749   2.647  15.141  0.00  0.00    +0.000 C 
ATOM      2  C   UNL     1       5.607   4.084  15.496  0.00  0.00    +0.000 A 
ATOM      3  N   UNL     1       5.034   4.432  16.716  0.00  0.00    +0.000 NA
ATOM      4  C   UNL     1       4.946   5.741  16.839  0.00  0.00    +0.000 A 
ATOM      5  N   UNL     1       4.418   6.435  17.884  0.00  0.00    +0.000 N 
ATOM      6  C   UNL     1       4.400   6.092  19.287  0.00  0.00    +0.000 C 
ATOM      7  C   UNL     1       2.856   6.181  19.278  0.00  0.00    +0.000 C 
ATOM      8  C   UNL     1       3.015   6.827  17.883  0.00  0.00    +0.000 C 
ATOM      9  S   UNL     1       5.582   6.614  15.486  0.00  0.00    +0.000 S 
ATOM     10  C   UNL     1       6.008   5.153  14.716  0.00  0.00    +0.000 A 
ATOM     11  C   UNL     1       6.702   5.160  13.400  0.00  0.00    +0.000 C 
ENDROOT
BRANCH   7  12
ATOM     12  C   UNL     1       1.997   4.828  19.454  0.00  0.00    +0.000 A 
ATOM     13  C   UNL     1       1.666   4.335  20.733  0.00  0.00    +0.000 A 
ATOM     14  C   UNL     1       1.029   3.102  20.916  0.00  0.00    +0.000 A 
ATOM     15  C   UNL     1       0.700   2.317  19.818  0.00  0.00    +0.000 A 
ATOM     16  C   UNL     1       0.976   2.783  18.538  0.00  0.00    +0.000 A 
ATOM     17  C   UNL     1       1.597   4.025  18.366  0.00  0.00    +0.000 A 
ENDBRANCH   7  12
BRANCH   6  18
ATOM     18  C   UNL     1       5.128   4.842  19.751  0.00  0.00    +0.000 C 
BRANCH  18  19
ATOM     19  O   UNL     1       6.538   5.092  19.709  0.00  0.00    +0.000 OA
ATOM     20  H   UNL     1       6.911   4.735  20.536  0.00  0.00    +0.000 HD
ENDBRANCH  18  19
ENDBRANCH   6  18
BRANCH   8  21
ATOM     21  C   UNL     1       2.878   8.365  17.806  0.00  0.00    +0.000 C 
BRANCH  21  22
ATOM     22  N   UNL     1       1.468   8.736  17.951  0.00  0.00    +0.000 NA
ATOM     23  H   UNL     1       0.973   7.981  18.424  0.00  0.00    +0.000 HD
BRANCH  22  24
ATOM     24  C   UNL     1       1.248   9.988  18.664  0.00  0.00    +0.000 C 
BRANCH  24  25
ATOM     25  C   UNL     1       0.371   9.689  19.878  0.00  0.00    +0.000 C 
ATOM     26  C   UNL     1       0.936   8.681  20.921  0.00  0.00    +0.000 C 
ATOM     27  C   UNL     1       0.230   9.517  22.002  0.00  0.00    +0.000 C 
ATOM     28  C   UNL     1       0.346  10.721  21.039  0.00  0.00    +0.000 C 
ENDBRANCH  24  25
ENDBRANCH  22  24
ENDBRANCH  21  22
ENDBRANCH   8  21
TORSDOF 7
ENDMDL
MODEL 5
REMARK VINA RESULT:      -5.8      7.635     10.385
REMARK  Name = 
REMARK  9 active torsions:
REMARK  status: ('A' for Active; 'I' for Inactive)
REMARK    1  A    between atoms: C_1  and  C_2
REMARK    2  A    between atoms: C_6  and  C_7
REMARK    3  A    between atoms: C_7  and  O_8
REMARK    4  A    between atoms: C_9  and  C_10
REMARK    5  A    between atoms: C_16  and  C_17
REMARK    6  A    between atoms: C_17  and  N_18
REMARK    7  A    between atoms: N_18  and  C_19
REMARK    8  A    between atoms: C_19  and  C_20
REMARK    9  A    between atoms: C_25  and  C_26
REMARK                            x       y       z     vdW  Elec       q    Type
REMARK                         _______ _______ _______ _____ _____    ______ ____
ROOT
ATOM      1  C   UNL     1      -2.933  15.822  23.812  0.00  0.00    +0.000 C 
ATOM      2  C   UNL     1      -2.341  14.582  23.243  0.00  0.00    +0.000 A 
ATOM      3  N   UNL     1      -1.252  14.679  22.380  0.00  0.00    +0.000 NA
ATOM      4  C   UNL     1      -0.893  13.490  21.940  0.00  0.00    +0.000 A 
ATOM      5  N   UNL     1       0.111  13.207  21.065  0.00  0.00    +0.000 N 
ATOM      6  C   UNL     1       1.367  13.891  20.870  0.00  0.00    +0.000 C 
ATOM      7  C   UNL     1       1.001  14.120  19.385  0.00  0.00    +0.000 C 
ATOM      8  C   UNL     1      -0.153  13.123  19.635  0.00  0.00    +0.000 C 
ATOM      9  S   UNL     1      -1.845  12.192  22.576  0.00  0.00    +0.000 S 
ATOM     10  C   UNL     1      -2.767  13.291  23.499  0.00  0.00    +0.000 A 
ATOM     11  C   UNL     1      -3.845  12.810  24.403  0.00  0.00    +0.000 C 
ENDROOT
BRANCH   7  12
ATOM     12  C   UNL     1       0.686  15.618  18.882  0.00  0.00    +0.000 A 
ATOM     13  C   UNL     1      -0.628  16.130  18.891  0.00  0.00    +0.000 A 
ATOM     14  C   UNL     1      -0.947  17.379  18.346  0.00  0.00    +0.000 A 
ATOM     15  C   UNL     1       0.047  18.163  17.771  0.00  0.00    +0.000 A 
ATOM     16  C   UNL     1       1.361  17.712  17.775  0.00  0.00    +0.000 A 
ATOM     17  C   UNL     1       1.671  16.469  18.338  0.00  0.00    +0.000 A 
ENDBRANCH   7  12
BRANCH   6  18
ATOM     18  C   UNL     1       1.732  15.043  21.792  0.00  0.00    +0.000 C 
BRANCH  18  19
ATOM     19  O   UNL     1       2.921  14.693  22.511  0.00  0.00    +0.000 OA
ATOM     20  H   UNL     1       3.270  13.881  22.100  0.00  0.00    +0.000 HD
ENDBRANCH  18  19
ENDBRANCH   6  18
BRANCH   8  21
ATOM     21  C   UNL     1       0.051  11.676  19.127  0.00  0.00    +0.000 C 
BRANCH  21  22
ATOM     22  N   UNL     1      -1.251  11.082  18.815  0.00  0.00    +0.000 NA
ATOM     23  H   UNL     1      -1.869  11.807  18.455  0.00  0.00    +0.000 HD
BRANCH  22  24
ATOM     24  C   UNL     1      -1.193   9.974  17.870  0.00  0.00    +0.000 C 
BRANCH  24  25
ATOM     25  C   UNL     1      -2.496   9.967  17.074  0.00  0.00    +0.000 C 
ATOM     26  C   UNL     1      -3.733  10.629  17.749  0.00  0.00    +0.000 C 
ATOM     27  C   UNL     1      -4.168  11.077  16.342  0.00  0.00    +0.000 C 
ATOM     28  C   UNL     1      -2.674  11.020  15.946  0.00  0.00    +0.000 C 
ENDBRANCH  24  25
ENDBRANCH  22  24
ENDBRANCH  21  22
ENDBRANCH   8  21
TORSDOF 7
ENDMDL
MODEL 6
REMARK VINA RESULT:      -5.7      5.624      9.674
REMARK  Name = 
REMARK  9 active torsions:
REMARK  status: ('A' for Active; 'I' for Inactive)
REMARK    1  A    between atoms: C_1  and  C_2
REMARK    2  A    between atoms: C_6  and  C_7
REMARK    3  A    between atoms: C_7  and  O_8
REMARK    4  A    between atoms: C_9  and  C_10
REMARK    5  A    between atoms: C_16  and  C_17
REMARK    6  A    between atoms: C_17  and  N_18
REMARK    7  A    between atoms: N_18  and  C_19
REMARK    8  A    between atoms: C_19  and  C_20
REMARK    9  A    between atoms: C_25  and  C_26
REMARK                            x       y       z     vdW  Elec       q    Type
REMARK                         _______ _______ _______ _____ _____    ______ ____
ROOT
ATOM      1  C   UNL     1       0.408   9.216  23.654  0.00  0.00    +0.000 C 
ATOM      2  C   UNL     1       0.467   9.645  22.231  0.00  0.00    +0.000 A 
ATOM      3  N   UNL     1       0.006  10.912  21.881  0.00  0.00    +0.000 NA
ATOM      4  C   UNL     1       0.090  11.100  20.580  0.00  0.00    +0.000 A 
ATOM      5  N   UNL     1      -0.291  12.205  19.883  0.00  0.00    +0.000 N 
ATOM      6  C   UNL     1      -0.280  13.589  20.296  0.00  0.00    +0.000 C 
ATOM      7  C   UNL     1      -1.799  13.674  20.017  0.00  0.00    +0.000 C 
ATOM      8  C   UNL     1      -1.632  12.303  19.322  0.00  0.00    +0.000 C 
ATOM      9  S   UNL     1       0.761   9.755  19.721  0.00  0.00    +0.000 S 
ATOM     10  C   UNL     1       0.959   8.894  21.180  0.00  0.00    +0.000 A 
ATOM     11  C   UNL     1       1.579   7.542  21.189  0.00  0.00    +0.000 C 
ENDROOT
BRANCH   7  12
ATOM     12  C   UNL     1      -2.812  13.836  21.260  0.00  0.00    +0.000 A 
ATOM     13  C   UNL     1      -3.211  12.722  22.027  0.00  0.00    +0.000 A 
ATOM     14  C   UNL     1      -4.182  12.815  23.030  0.00  0.00    +0.000 A 
ATOM     15  C   UNL     1      -4.789  14.035  23.303  0.00  0.00    +0.000 A 
ATOM     16  C   UNL     1      -4.398  15.165  22.596  0.00  0.00    +0.000 A 
ATOM     17  C   UNL     1      -3.414  15.064  21.605  0.00  0.00    +0.000 A 
ENDBRANCH   7  12
BRANCH   6  18
ATOM     18  C   UNL     1       0.306  13.951  21.649  0.00  0.00    +0.000 C 
BRANCH  18  19
ATOM     19  O   UNL     1       1.721  13.727  21.608  0.00  0.00    +0.000 OA
ATOM     20  H   UNL     1       2.118  14.312  22.279  0.00  0.00    +0.000 HD
ENDBRANCH  18  19
ENDBRANCH   6  18
BRANCH   8  21
ATOM     21  C   UNL     1      -1.578  12.306  17.776  0.00  0.00    +0.000 C 
BRANCH  21  22
ATOM     22  N   UNL     1      -2.871  11.870  17.244  0.00  0.00    +0.000 NA
ATOM     23  H   UNL     1      -2.713  11.283  16.427  0.00  0.00    +0.000 HD
BRANCH  22  24
ATOM     24  C   UNL     1      -3.706  11.160  18.203  0.00  0.00    +0.000 C 
BRANCH  24  25
ATOM     25  C   UNL     1      -5.123  11.719  18.098  0.00  0.00    +0.000 C 
ATOM     26  C   UNL     1      -6.285  10.771  18.518  0.00  0.00    +0.000 C 
ATOM     27  C   UNL     1      -7.017  12.020  19.037  0.00  0.00    +0.000 C 
ATOM     28  C   UNL     1      -5.625  12.667  19.222  0.00  0.00    +0.000 C 
ENDBRANCH  24  25
ENDBRANCH  22  24
ENDBRANCH  21  22
ENDBRANCH   8  21
TORSDOF 7
ENDMDL
MODEL 7
REMARK VINA RESULT:      -5.7      7.494     10.184
REMARK  Name = 
REMARK  9 active torsions:
REMARK  status: ('A' for Active; 'I' for Inactive)
REMARK    1  A    between atoms: C_1  and  C_2
REMARK    2  A    between atoms: C_6  and  C_7
REMARK    3  A    between atoms: C_7  and  O_8
REMARK    4  A    between atoms: C_9  and  C_10
REMARK    5  A    between atoms: C_16  and  C_17
REMARK    6  A    between atoms: C_17  and  N_18
REMARK    7  A    between atoms: N_18  and  C_19
REMARK    8  A    between atoms: C_19  and  C_20
REMARK    9  A    between atoms: C_25  and  C_26
REMARK                            x       y       z     vdW  Elec       q    Type
REMARK                         _______ _______ _______ _____ _____    ______ ____
ROOT
ATOM      1  C   UNL     1      -3.117  15.521  23.586  0.00  0.00    +0.000 C 
ATOM      2  C   UNL     1      -2.425  14.284  23.135  0.00  0.00    +0.000 A 
ATOM      3  N   UNL     1      -1.285  14.390  22.342  0.00  0.00    +0.000 NA
ATOM      4  C   UNL     1      -0.837  13.199  22.001  0.00  0.00    +0.000 A 
ATOM      5  N   UNL     1       0.238  12.920  21.214  0.00  0.00    +0.000 N 
ATOM      6  C   UNL     1       1.469  13.660  21.060  0.00  0.00    +0.000 C 
ATOM      7  C   UNL     1       1.196  13.781  19.543  0.00  0.00    +0.000 C 
ATOM      8  C   UNL     1       0.079  12.738  19.777  0.00  0.00    +0.000 C 
ATOM      9  S   UNL     1      -1.763  11.890  22.652  0.00  0.00    +0.000 S 
ATOM     10  C   UNL     1      -2.802  12.989  23.442  0.00  0.00    +0.000 A 
ATOM     11  C   UNL     1      -3.914  12.504  24.301  0.00  0.00    +0.000 C 
ENDROOT
BRANCH   7  12
ATOM     12  C   UNL     1       0.841  15.228  18.928  0.00  0.00    +0.000 A 
ATOM     13  C   UNL     1       1.848  16.069  18.413  0.00  0.00    +0.000 A 
ATOM     14  C   UNL     1       1.584  17.376  17.988  0.00  0.00    +0.000 A 
ATOM     15  C   UNL     1       0.294  17.888  18.064  0.00  0.00    +0.000 A 
ATOM     16  C   UNL     1      -0.734  17.079  18.531  0.00  0.00    +0.000 A 
ATOM     17  C   UNL     1      -0.463  15.768  18.938  0.00  0.00    +0.000 A 
ENDBRANCH   7  12
BRANCH   6  18
ATOM     18  C   UNL     1       1.710  14.882  21.930  0.00  0.00    +0.000 C 
BRANCH  18  19
ATOM     19  O   UNL     1       3.088  15.258  21.818  0.00  0.00    +0.000 OA
ATOM     20  H   UNL     1       3.524  14.570  21.282  0.00  0.00    +0.000 HD
ENDBRANCH  18  19
ENDBRANCH   6  18
BRANCH   8  21
ATOM     21  C   UNL     1       0.391  11.278  19.374  0.00  0.00    +0.000 C 
BRANCH  21  22
ATOM     22  N   UNL     1      -0.850  10.605  18.985  0.00  0.00    +0.000 NA
ATOM     23  H   UNL     1      -1.124   9.959  19.723  0.00  0.00    +0.000 HD
BRANCH  22  24
ATOM     24  C   UNL     1      -1.956  11.509  18.692  0.00  0.00    +0.000 C 
BRANCH  24  25
ATOM     25  C   UNL     1      -2.318  11.347  17.218  0.00  0.00    +0.000 C 
ATOM     26  C   UNL     1      -2.214   9.911  16.624  0.00  0.00    +0.000 C 
ATOM     27  C   UNL     1      -3.421  10.270  15.740  0.00  0.00    +0.000 C 
ATOM     28  C   UNL     1      -3.821  11.289  16.832  0.00  0.00    +0.000 C 
ENDBRANCH  24  25
ENDBRANCH  22  24
ENDBRANCH  21  22
ENDBRANCH   8  21
TORSDOF 7
ENDMDL
MODEL 8
REMARK VINA RESULT:      -5.7      5.851      9.760
REMARK  Name = 
REMARK  9 active torsions:
REMARK  status: ('A' for Active; 'I' for Inactive)
REMARK    1  A    between atoms: C_1  and  C_2
REMARK    2  A    between atoms: C_6  and  C_7
REMARK    3  A    between atoms: C_7  and  O_8
REMARK    4  A    between atoms: C_9  and  C_10
REMARK    5  A    between atoms: C_16  and  C_17
REMARK    6  A    between atoms: C_17  and  N_18
REMARK    7  A    between atoms: N_18  and  C_19
REMARK    8  A    between atoms: C_19  and  C_20
REMARK    9  A    between atoms: C_25  and  C_26
REMARK                            x       y       z     vdW  Elec       q    Type
REMARK                         _______ _______ _______ _____ _____    ______ ____
ROOT
ATOM      1  C   UNL     1       0.116   9.242  23.592  0.00  0.00    +0.000 C 
ATOM      2  C   UNL     1       0.391   9.818  22.248  0.00  0.00    +0.000 A 
ATOM      3  N   UNL     1       0.034  11.139  21.986  0.00  0.00    +0.000 NA
ATOM      4  C   UNL     1       0.309  11.461  20.739  0.00  0.00    +0.000 A 
ATOM      5  N   UNL     1       0.073  12.654  20.128  0.00  0.00    +0.000 N 
ATOM      6  C   UNL     1       0.081  13.983  20.694  0.00  0.00    +0.000 C 
ATOM      7  C   UNL     1      -1.379  14.181  20.224  0.00  0.00    +0.000 C 
ATOM      8  C   UNL     1      -1.171  12.887  19.405  0.00  0.00    +0.000 C 
ATOM      9  S   UNL     1       1.039  10.182  19.830  0.00  0.00    +0.000 S 
ATOM     10  C   UNL     1       0.996   9.158  21.194  0.00  0.00    +0.000 A 
ATOM     11  C   UNL     1       1.554   7.782  21.132  0.00  0.00    +0.000 C 
ENDROOT
BRANCH   7  12
ATOM     12  C   UNL     1      -2.549  14.264  21.330  0.00  0.00    +0.000 A 
ATOM     13  C   UNL     1      -3.144  13.097  21.852  0.00  0.00    +0.000 A 
ATOM     14  C   UNL     1      -4.243  13.142  22.717  0.00  0.00    +0.000 A 
ATOM     15  C   UNL     1      -4.786  14.365  23.093  0.00  0.00    +0.000 A 
ATOM     16  C   UNL     1      -4.206  15.540  22.630  0.00  0.00    +0.000 A 
ATOM     17  C   UNL     1      -3.097  15.484  21.778  0.00  0.00    +0.000 A 
ENDBRANCH   7  12
BRANCH   6  18
ATOM     18  C   UNL     1       0.486  14.164  22.147  0.00  0.00    +0.000 C 
BRANCH  18  19
ATOM     19  O   UNL     1       1.495  15.178  22.217  0.00  0.00    +0.000 OA
ATOM     20  H   UNL     1       1.337  15.784  21.470  0.00  0.00    +0.000 HD
ENDBRANCH  18  19
ENDBRANCH   6  18
BRANCH   8  21
ATOM     21  C   UNL     1      -0.900  13.053  17.892  0.00  0.00    +0.000 C 
BRANCH  21  22
ATOM     22  N   UNL     1      -1.750  12.127  17.141  0.00  0.00    +0.000 NA
ATOM     23  H   UNL     1      -1.258  11.832  16.299  0.00  0.00    +0.000 HD
BRANCH  22  24
ATOM     24  C   UNL     1      -2.172  10.954  17.896  0.00  0.00    +0.000 C 
BRANCH  24  25
ATOM     25  C   UNL     1      -3.682  10.802  17.724  0.00  0.00    +0.000 C 
ATOM     26  C   UNL     1      -4.584  11.711  18.610  0.00  0.00    +0.000 C 
ATOM     27  C   UNL     1      -5.568  11.760  17.428  0.00  0.00    +0.000 C 
ATOM     28  C   UNL     1      -4.355  11.492  16.506  0.00  0.00    +0.000 C 
ENDBRANCH  24  25
ENDBRANCH  22  24
ENDBRANCH  21  22
ENDBRANCH   8  21
TORSDOF 7
ENDMDL
MODEL 9
REMARK VINA RESULT:      -5.6      5.612      9.942
REMARK  Name = 
REMARK  9 active torsions:
REMARK  status: ('A' for Active; 'I' for Inactive)
REMARK    1  A    between atoms: C_1  and  C_2
REMARK    2  A    between atoms: C_6  and  C_7
REMARK    3  A    between atoms: C_7  and  O_8
REMARK    4  A    between atoms: C_9  and  C_10
REMARK    5  A    between atoms: C_16  and  C_17
REMARK    6  A    between atoms: C_17  and  N_18
REMARK    7  A    between atoms: N_18  and  C_19
REMARK    8  A    between atoms: C_19  and  C_20
REMARK    9  A    between atoms: C_25  and  C_26
REMARK                            x       y       z     vdW  Elec       q    Type
REMARK                         _______ _______ _______ _____ _____    ______ ____
ROOT
ATOM      1  C   UNL     1       0.290   9.112  23.571  0.00  0.00    +0.000 C 
ATOM      2  C   UNL     1       0.281   9.573  22.157  0.00  0.00    +0.000 A 
ATOM      3  N   UNL     1      -0.377  10.755  21.829  0.00  0.00    +0.000 NA
ATOM      4  C   UNL     1      -0.322  10.980  20.532  0.00  0.00    +0.000 A 
ATOM      5  N   UNL     1      -0.875  12.023  19.855  0.00  0.00    +0.000 N 
ATOM      6  C   UNL     1      -1.088  13.382  20.294  0.00  0.00    +0.000 C 
ATOM      7  C   UNL     1      -2.600  13.227  20.010  0.00  0.00    +0.000 C 
ATOM      8  C   UNL     1      -2.214  11.915  19.289  0.00  0.00    +0.000 C 
ATOM      9  S   UNL     1       0.558   9.777  19.651  0.00  0.00    +0.000 S 
ATOM     10  C   UNL     1       0.889   8.931  21.094  0.00  0.00    +0.000 A 
ATOM     11  C   UNL     1       1.719   7.697  21.080  0.00  0.00    +0.000 C 
ENDROOT
BRANCH   7  12
ATOM     12  C   UNL     1      -3.627  13.200  21.251  0.00  0.00    +0.000 A 
ATOM     13  C   UNL     1      -4.858  13.885  21.195  0.00  0.00    +0.000 A 
ATOM     14  C   UNL     1      -5.711  13.981  22.300  0.00  0.00    +0.000 A 
ATOM     15  C   UNL     1      -5.358  13.388  23.507  0.00  0.00    +0.000 A 
ATOM     16  C   UNL     1      -4.171  12.672  23.594  0.00  0.00    +0.000 A 
ATOM     17  C   UNL     1      -3.333  12.569  22.478  0.00  0.00    +0.000 A 
ENDBRANCH   7  12
BRANCH   6  18
ATOM     18  C   UNL     1      -0.569  13.807  21.657  0.00  0.00    +0.000 C 
BRANCH  18  19
ATOM     19  O   UNL     1       0.855  13.643  21.675  0.00  0.00    +0.000 OA
ATOM     20  H   UNL     1       1.180  14.096  22.474  0.00  0.00    +0.000 HD
ENDBRANCH  18  19
ENDBRANCH   6  18
BRANCH   8  21
ATOM     21  C   UNL     1      -2.158  11.957  17.744  0.00  0.00    +0.000 C 
BRANCH  21  22
ATOM     22  N   UNL     1      -3.498  11.717  17.203  0.00  0.00    +0.000 NA
ATOM     23  H   UNL     1      -3.413  11.341  16.260  0.00  0.00    +0.000 HD
BRANCH  22  24
ATOM     24  C   UNL     1      -4.321  10.827  18.012  0.00  0.00    +0.000 C 
BRANCH  24  25
ATOM     25  C   UNL     1      -5.774  11.276  17.873  0.00  0.00    +0.000 C 
ATOM     26  C   UNL     1      -6.647  11.238  19.162  0.00  0.00    +0.000 C 
ATOM     27  C   UNL     1      -7.367  12.485  18.621  0.00  0.00    +0.000 C 
ATOM     28  C   UNL     1      -6.072  12.800  17.837  0.00  0.00    +0.000 C 
ENDBRANCH  24  25
ENDBRANCH  22  24
ENDBRANCH  21  22
ENDBRANCH   8  21
TORSDOF 7
ENDMDL
