MODEL 1
REMARK VINA RESULT:      -8.7      0.000      0.000
REMARK  Name = 
REMARK  7 active torsions:
REMARK  status: ('A' for Active; 'I' for Inactive)
REMARK    1  A    between atoms: C_1  and  C_2
REMARK    2  A    between atoms: C_3  and  N_4
REMARK    3  A    between atoms: C_5  and  C_7
REMARK    4  A    between atoms: C_7  and  O_8
REMARK    5  A    between atoms: O_8  and  C_9
REMARK    6  A    between atoms: N_23  and  C_24
REMARK    7  A    between atoms: N_30  and  C_31
REMARK                            x       y       z     vdW  Elec       q    Type
REMARK                         _______ _______ _______ _____ _____    ______ ____
ROOT
ATOM      1  N   UNL     1       6.789   7.601  16.940  0.00  0.00    +0.000 N 
ATOM      2  C   UNL     1       7.767   7.888  17.895  0.00  0.00    +0.000 C 
ATOM      3  O   UNL     1       8.243   7.053  18.665  0.00  0.00    +0.000 OA
ATOM      4  H   UNL     1       6.100   8.357  16.943  0.00  0.00    +0.000 HD
ENDROOT
BRANCH   1   7
ATOM      5  C   UNL     1       7.511   5.085  15.181  0.00  0.00    +0.000 C 
ATOM      6  C   UNL     1       6.507   5.230  16.278  0.00  0.00    +0.000 A 
ATOM      7  C   UNL     1       6.203   6.353  16.956  0.00  0.00    +0.000 A 
ATOM      8  C   UNL     1       4.922   6.065  17.675  0.00  0.00    +0.000 A 
ATOM      9  O   UNL     1       4.322   6.903  18.328  0.00  0.00    +0.000 OA
ATOM     10  N   UNL     1       4.640   4.721  17.431  0.00  0.00    +0.000 N 
ATOM     11  N   UNL     1       5.657   4.162  16.617  0.00  0.00    +0.000 N 
ATOM     12  C   UNL     1       5.274   3.142  15.635  0.00  0.00    +0.000 C 
BRANCH  10  13
ATOM     13  C   UNL     1       3.632   3.939  18.017  0.00  0.00    +0.000 A 
ATOM     14  C   UNL     1       3.934   3.100  19.093  0.00  0.00    +0.000 A 
ATOM     15  C   UNL     1       2.903   2.483  19.809  0.00  0.00    +0.000 A 
ATOM     16  C   UNL     1       1.575   2.654  19.418  0.00  0.00    +0.000 A 
ATOM     17  C   UNL     1       1.273   3.428  18.302  0.00  0.00    +0.000 A 
ATOM     18  C   UNL     1       2.297   4.072  17.607  0.00  0.00    +0.000 A 
ENDBRANCH  10  13
ENDBRANCH   1   7
BRANCH   2  19
ATOM     19  C   UNL     1       8.213   9.355  17.922  0.00  0.00    +0.000 C 
BRANCH  19  20
ATOM     20  O   UNL     1       9.192   9.631  18.918  0.00  0.00    +0.000 OA
BRANCH  20  21
ATOM     21  C   UNL     1       9.729  10.904  18.877  0.00  0.00    +0.000 A 
ATOM     22  N   UNL     1      10.368  11.291  17.762  0.00  0.00    +0.000 NA
ATOM     23  C   UNL     1      10.919  12.505  17.823  0.00  0.00    +0.000 A 
ATOM     24  N   UNL     1      10.883  13.340  18.869  0.00  0.00    +0.000 NA
ATOM     25  C   UNL     1      10.216  12.946  19.973  0.00  0.00    +0.000 A 
ATOM     26  C   UNL     1      10.103  13.773  21.108  0.00  0.00    +0.000 A 
ATOM     27 CL   UNL     1      10.839  15.343  21.130  0.00  0.00    +0.000 Cl
ATOM     28  C   UNL     1       9.420  13.378  22.264  0.00  0.00    +0.000 A 
ATOM     29  C   UNL     1       8.831  12.125  22.305  0.00  0.00    +0.000 A 
ATOM     30 CL   UNL     1       7.981  11.624  23.713  0.00  0.00    +0.000 Cl
ATOM     31  C   UNL     1       8.918  11.278  21.209  0.00  0.00    +0.000 A 
ATOM     32  C   UNL     1       9.607  11.685  20.033  0.00  0.00    +0.000 A 
ENDBRANCH  20  21
ENDBRANCH  19  20
ENDBRANCH   2  19
TORSDOF 5
ENDMDL
MODEL 2
REMARK VINA RESULT:      -8.6      6.040      9.014
REMARK  Name = 
REMARK  7 active torsions:
REMARK  status: ('A' for Active; 'I' for Inactive)
REMARK    1  A    between atoms: C_1  and  C_2
REMARK    2  A    between atoms: C_3  and  N_4
REMARK    3  A    between atoms: C_5  and  C_7
REMARK    4  A    between atoms: C_7  and  O_8
REMARK    5  A    between atoms: O_8  and  C_9
REMARK    6  A    between atoms: N_23  and  C_24
REMARK    7  A    between atoms: N_30  and  C_31
REMARK                            x       y       z     vdW  Elec       q    Type
REMARK                         _______ _______ _______ _____ _____    ______ ____
ROOT
ATOM      1  N   UNL     1       2.635   6.059  20.571  0.00  0.00    +0.000 N 
ATOM      2  C   UNL     1       1.786   4.955  20.676  0.00  0.00    +0.000 C 
ATOM      3  O   UNL     1       0.662   4.900  20.176  0.00  0.00    +0.000 OA
ATOM      4  H   UNL     1       3.073   6.219  21.481  0.00  0.00    +0.000 HD
ENDROOT
BRANCH   1   7
ATOM      5  C   UNL     1       3.283   7.299  17.744  0.00  0.00    +0.000 C 
ATOM      6  C   UNL     1       2.327   7.761  18.796  0.00  0.00    +0.000 A 
ATOM      7  C   UNL     1       2.137   7.218  20.014  0.00  0.00    +0.000 A 
ATOM      8  C   UNL     1       1.363   8.231  20.799  0.00  0.00    +0.000 A 
ATOM      9  O   UNL     1       1.084   8.088  21.978  0.00  0.00    +0.000 OA
ATOM     10  N   UNL     1       1.068   9.262  19.907  0.00  0.00    +0.000 N 
ATOM     11  N   UNL     1       1.601   8.954  18.630  0.00  0.00    +0.000 N 
ATOM     12  C   UNL     1       2.112  10.057  17.811  0.00  0.00    +0.000 C 
BRANCH  10  13
ATOM     13  C   UNL     1       0.224  10.364  20.123  0.00  0.00    +0.000 A 
ATOM     14  C   UNL     1       0.643  11.416  20.941  0.00  0.00    +0.000 A 
ATOM     15  C   UNL     1      -0.099  12.600  20.990  0.00  0.00    +0.000 A 
ATOM     16  C   UNL     1      -1.290  12.715  20.272  0.00  0.00    +0.000 A 
ATOM     17  C   UNL     1      -1.751  11.643  19.514  0.00  0.00    +0.000 A 
ATOM     18  C   UNL     1      -0.994  10.474  19.436  0.00  0.00    +0.000 A 
ENDBRANCH  10  13
ENDBRANCH   1   7
BRANCH   2  19
ATOM     19  C   UNL     1       2.366   3.787  21.483  0.00  0.00    +0.000 C 
BRANCH  19  20
ATOM     20  O   UNL     1       3.470   3.153  20.847  0.00  0.00    +0.000 OA
BRANCH  20  21
ATOM     21  C   UNL     1       3.399   3.093  19.467  0.00  0.00    +0.000 A 
ATOM     22  N   UNL     1       2.391   2.401  18.911  0.00  0.00    +0.000 NA
ATOM     23  C   UNL     1       2.427   2.329  17.579  0.00  0.00    +0.000 A 
ATOM     24  N   UNL     1       3.354   2.876  16.781  0.00  0.00    +0.000 NA
ATOM     25  C   UNL     1       4.346   3.588  17.354  0.00  0.00    +0.000 A 
ATOM     26  C   UNL     1       5.344   4.220  16.588  0.00  0.00    +0.000 A 
ATOM     27 CL   UNL     1       5.341   4.093  14.859  0.00  0.00    +0.000 Cl
ATOM     28  C   UNL     1       6.385   4.957  17.167  0.00  0.00    +0.000 A 
ATOM     29  C   UNL     1       6.444   5.073  18.546  0.00  0.00    +0.000 A 
ATOM     30 CL   UNL     1       7.709   5.980  19.276  0.00  0.00    +0.000 Cl
ATOM     31  C   UNL     1       5.481   4.465  19.338  0.00  0.00    +0.000 A 
ATOM     32  C   UNL     1       4.421   3.722  18.747  0.00  0.00    +0.000 A 
ENDBRANCH  20  21
ENDBRANCH  19  20
ENDBRANCH   2  19
TORSDOF 5
ENDMDL
MODEL 3
REMARK VINA RESULT:      -8.4      5.923      9.058
REMARK  Name = 
REMARK  7 active torsions:
REMARK  status: ('A' for Active; 'I' for Inactive)
REMARK    1  A    between atoms: C_1  and  C_2
REMARK    2  A    between atoms: C_3  and  N_4
REMARK    3  A    between atoms: C_5  and  C_7
REMARK    4  A    between atoms: C_7  and  O_8
REMARK    5  A    between atoms: O_8  and  C_9
REMARK    6  A    between atoms: N_23  and  C_24
REMARK    7  A    between atoms: N_30  and  C_31
REMARK                            x       y       z     vdW  Elec       q    Type
REMARK                         _______ _______ _______ _____ _____    ______ ____
ROOT
ATOM      1  N   UNL     1       3.364   6.258  18.569  0.00  0.00    +0.000 N 
ATOM      2  C   UNL     1       2.765   5.072  18.136  0.00  0.00    +0.000 C 
ATOM      3  O   UNL     1       1.550   4.918  18.017  0.00  0.00    +0.000 OA
ATOM      4  H   UNL     1       4.117   6.023  19.220  0.00  0.00    +0.000 HD
ENDROOT
BRANCH   1   7
ATOM      5  C   UNL     1       1.751   6.351  21.277  0.00  0.00    +0.000 C 
ATOM      6  C   UNL     1       1.893   7.389  20.211  0.00  0.00    +0.000 A 
ATOM      7  C   UNL     1       2.553   7.267  19.043  0.00  0.00    +0.000 A 
ATOM      8  C   UNL     1       2.107   8.418  18.197  0.00  0.00    +0.000 A 
ATOM      9  O   UNL     1       2.457   8.568  17.038  0.00  0.00    +0.000 OA
ATOM     10  N   UNL     1       1.283   9.194  19.011  0.00  0.00    +0.000 N 
ATOM     11  N   UNL     1       1.193   8.605  20.298  0.00  0.00    +0.000 N 
ATOM     12  C   UNL     1      -0.079   8.711  21.019  0.00  0.00    +0.000 C 
BRANCH  10  13
ATOM     13  C   UNL     1       0.748  10.462  18.727  0.00  0.00    +0.000 A 
ATOM     14  C   UNL     1      -0.545  10.576  18.210  0.00  0.00    +0.000 A 
ATOM     15  C   UNL     1      -1.153  11.832  18.124  0.00  0.00    +0.000 A 
ATOM     16  C   UNL     1      -0.454  12.981  18.495  0.00  0.00    +0.000 A 
ATOM     17  C   UNL     1       0.861  12.880  18.939  0.00  0.00    +0.000 A 
ATOM     18  C   UNL     1       1.458  11.625  19.060  0.00  0.00    +0.000 A 
ENDBRANCH  10  13
ENDBRANCH   1   7
BRANCH   2  19
ATOM     19  C   UNL     1       3.755   3.946  17.816  0.00  0.00    +0.000 C 
BRANCH  19  20
ATOM     20  O   UNL     1       4.138   3.901  16.446  0.00  0.00    +0.000 OA
BRANCH  20  21
ATOM     21  C   UNL     1       5.335   4.527  16.149  0.00  0.00    +0.000 A 
ATOM     22  N   UNL     1       5.930   5.251  17.111  0.00  0.00    +0.000 NA
ATOM     23  C   UNL     1       7.043   5.882  16.730  0.00  0.00    +0.000 A 
ATOM     24  N   UNL     1       7.596   5.847  15.512  0.00  0.00    +0.000 NA
ATOM     25  C   UNL     1       7.000   5.095  14.564  0.00  0.00    +0.000 A 
ATOM     26  C   UNL     1       7.530   4.980  13.264  0.00  0.00    +0.000 A 
ATOM     27 CL   UNL     1       8.982   5.822  12.827  0.00  0.00    +0.000 Cl
ATOM     28  C   UNL     1       6.920   4.209  12.267  0.00  0.00    +0.000 A 
ATOM     29  C   UNL     1       5.747   3.532  12.560  0.00  0.00    +0.000 A 
ATOM     30 CL   UNL     1       4.987   2.574  11.351  0.00  0.00    +0.000 Cl
ATOM     31  C   UNL     1       5.191   3.619  13.828  0.00  0.00    +0.000 A 
ATOM     32  C   UNL     1       5.816   4.398  14.841  0.00  0.00    +0.000 A 
ENDBRANCH  20  21
ENDBRANCH  19  20
ENDBRANCH   2  19
TORSDOF 5
ENDMDL
MODEL 4
REMARK VINA RESULT:      -8.1      6.810      9.433
REMARK  Name = 
REMARK  7 active torsions:
REMARK  status: ('A' for Active; 'I' for Inactive)
REMARK    1  A    between atoms: C_1  and  C_2
REMARK    2  A    between atoms: C_3  and  N_4
REMARK    3  A    between atoms: C_5  and  C_7
REMARK    4  A    between atoms: C_7  and  O_8
REMARK    5  A    between atoms: O_8  and  C_9
REMARK    6  A    between atoms: N_23  and  C_24
REMARK    7  A    between atoms: N_30  and  C_31
REMARK                            x       y       z     vdW  Elec       q    Type
REMARK                         _______ _______ _______ _____ _____    ______ ____
ROOT
ATOM      1  N   UNL     1       2.078   7.767  19.596  0.00  0.00    +0.000 N 
ATOM      2  C   UNL     1       1.451   8.688  18.753  0.00  0.00    +0.000 C 
ATOM      3  O   UNL     1       1.246   8.496  17.554  0.00  0.00    +0.000 OA
ATOM      4  H   UNL     1       2.730   8.273  20.201  0.00  0.00    +0.000 HD
ENDROOT
BRANCH   1   7
ATOM      5  C   UNL     1       1.523   4.743  20.297  0.00  0.00    +0.000 C 
ATOM      6  C   UNL     1       2.404   5.337  19.245  0.00  0.00    +0.000 A 
ATOM      7  C   UNL     1       2.646   6.644  19.032  0.00  0.00    +0.000 A 
ATOM      8  C   UNL     1       3.839   6.700  18.130  0.00  0.00    +0.000 A 
ATOM      9  O   UNL     1       4.373   7.745  17.797  0.00  0.00    +0.000 OA
ATOM     10  N   UNL     1       4.130   5.377  17.799  0.00  0.00    +0.000 N 
ATOM     11  N   UNL     1       3.200   4.512  18.430  0.00  0.00    +0.000 N 
ATOM     12  C   UNL     1       3.676   3.204  18.890  0.00  0.00    +0.000 C 
BRANCH  10  13
ATOM     13  C   UNL     1       5.060   4.917  16.852  0.00  0.00    +0.000 A 
ATOM     14  C   UNL     1       4.631   4.531  15.580  0.00  0.00    +0.000 A 
ATOM     15  C   UNL     1       5.568   4.274  14.575  0.00  0.00    +0.000 A 
ATOM     16  C   UNL     1       6.934   4.345  14.851  0.00  0.00    +0.000 A 
ATOM     17  C   UNL     1       7.368   4.656  16.136  0.00  0.00    +0.000 A 
ATOM     18  C   UNL     1       6.435   4.946  17.132  0.00  0.00    +0.000 A 
ENDBRANCH  10  13
ENDBRANCH   1   7
BRANCH   2  19
ATOM     19  C   UNL     1       1.030   9.991  19.443  0.00  0.00    +0.000 C 
BRANCH  19  20
ATOM     20  O   UNL     1       0.392  10.915  18.568  0.00  0.00    +0.000 OA
BRANCH  20  21
ATOM     21  C   UNL     1      -0.809  11.425  19.025  0.00  0.00    +0.000 A 
ATOM     22  N   UNL     1      -0.846  11.962  20.255  0.00  0.00    +0.000 NA
ATOM     23  C   UNL     1      -2.052  12.369  20.654  0.00  0.00    +0.000 A 
ATOM     24  N   UNL     1      -3.188  12.291  19.949  0.00  0.00    +0.000 NA
ATOM     25  C   UNL     1      -3.130  11.772  18.706  0.00  0.00    +0.000 A 
ATOM     26  C   UNL     1      -4.270  11.679  17.885  0.00  0.00    +0.000 A 
ATOM     27 CL   UNL     1      -5.814  12.226  18.456  0.00  0.00    +0.000 Cl
ATOM     28  C   UNL     1      -4.229  11.137  16.594  0.00  0.00    +0.000 A 
ATOM     29  C   UNL     1      -3.023  10.668  16.098  0.00  0.00    +0.000 A 
ATOM     30 CL   UNL     1      -2.950  10.005  14.513  0.00  0.00    +0.000 Cl
ATOM     31  C   UNL     1      -1.875  10.739  16.874  0.00  0.00    +0.000 A 
ATOM     32  C   UNL     1      -1.919  11.297  18.182  0.00  0.00    +0.000 A 
ENDBRANCH  20  21
ENDBRANCH  19  20
ENDBRANCH   2  19
TORSDOF 5
ENDMDL
MODEL 5
REMARK VINA RESULT:      -8.0      1.412      2.494
REMARK  Name = 
REMARK  7 active torsions:
REMARK  status: ('A' for Active; 'I' for Inactive)
REMARK    1  A    between atoms: C_1  and  C_2
REMARK    2  A    between atoms: C_3  and  N_4
REMARK    3  A    between atoms: C_5  and  C_7
REMARK    4  A    between atoms: C_7  and  O_8
REMARK    5  A    between atoms: O_8  and  C_9
REMARK    6  A    between atoms: N_23  and  C_24
REMARK    7  A    between atoms: N_30  and  C_31
REMARK                            x       y       z     vdW  Elec       q    Type
REMARK                         _______ _______ _______ _____ _____    ______ ____
ROOT
ATOM      1  N   UNL     1       6.769   7.582  16.838  0.00  0.00    +0.000 N 
ATOM      2  C   UNL     1       7.671   7.908  17.854  0.00  0.00    +0.000 C 
ATOM      3  O   UNL     1       8.129   7.093  18.655  0.00  0.00    +0.000 OA
ATOM      4  H   UNL     1       6.052   8.310  16.795  0.00  0.00    +0.000 HD
ENDROOT
BRANCH   1   7
ATOM      5  C   UNL     1       7.483   5.191  14.909  0.00  0.00    +0.000 C 
ATOM      6  C   UNL     1       6.540   5.239  16.067  0.00  0.00    +0.000 A 
ATOM      7  C   UNL     1       6.233   6.312  16.820  0.00  0.00    +0.000 A 
ATOM      8  C   UNL     1       5.007   5.935  17.593  0.00  0.00    +0.000 A 
ATOM      9  O   UNL     1       4.416   6.713  18.323  0.00  0.00    +0.000 OA
ATOM     10  N   UNL     1       4.764   4.595  17.293  0.00  0.00    +0.000 N 
ATOM     11  N   UNL     1       5.753   4.120  16.395  0.00  0.00    +0.000 N 
ATOM     12  C   UNL     1       5.352   3.138  15.383  0.00  0.00    +0.000 C 
BRANCH  10  13
ATOM     13  C   UNL     1       3.822   3.743  17.893  0.00  0.00    +0.000 A 
ATOM     14  C   UNL     1       4.133   3.084  19.085  0.00  0.00    +0.000 A 
ATOM     15  C   UNL     1       3.133   2.406  19.789  0.00  0.00    +0.000 A 
ATOM     16  C   UNL     1       1.838   2.333  19.278  0.00  0.00    +0.000 A 
ATOM     17  C   UNL     1       1.540   2.923  18.053  0.00  0.00    +0.000 A 
ATOM     18  C   UNL     1       2.526   3.630  17.366  0.00  0.00    +0.000 A 
ENDBRANCH  10  13
ENDBRANCH   1   7
BRANCH   2  19
ATOM     19  C   UNL     1       8.056   9.391  17.905  0.00  0.00    +0.000 C 
BRANCH  19  20
ATOM     20  O   UNL     1       9.389   9.615  18.353  0.00  0.00    +0.000 OA
BRANCH  20  21
ATOM     21  C   UNL     1       9.526  10.589  19.325  0.00  0.00    +0.000 A 
ATOM     22  N   UNL     1       8.939  10.387  20.515  0.00  0.00    +0.000 NA
ATOM     23  C   UNL     1       9.056  11.400  21.377  0.00  0.00    +0.000 A 
ATOM     24  N   UNL     1       9.693  12.557  21.159  0.00  0.00    +0.000 NA
ATOM     25  C   UNL     1      10.299  12.733  19.966  0.00  0.00    +0.000 A 
ATOM     26  C   UNL     1      11.015  13.908  19.663  0.00  0.00    +0.000 A 
ATOM     27 CL   UNL     1      11.135  15.191  20.824  0.00  0.00    +0.000 Cl
ATOM     28  C   UNL     1      11.644  14.110  18.428  0.00  0.00    +0.000 A 
ATOM     29  C   UNL     1      11.562  13.123  17.459  0.00  0.00    +0.000 A 
ATOM     30 CL   UNL     1      12.333  13.349  15.940  0.00  0.00    +0.000 Cl
ATOM     31  C   UNL     1      10.865  11.951  17.716  0.00  0.00    +0.000 A 
ATOM     32  C   UNL     1      10.233  11.745  18.974  0.00  0.00    +0.000 A 
ENDBRANCH  20  21
ENDBRANCH  19  20
ENDBRANCH   2  19
TORSDOF 5
ENDMDL
MODEL 6
REMARK VINA RESULT:      -7.9      2.163      2.469
REMARK  Name = 
REMARK  7 active torsions:
REMARK  status: ('A' for Active; 'I' for Inactive)
REMARK    1  A    between atoms: C_1  and  C_2
REMARK    2  A    between atoms: C_3  and  N_4
REMARK    3  A    between atoms: C_5  and  C_7
REMARK    4  A    between atoms: C_7  and  O_8
REMARK    5  A    between atoms: O_8  and  C_9
REMARK    6  A    between atoms: N_23  and  C_24
REMARK    7  A    between atoms: N_30  and  C_31
REMARK                            x       y       z     vdW  Elec       q    Type
REMARK                         _______ _______ _______ _____ _____    ______ ____
ROOT
ATOM      1  N   UNL     1       6.648   7.754  16.963  0.00  0.00    +0.000 N 
ATOM      2  C   UNL     1       7.748   8.104  17.750  0.00  0.00    +0.000 C 
ATOM      3  O   UNL     1       8.213   7.391  18.639  0.00  0.00    +0.000 OA
ATOM      4  H   UNL     1       6.047   8.575  16.860  0.00  0.00    +0.000 HD
ENDROOT
BRANCH   1   7
ATOM      5  C   UNL     1       7.375   4.747  16.350  0.00  0.00    +0.000 C 
ATOM      6  C   UNL     1       6.227   5.317  17.118  0.00  0.00    +0.000 A 
ATOM      7  C   UNL     1       5.937   6.620  17.297  0.00  0.00    +0.000 A 
ATOM      8  C   UNL     1       4.533   6.662  17.813  0.00  0.00    +0.000 A 
ATOM      9  O   UNL     1       3.928   7.702  18.011  0.00  0.00    +0.000 OA
ATOM     10  N   UNL     1       4.154   5.333  17.998  0.00  0.00    +0.000 N 
ATOM     11  N   UNL     1       5.225   4.477  17.637  0.00  0.00    +0.000 N 
ATOM     12  C   UNL     1       4.901   3.191  17.013  0.00  0.00    +0.000 C 
BRANCH  10  13
ATOM     13  C   UNL     1       2.986   4.855  18.616  0.00  0.00    +0.000 A 
ATOM     14  C   UNL     1       2.017   4.189  17.860  0.00  0.00    +0.000 A 
ATOM     15  C   UNL     1       0.962   3.533  18.501  0.00  0.00    +0.000 A 
ATOM     16  C   UNL     1       0.837   3.589  19.889  0.00  0.00    +0.000 A 
ATOM     17  C   UNL     1       1.757   4.313  20.641  0.00  0.00    +0.000 A 
ATOM     18  C   UNL     1       2.830   4.939  20.007  0.00  0.00    +0.000 A 
ENDBRANCH  10  13
ENDBRANCH   1   7
BRANCH   2  19
ATOM     19  C   UNL     1       8.347   9.477  17.422  0.00  0.00    +0.000 C 
BRANCH  19  20
ATOM     20  O   UNL     1       8.582  10.281  18.573  0.00  0.00    +0.000 OA
BRANCH  20  21
ATOM     21  C   UNL     1       9.563  11.243  18.428  0.00  0.00    +0.000 A 
ATOM     22  N   UNL     1      10.847  10.866  18.538  0.00  0.00    +0.000 NA
ATOM     23  C   UNL     1      11.733  11.860  18.456  0.00  0.00    +0.000 A 
ATOM     24  N   UNL     1      11.455  13.157  18.274  0.00  0.00    +0.000 NA
ATOM     25  C   UNL     1      10.162  13.517  18.140  0.00  0.00    +0.000 A 
ATOM     26  C   UNL     1       9.781  14.854  17.917  0.00  0.00    +0.000 A 
ATOM     27 CL   UNL     1      10.978  16.106  17.817  0.00  0.00    +0.000 Cl
ATOM     28  C   UNL     1       8.444  15.245  17.782  0.00  0.00    +0.000 A 
ATOM     29  C   UNL     1       7.448  14.287  17.873  0.00  0.00    +0.000 A 
ATOM     30 CL   UNL     1       5.800  14.746  17.703  0.00  0.00    +0.000 Cl
ATOM     31  C   UNL     1       7.778  12.957  18.093  0.00  0.00    +0.000 A 
ATOM     32  C   UNL     1       9.139  12.562  18.223  0.00  0.00    +0.000 A 
ENDBRANCH  20  21
ENDBRANCH  19  20
ENDBRANCH   2  19
TORSDOF 5
ENDMDL
MODEL 7
REMARK VINA RESULT:      -7.8      7.540     10.588
REMARK  Name = 
REMARK  7 active torsions:
REMARK  status: ('A' for Active; 'I' for Inactive)
REMARK    1  A    between atoms: C_1  and  C_2
REMARK    2  A    between atoms: C_3  and  N_4
REMARK    3  A    between atoms: C_5  and  C_7
REMARK    4  A    between atoms: C_7  and  O_8
REMARK    5  A    between atoms: O_8  and  C_9
REMARK    6  A    between atoms: N_23  and  C_24
REMARK    7  A    between atoms: N_30  and  C_31
REMARK                            x       y       z     vdW  Elec       q    Type
REMARK                         _______ _______ _______ _____ _____    ______ ____
ROOT
ATOM      1  N   UNL     1       0.337   9.397  19.281  0.00  0.00    +0.000 N 
ATOM      2  C   UNL     1       1.390   9.808  18.460  0.00  0.00    +0.000 C 
ATOM      3  O   UNL     1       1.708  10.984  18.286  0.00  0.00    +0.000 OA
ATOM      4  H   UNL     1      -0.176   8.652  18.803  0.00  0.00    +0.000 HD
ENDROOT
BRANCH   1   7
ATOM      5  C   UNL     1      -1.937  11.016  17.812  0.00  0.00    +0.000 C 
ATOM      6  C   UNL     1      -1.522  11.035  19.248  0.00  0.00    +0.000 A 
ATOM      7  C   UNL     1      -0.500  10.360  19.806  0.00  0.00    +0.000 A 
ATOM      8  C   UNL     1      -0.284  10.978  21.152  0.00  0.00    +0.000 A 
ATOM      9  O   UNL     1       0.625  10.651  21.897  0.00  0.00    +0.000 OA
ATOM     10  N   UNL     1      -1.302  11.918  21.308  0.00  0.00    +0.000 N 
ATOM     11  N   UNL     1      -2.130  11.918  20.157  0.00  0.00    +0.000 N 
ATOM     12  C   UNL     1      -2.706  13.195  19.721  0.00  0.00    +0.000 C 
BRANCH  10  13
ATOM     13  C   UNL     1      -1.625  12.645  22.466  0.00  0.00    +0.000 A 
ATOM     14  C   UNL     1      -0.819  13.712  22.869  0.00  0.00    +0.000 A 
ATOM     15  C   UNL     1      -1.248  14.563  23.893  0.00  0.00    +0.000 A 
ATOM     16  C   UNL     1      -2.451  14.317  24.555  0.00  0.00    +0.000 A 
ATOM     17  C   UNL     1      -3.222  13.212  24.208  0.00  0.00    +0.000 A 
ATOM     18  C   UNL     1      -2.813  12.382  23.164  0.00  0.00    +0.000 A 
ENDBRANCH  10  13
ENDBRANCH   1   7
BRANCH   2  19
ATOM     19  C   UNL     1       2.137   8.661  17.769  0.00  0.00    +0.000 C 
BRANCH  19  20
ATOM     20  O   UNL     1       3.112   8.039  18.600  0.00  0.00    +0.000 OA
BRANCH  20  21
ATOM     21  C   UNL     1       2.819   6.744  18.982  0.00  0.00    +0.000 A 
ATOM     22  N   UNL     1       2.013   6.559  20.040  0.00  0.00    +0.000 NA
ATOM     23  C   UNL     1       1.832   5.284  20.392  0.00  0.00    +0.000 A 
ATOM     24  N   UNL     1       2.369   4.213  19.793  0.00  0.00    +0.000 NA
ATOM     25  C   UNL     1       3.157   4.415  18.718  0.00  0.00    +0.000 A 
ATOM     26  C   UNL     1       3.739   3.344  18.011  0.00  0.00    +0.000 A 
ATOM     27 CL   UNL     1       3.468   1.707  18.514  0.00  0.00    +0.000 Cl
ATOM     28  C   UNL     1       4.565   3.536  16.897  0.00  0.00    +0.000 A 
ATOM     29  C   UNL     1       4.828   4.826  16.466  0.00  0.00    +0.000 A 
ATOM     30 CL   UNL     1       5.833   5.082  15.095  0.00  0.00    +0.000 Cl
ATOM     31  C   UNL     1       4.276   5.910  17.133  0.00  0.00    +0.000 A 
ATOM     32  C   UNL     1       3.432   5.712  18.262  0.00  0.00    +0.000 A 
ENDBRANCH  20  21
ENDBRANCH  19  20
ENDBRANCH   2  19
TORSDOF 5
ENDMDL
MODEL 8
REMARK VINA RESULT:      -7.8      8.126     11.216
REMARK  Name = 
REMARK  7 active torsions:
REMARK  status: ('A' for Active; 'I' for Inactive)
REMARK    1  A    between atoms: C_1  and  C_2
REMARK    2  A    between atoms: C_3  and  N_4
REMARK    3  A    between atoms: C_5  and  C_7
REMARK    4  A    between atoms: C_7  and  O_8
REMARK    5  A    between atoms: O_8  and  C_9
REMARK    6  A    between atoms: N_23  and  C_24
REMARK    7  A    between atoms: N_30  and  C_31
REMARK                            x       y       z     vdW  Elec       q    Type
REMARK                         _______ _______ _______ _____ _____    ______ ____
ROOT
ATOM      1  N   UNL     1       0.691   9.927  20.772  0.00  0.00    +0.000 N 
ATOM      2  C   UNL     1       0.483   8.615  21.205  0.00  0.00    +0.000 C 
ATOM      3  O   UNL     1      -0.602   8.182  21.592  0.00  0.00    +0.000 OA
ATOM      4  H   UNL     1       1.578  10.259  21.159  0.00  0.00    +0.000 HD
ENDROOT
BRANCH   1   7
ATOM      5  C   UNL     1      -0.820  11.574  18.547  0.00  0.00    +0.000 C 
ATOM      6  C   UNL     1      -1.050  11.522  20.023  0.00  0.00    +0.000 A 
ATOM      7  C   UNL     1      -0.329  10.840  20.933  0.00  0.00    +0.000 A 
ATOM      8  C   UNL     1      -0.728  11.388  22.268  0.00  0.00    +0.000 A 
ATOM      9  O   UNL     1      -0.205  11.041  23.313  0.00  0.00    +0.000 OA
ATOM     10  N   UNL     1      -1.757  12.295  22.017  0.00  0.00    +0.000 N 
ATOM     11  N   UNL     1      -2.023  12.341  20.625  0.00  0.00    +0.000 N 
ATOM     12  C   UNL     1      -2.416  13.626  20.039  0.00  0.00    +0.000 C 
BRANCH  10  13
ATOM     13  C   UNL     1      -2.569  12.949  22.958  0.00  0.00    +0.000 A 
ATOM     14  C   UNL     1      -2.065  14.031  23.685  0.00  0.00    +0.000 A 
ATOM     15  C   UNL     1      -2.926  14.810  24.464  0.00  0.00    +0.000 A 
ATOM     16  C   UNL     1      -4.278  14.479  24.565  0.00  0.00    +0.000 A 
ATOM     17  C   UNL     1      -4.770  13.359  23.903  0.00  0.00    +0.000 A 
ATOM     18  C   UNL     1      -3.921  12.600  23.098  0.00  0.00    +0.000 A 
ENDBRANCH  10  13
ENDBRANCH   1   7
BRANCH   2  19
ATOM     19  C   UNL     1       1.736   7.731  21.166  0.00  0.00    +0.000 C 
BRANCH  19  20
ATOM     20  O   UNL     1       1.989   7.165  19.885  0.00  0.00    +0.000 OA
BRANCH  20  21
ATOM     21  C   UNL     1       1.999   5.783  19.844  0.00  0.00    +0.000 A 
ATOM     22  N   UNL     1       1.268   5.114  20.750  0.00  0.00    +0.000 NA
ATOM     23  C   UNL     1       1.381   3.786  20.693  0.00  0.00    +0.000 A 
ATOM     24  N   UNL     1       2.136   3.092  19.833  0.00  0.00    +0.000 NA
ATOM     25  C   UNL     1       2.845   3.777  18.913  0.00  0.00    +0.000 A 
ATOM     26  C   UNL     1       3.642   3.126  17.952  0.00  0.00    +0.000 A 
ATOM     27 CL   UNL     1       3.751   1.395  17.924  0.00  0.00    +0.000 Cl
ATOM     28  C   UNL     1       4.390   3.822  16.994  0.00  0.00    +0.000 A 
ATOM     29  C   UNL     1       4.353   5.207  16.985  0.00  0.00    +0.000 A 
ATOM     30 CL   UNL     1       5.257   6.081  15.813  0.00  0.00    +0.000 Cl
ATOM     31  C   UNL     1       3.580   5.889  17.915  0.00  0.00    +0.000 A 
ATOM     32  C   UNL     1       2.817   5.178  18.883  0.00  0.00    +0.000 A 
ENDBRANCH  20  21
ENDBRANCH  19  20
ENDBRANCH   2  19
TORSDOF 5
ENDMDL
MODEL 9
REMARK VINA RESULT:      -7.8      3.133      9.948
REMARK  Name = 
REMARK  7 active torsions:
REMARK  status: ('A' for Active; 'I' for Inactive)
REMARK    1  A    between atoms: C_1  and  C_2
REMARK    2  A    between atoms: C_3  and  N_4
REMARK    3  A    between atoms: C_5  and  C_7
REMARK    4  A    between atoms: C_7  and  O_8
REMARK    5  A    between atoms: O_8  and  C_9
REMARK    6  A    between atoms: N_23  and  C_24
REMARK    7  A    between atoms: N_30  and  C_31
REMARK                            x       y       z     vdW  Elec       q    Type
REMARK                         _______ _______ _______ _____ _____    ______ ____
ROOT
ATOM      1  N   UNL     1       9.404   9.881  19.323  0.00  0.00    +0.000 N 
ATOM      2  C   UNL     1       8.508   9.605  18.287  0.00  0.00    +0.000 C 
ATOM      3  O   UNL     1       8.060  10.456  17.519  0.00  0.00    +0.000 OA
ATOM      4  H   UNL     1       9.117   9.353  20.150  0.00  0.00    +0.000 HD
ENDROOT
BRANCH   1   7
ATOM      5  C   UNL     1      11.611  11.729  18.033  0.00  0.00    +0.000 C 
ATOM      6  C   UNL     1      10.568  12.051  19.054  0.00  0.00    +0.000 A 
ATOM      7  C   UNL     1       9.687  11.200  19.611  0.00  0.00    +0.000 A 
ATOM      8  C   UNL     1       9.122  11.912  20.801  0.00  0.00    +0.000 A 
ATOM      9  O   UNL     1       8.342  11.390  21.580  0.00  0.00    +0.000 OA
ATOM     10  N   UNL     1       9.661  13.197  20.768  0.00  0.00    +0.000 N 
ATOM     11  N   UNL     1      10.514  13.328  19.642  0.00  0.00    +0.000 N 
ATOM     12  C   UNL     1      11.710  14.165  19.776  0.00  0.00    +0.000 C 
BRANCH  10  13
ATOM     13  C   UNL     1       9.314  14.291  21.578  0.00  0.00    +0.000 A 
ATOM     14  C   UNL     1       8.670  15.399  21.019  0.00  0.00    +0.000 A 
ATOM     15  C   UNL     1       8.139  16.389  21.851  0.00  0.00    +0.000 A 
ATOM     16  C   UNL     1       8.300  16.309  23.234  0.00  0.00    +0.000 A 
ATOM     17  C   UNL     1       9.005  15.246  23.791  0.00  0.00    +0.000 A 
ATOM     18  C   UNL     1       9.506  14.239  22.966  0.00  0.00    +0.000 A 
ENDBRANCH  10  13
ENDBRANCH   1   7
BRANCH   2  19
ATOM     19  C   UNL     1       8.108   8.129  18.175  0.00  0.00    +0.000 C 
BRANCH  19  20
ATOM     20  O   UNL     1       7.110   7.886  17.189  0.00  0.00    +0.000 OA
BRANCH  20  21
ATOM     21  C   UNL     1       6.661   6.581  17.116  0.00  0.00    +0.000 A 
ATOM     22  N   UNL     1       7.535   5.626  16.761  0.00  0.00    +0.000 NA
ATOM     23  C   UNL     1       7.012   4.403  16.644  0.00  0.00    +0.000 A 
ATOM     24  N   UNL     1       5.733   4.065  16.850  0.00  0.00    +0.000 NA
ATOM     25  C   UNL     1       4.874   5.032  17.230  0.00  0.00    +0.000 A 
ATOM     26  C   UNL     1       3.518   4.758  17.496  0.00  0.00    +0.000 A 
ATOM     27 CL   UNL     1       2.894   3.149  17.329  0.00  0.00    +0.000 Cl
ATOM     28  C   UNL     1       2.610   5.752  17.885  0.00  0.00    +0.000 A 
ATOM     29  C   UNL     1       3.054   7.058  18.014  0.00  0.00    +0.000 A 
ATOM     30 CL   UNL     1       1.957   8.290  18.498  0.00  0.00    +0.000 Cl
ATOM     31  C   UNL     1       4.382   7.371  17.762  0.00  0.00    +0.000 A 
ATOM     32  C   UNL     1       5.303   6.358  17.373  0.00  0.00    +0.000 A 
ENDBRANCH  20  21
ENDBRANCH  19  20
ENDBRANCH   2  19
TORSDOF 5
ENDMDL
