MODEL 1
REMARK VINA RESULT:      -7.9      0.000      0.000
REMARK  Name = 
REMARK  5 active torsions:
REMARK  status: ('A' for Active; 'I' for Inactive)
REMARK    1  A    between atoms: C_1  and  N_2
REMARK    2  A    between atoms: C_5  and  C_6
REMARK    3  A    between atoms: N_7  and  N_8
REMARK    4  A    between atoms: N_8  and  C_9
REMARK    5  A    between atoms: N_17  and  C_18
REMARK                            x       y       z     vdW  Elec       q    Type
REMARK                         _______ _______ _______ _____ _____    ______ ____
ROOT
ATOM      1  C   UNL     1       5.599   4.136  14.714  0.00  0.00    +0.000 C 
ATOM      2  N   UNL     1       5.956   4.591  16.049  0.00  0.00    +0.000 N 
ATOM      3  C   UNL     1       7.028   5.449  16.188  0.00  0.00    +0.000 C 
ATOM      4  O   UNL     1       7.737   5.798  15.238  0.00  0.00    +0.000 OA
ATOM      5  C   UNL     1       7.345   5.945  17.559  0.00  0.00    +0.000 C 
ATOM      6  C   UNL     1       6.599   5.319  18.689  0.00  0.00    +0.000 C 
ATOM      7  O   UNL     1       6.924   5.586  19.849  0.00  0.00    +0.000 OA
ATOM      8  N   UNL     1       5.580   4.443  18.376  0.00  0.00    +0.000 N 
ATOM      9  C   UNL     1       4.826   3.836  19.462  0.00  0.00    +0.000 C 
ATOM     10  C   UNL     1       5.221   4.059  17.094  0.00  0.00    +0.000 C 
ATOM     11  O   UNL     1       4.310   3.250  16.896  0.00  0.00    +0.000 OA
ENDROOT
BRANCH   5  12
ATOM     12  C   UNL     1       7.274   7.443  17.623  0.00  0.00    +0.000 C 
ATOM     13  N   UNL     1       8.286   8.124  18.053  0.00  0.00    +0.000 NA
BRANCH  13  14
ATOM     14  N   UNL     1       8.101   9.466  18.108  0.00  0.00    +0.000 N 
ATOM     15  H   UNL     1       7.445   9.946  17.497  0.00  0.00    +0.000 HD
BRANCH  14  16
ATOM     16  C   UNL     1       9.125  10.272  18.645  0.00  0.00    +0.000 A 
ATOM     17  C   UNL     1       9.248  10.494  20.023  0.00  0.00    +0.000 A 
ATOM     18  C   UNL     1      10.225  11.352  20.534  0.00  0.00    +0.000 A 
ATOM     19  C   UNL     1      11.088  12.018  19.667  0.00  0.00    +0.000 A 
ATOM     20  C   UNL     1      10.968  11.828  18.294  0.00  0.00    +0.000 A 
ATOM     21  C   UNL     1       9.989  10.966  17.786  0.00  0.00    +0.000 A 
ENDBRANCH  14  16
ENDBRANCH  13  14
ENDBRANCH   5  12
TORSDOF 3
ENDMDL
MODEL 2
REMARK VINA RESULT:      -7.6      0.180      1.090
REMARK  Name = 
REMARK  5 active torsions:
REMARK  status: ('A' for Active; 'I' for Inactive)
REMARK    1  A    between atoms: C_1  and  N_2
REMARK    2  A    between atoms: C_5  and  C_6
REMARK    3  A    between atoms: N_7  and  N_8
REMARK    4  A    between atoms: N_8  and  C_9
REMARK    5  A    between atoms: N_17  and  C_18
REMARK                            x       y       z     vdW  Elec       q    Type
REMARK                         _______ _______ _______ _____ _____    ______ ____
ROOT
ATOM      1  C   UNL     1       5.542   4.129  14.722  0.00  0.00    +0.000 C 
ATOM      2  N   UNL     1       5.916   4.654  16.026  0.00  0.00    +0.000 N 
ATOM      3  C   UNL     1       7.018   5.481  16.112  0.00  0.00    +0.000 C 
ATOM      4  O   UNL     1       7.736   5.744  15.143  0.00  0.00    +0.000 OA
ATOM      5  C   UNL     1       7.353   6.050  17.450  0.00  0.00    +0.000 C 
ATOM      6  C   UNL     1       6.588   5.522  18.616  0.00  0.00    +0.000 C 
ATOM      7  O   UNL     1       6.924   5.849  19.758  0.00  0.00    +0.000 OA
ATOM      8  N   UNL     1       5.538   4.664  18.358  0.00  0.00    +0.000 N 
ATOM      9  C   UNL     1       4.766   4.153  19.479  0.00  0.00    +0.000 C 
ATOM     10  C   UNL     1       5.165   4.213  17.102  0.00  0.00    +0.000 C 
ATOM     11  O   UNL     1       4.226   3.427  16.954  0.00  0.00    +0.000 OA
ENDROOT
BRANCH   5  12
ATOM     12  C   UNL     1       7.335   7.550  17.420  0.00  0.00    +0.000 C 
ATOM     13  N   UNL     1       8.204   8.225  18.101  0.00  0.00    +0.000 NA
BRANCH  13  14
ATOM     14  N   UNL     1       8.073   9.573  18.036  0.00  0.00    +0.000 N 
ATOM     15  H   UNL     1       7.467  10.024  17.354  0.00  0.00    +0.000 HD
BRANCH  14  16
ATOM     16  C   UNL     1       9.102  10.383  18.556  0.00  0.00    +0.000 A 
ATOM     17  C   UNL     1      10.013  11.049  17.726  0.00  0.00    +0.000 A 
ATOM     18  C   UNL     1      11.069  11.791  18.259  0.00  0.00    +0.000 A 
ATOM     19  C   UNL     1      11.242  11.863  19.639  0.00  0.00    +0.000 A 
ATOM     20  C   UNL     1      10.361  11.191  20.480  0.00  0.00    +0.000 A 
ATOM     21  C   UNL     1       9.302  10.450  19.943  0.00  0.00    +0.000 A 
ENDBRANCH  14  16
ENDBRANCH  13  14
ENDBRANCH   5  12
TORSDOF 3
ENDMDL
MODEL 3
REMARK VINA RESULT:      -7.4      3.598      6.127
REMARK  Name = 
REMARK  5 active torsions:
REMARK  status: ('A' for Active; 'I' for Inactive)
REMARK    1  A    between atoms: C_1  and  N_2
REMARK    2  A    between atoms: C_5  and  C_6
REMARK    3  A    between atoms: N_7  and  N_8
REMARK    4  A    between atoms: N_8  and  C_9
REMARK    5  A    between atoms: N_17  and  C_18
REMARK                            x       y       z     vdW  Elec       q    Type
REMARK                         _______ _______ _______ _____ _____    ______ ____
ROOT
ATOM      1  C   UNL     1       8.183   6.742  18.315  0.00  0.00    +0.000 C 
ATOM      2  N   UNL     1       7.092   5.827  18.018  0.00  0.00    +0.000 N 
ATOM      3  C   UNL     1       6.450   5.204  19.070  0.00  0.00    +0.000 C 
ATOM      4  O   UNL     1       6.800   5.341  20.246  0.00  0.00    +0.000 OA
ATOM      5  C   UNL     1       5.301   4.309  18.746  0.00  0.00    +0.000 C 
ATOM      6  C   UNL     1       5.068   4.009  17.304  0.00  0.00    +0.000 C 
ATOM      7  O   UNL     1       4.226   3.162  16.991  0.00  0.00    +0.000 OA
ATOM      8  N   UNL     1       5.831   4.689  16.376  0.00  0.00    +0.000 N 
ATOM      9  C   UNL     1       5.606   4.427  14.964  0.00  0.00    +0.000 C 
ATOM     10  C   UNL     1       6.833   5.597  16.678  0.00  0.00    +0.000 C 
ATOM     11  O   UNL     1       7.489   6.149  15.791  0.00  0.00    +0.000 OA
ENDROOT
BRANCH   5  12
ATOM     12  C   UNL     1       4.043   4.779  19.415  0.00  0.00    +0.000 C 
ATOM     13  N   UNL     1       3.744   6.038  19.429  0.00  0.00    +0.000 NA
BRANCH  13  14
ATOM     14  N   UNL     1       2.608   6.358  20.095  0.00  0.00    +0.000 N 
ATOM     15  H   UNL     1       1.992   5.647  20.484  0.00  0.00    +0.000 HD
BRANCH  14  16
ATOM     16  C   UNL     1       2.006   7.609  19.852  0.00  0.00    +0.000 A 
ATOM     17  C   UNL     1       1.266   8.279  20.835  0.00  0.00    +0.000 A 
ATOM     18  C   UNL     1       0.618   9.485  20.557  0.00  0.00    +0.000 A 
ATOM     19  C   UNL     1       0.686  10.032  19.278  0.00  0.00    +0.000 A 
ATOM     20  C   UNL     1       1.398   9.372  18.282  0.00  0.00    +0.000 A 
ATOM     21  C   UNL     1       2.049   8.164  18.565  0.00  0.00    +0.000 A 
ENDBRANCH  14  16
ENDBRANCH  13  14
ENDBRANCH   5  12
TORSDOF 3
ENDMDL
MODEL 4
REMARK VINA RESULT:      -7.3      3.593      6.251
REMARK  Name = 
REMARK  5 active torsions:
REMARK  status: ('A' for Active; 'I' for Inactive)
REMARK    1  A    between atoms: C_1  and  N_2
REMARK    2  A    between atoms: C_5  and  C_6
REMARK    3  A    between atoms: N_7  and  N_8
REMARK    4  A    between atoms: N_8  and  C_9
REMARK    5  A    between atoms: N_17  and  C_18
REMARK                            x       y       z     vdW  Elec       q    Type
REMARK                         _______ _______ _______ _____ _____    ______ ____
ROOT
ATOM      1  C   UNL     1       8.245   6.700  18.466  0.00  0.00    +0.000 C 
ATOM      2  N   UNL     1       7.131   5.831  18.121  0.00  0.00    +0.000 N 
ATOM      3  C   UNL     1       6.493   5.144  19.135  0.00  0.00    +0.000 C 
ATOM      4  O   UNL     1       6.865   5.187  20.312  0.00  0.00    +0.000 OA
ATOM      5  C   UNL     1       5.321   4.298  18.767  0.00  0.00    +0.000 C 
ATOM      6  C   UNL     1       5.058   4.110  17.311  0.00  0.00    +0.000 C 
ATOM      7  O   UNL     1       4.194   3.305  16.951  0.00  0.00    +0.000 OA
ATOM      8  N   UNL     1       5.820   4.842  16.423  0.00  0.00    +0.000 N 
ATOM      9  C   UNL     1       5.567   4.690  14.999  0.00  0.00    +0.000 C 
ATOM     10  C   UNL     1       6.845   5.706  16.773  0.00  0.00    +0.000 C 
ATOM     11  O   UNL     1       7.498   6.309  15.917  0.00  0.00    +0.000 OA
ENDROOT
BRANCH   5  12
ATOM     12  C   UNL     1       4.083   4.742  19.491  0.00  0.00    +0.000 C 
ATOM     13  N   UNL     1       3.709   5.979  19.442  0.00  0.00    +0.000 NA
BRANCH  13  14
ATOM     14  N   UNL     1       2.602   6.280  20.164  0.00  0.00    +0.000 N 
ATOM     15  H   UNL     1       2.041   5.562  20.617  0.00  0.00    +0.000 HD
BRANCH  14  16
ATOM     16  C   UNL     1       1.935   7.496  19.912  0.00  0.00    +0.000 A 
ATOM     17  C   UNL     1       2.061   8.172  18.691  0.00  0.00    +0.000 A 
ATOM     18  C   UNL     1       1.449   9.410  18.482  0.00  0.00    +0.000 A 
ATOM     19  C   UNL     1       0.714  10.004  19.505  0.00  0.00    +0.000 A 
ATOM     20  C   UNL     1       0.595   9.359  20.733  0.00  0.00    +0.000 A 
ATOM     21  C   UNL     1       1.207   8.117  20.938  0.00  0.00    +0.000 A 
ENDBRANCH  14  16
ENDBRANCH  13  14
ENDBRANCH   5  12
TORSDOF 3
ENDMDL
MODEL 5
REMARK VINA RESULT:      -6.9      4.542      6.434
REMARK  Name = 
REMARK  5 active torsions:
REMARK  status: ('A' for Active; 'I' for Inactive)
REMARK    1  A    between atoms: C_1  and  N_2
REMARK    2  A    between atoms: C_5  and  C_6
REMARK    3  A    between atoms: N_7  and  N_8
REMARK    4  A    between atoms: N_8  and  C_9
REMARK    5  A    between atoms: N_17  and  C_18
REMARK                            x       y       z     vdW  Elec       q    Type
REMARK                         _______ _______ _______ _____ _____    ______ ____
ROOT
ATOM      1  C   UNL     1       4.890   2.167  20.094  0.00  0.00    +0.000 C 
ATOM      2  N   UNL     1       4.374   3.331  19.390  0.00  0.00    +0.000 N 
ATOM      3  C   UNL     1       5.167   4.459  19.314  0.00  0.00    +0.000 C 
ATOM      4  O   UNL     1       6.266   4.546  19.870  0.00  0.00    +0.000 OA
ATOM      5  C   UNL     1       4.641   5.623  18.543  0.00  0.00    +0.000 C 
ATOM      6  C   UNL     1       3.223   5.542  18.087  0.00  0.00    +0.000 C 
ATOM      7  O   UNL     1       2.695   6.533  17.575  0.00  0.00    +0.000 OA
ATOM      8  N   UNL     1       2.555   4.350  18.280  0.00  0.00    +0.000 N 
ATOM      9  C   UNL     1       1.179   4.242  17.824  0.00  0.00    +0.000 C 
ATOM     10  C   UNL     1       3.080   3.233  18.910  0.00  0.00    +0.000 C 
ATOM     11  O   UNL     1       2.410   2.208  19.066  0.00  0.00    +0.000 OA
ENDROOT
BRANCH   5  12
ATOM     12  C   UNL     1       5.558   5.983  17.412  0.00  0.00    +0.000 C 
ATOM     13  N   UNL     1       6.039   5.059  16.645  0.00  0.00    +0.000 NA
BRANCH  13  14
ATOM     14  N   UNL     1       6.888   5.488  15.680  0.00  0.00    +0.000 N 
ATOM     15  H   UNL     1       7.297   6.419  15.697  0.00  0.00    +0.000 HD
BRANCH  14  16
ATOM     16  C   UNL     1       6.849   4.870  14.414  0.00  0.00    +0.000 A 
ATOM     17  C   UNL     1       7.676   5.283  13.361  0.00  0.00    +0.000 A 
ATOM     18  C   UNL     1       7.576   4.706  12.093  0.00  0.00    +0.000 A 
ATOM     19  C   UNL     1       6.628   3.715  11.853  0.00  0.00    +0.000 A 
ATOM     20  C   UNL     1       5.782   3.306  12.879  0.00  0.00    +0.000 A 
ATOM     21  C   UNL     1       5.887   3.884  14.150  0.00  0.00    +0.000 A 
ENDBRANCH  14  16
ENDBRANCH  13  14
ENDBRANCH   5  12
TORSDOF 3
ENDMDL
MODEL 6
REMARK VINA RESULT:      -6.8      4.367      6.270
REMARK  Name = 
REMARK  5 active torsions:
REMARK  status: ('A' for Active; 'I' for Inactive)
REMARK    1  A    between atoms: C_1  and  N_2
REMARK    2  A    between atoms: C_5  and  C_6
REMARK    3  A    between atoms: N_7  and  N_8
REMARK    4  A    between atoms: N_8  and  C_9
REMARK    5  A    between atoms: N_17  and  C_18
REMARK                            x       y       z     vdW  Elec       q    Type
REMARK                         _______ _______ _______ _____ _____    ______ ____
ROOT
ATOM      1  C   UNL     1       4.789   2.518  19.951  0.00  0.00    +0.000 C 
ATOM      2  N   UNL     1       4.427   3.725  19.225  0.00  0.00    +0.000 N 
ATOM      3  C   UNL     1       5.367   4.729  19.105  0.00  0.00    +0.000 C 
ATOM      4  O   UNL     1       6.479   4.675  19.638  0.00  0.00    +0.000 OA
ATOM      5  C   UNL     1       4.993   5.936  18.312  0.00  0.00    +0.000 C 
ATOM      6  C   UNL     1       3.569   6.043  17.882  0.00  0.00    +0.000 C 
ATOM      7  O   UNL     1       3.173   7.086  17.352  0.00  0.00    +0.000 OA
ATOM      8  N   UNL     1       2.745   4.961  18.119  0.00  0.00    +0.000 N 
ATOM      9  C   UNL     1       1.357   5.036  17.690  0.00  0.00    +0.000 C 
ATOM     10  C   UNL     1       3.122   3.798  18.770  0.00  0.00    +0.000 C 
ATOM     11  O   UNL     1       2.319   2.881  18.965  0.00  0.00    +0.000 OA
ENDROOT
BRANCH   5  12
ATOM     12  C   UNL     1       5.927   6.136  17.155  0.00  0.00    +0.000 C 
ATOM     13  N   UNL     1       6.510   5.120  16.605  0.00  0.00    +0.000 NA
BRANCH  13  14
ATOM     14  N   UNL     1       7.364   5.416  15.596  0.00  0.00    +0.000 N 
ATOM     15  H   UNL     1       7.986   6.220  15.633  0.00  0.00    +0.000 HD
BRANCH  14  16
ATOM     16  C   UNL     1       7.084   4.930  14.302  0.00  0.00    +0.000 A 
ATOM     17  C   UNL     1       6.117   3.942  14.075  0.00  0.00    +0.000 A 
ATOM     18  C   UNL     1       5.900   3.422  12.797  0.00  0.00    +0.000 A 
ATOM     19  C   UNL     1       6.665   3.872  11.724  0.00  0.00    +0.000 A 
ATOM     20  C   UNL     1       7.645   4.838  11.932  0.00  0.00    +0.000 A 
ATOM     21  C   UNL     1       7.858   5.359  13.214  0.00  0.00    +0.000 A 
ENDBRANCH  14  16
ENDBRANCH  13  14
ENDBRANCH   5  12
TORSDOF 3
ENDMDL
MODEL 7
REMARK VINA RESULT:      -6.8      5.501      7.100
REMARK  Name = 
REMARK  5 active torsions:
REMARK  status: ('A' for Active; 'I' for Inactive)
REMARK    1  A    between atoms: C_1  and  N_2
REMARK    2  A    between atoms: C_5  and  C_6
REMARK    3  A    between atoms: N_7  and  N_8
REMARK    4  A    between atoms: N_8  and  C_9
REMARK    5  A    between atoms: N_17  and  C_18
REMARK                            x       y       z     vdW  Elec       q    Type
REMARK                         _______ _______ _______ _____ _____    ______ ____
ROOT
ATOM      1  C   UNL     1       3.170   2.336  17.955  0.00  0.00    +0.000 C 
ATOM      2  N   UNL     1       3.271   3.787  17.916  0.00  0.00    +0.000 N 
ATOM      3  C   UNL     1       2.228   4.534  18.427  0.00  0.00    +0.000 C 
ATOM      4  O   UNL     1       1.187   4.027  18.858  0.00  0.00    +0.000 OA
ATOM      5  C   UNL     1       2.374   6.018  18.425  0.00  0.00    +0.000 C 
ATOM      6  C   UNL     1       3.547   6.577  17.694  0.00  0.00    +0.000 C 
ATOM      7  O   UNL     1       3.637   7.799  17.536  0.00  0.00    +0.000 OA
ATOM      8  N   UNL     1       4.481   5.686  17.203  0.00  0.00    +0.000 N 
ATOM      9  C   UNL     1       5.643   6.210  16.504  0.00  0.00    +0.000 C 
ATOM     10  C   UNL     1       4.392   4.307  17.293  0.00  0.00    +0.000 C 
ATOM     11  O   UNL     1       5.258   3.574  16.808  0.00  0.00    +0.000 OA
ENDROOT
BRANCH   5  12
ATOM     12  C   UNL     1       2.285   6.574  19.817  0.00  0.00    +0.000 C 
ATOM     13  N   UNL     1       1.679   7.696  20.032  0.00  0.00    +0.000 NA
BRANCH  13  14
ATOM     14  N   UNL     1       1.692   8.125  21.318  0.00  0.00    +0.000 N 
ATOM     15  H   UNL     1       1.980   7.523  22.085  0.00  0.00    +0.000 HD
BRANCH  14  16
ATOM     16  C   UNL     1       0.872   9.213  21.680  0.00  0.00    +0.000 A 
ATOM     17  C   UNL     1       0.194   9.254  22.905  0.00  0.00    +0.000 A 
ATOM     18  C   UNL     1      -0.669  10.306  23.220  0.00  0.00    +0.000 A 
ATOM     19  C   UNL     1      -0.882  11.330  22.300  0.00  0.00    +0.000 A 
ATOM     20  C   UNL     1      -0.234  11.297  21.068  0.00  0.00    +0.000 A 
ATOM     21  C   UNL     1       0.632  10.242  20.758  0.00  0.00    +0.000 A 
ENDBRANCH  14  16
ENDBRANCH  13  14
ENDBRANCH   5  12
TORSDOF 3
ENDMDL
MODEL 8
REMARK VINA RESULT:      -6.7      5.526      6.933
REMARK  Name = 
REMARK  5 active torsions:
REMARK  status: ('A' for Active; 'I' for Inactive)
REMARK    1  A    between atoms: C_1  and  N_2
REMARK    2  A    between atoms: C_5  and  C_6
REMARK    3  A    between atoms: N_7  and  N_8
REMARK    4  A    between atoms: N_8  and  C_9
REMARK    5  A    between atoms: N_17  and  C_18
REMARK                            x       y       z     vdW  Elec       q    Type
REMARK                         _______ _______ _______ _____ _____    ______ ____
ROOT
ATOM      1  C   UNL     1       4.895   4.105  16.566  0.00  0.00    +0.000 C 
ATOM      2  N   UNL     1       4.056   4.347  17.729  0.00  0.00    +0.000 N 
ATOM      3  C   UNL     1       4.122   5.582  18.343  0.00  0.00    +0.000 C 
ATOM      4  O   UNL     1       4.907   6.467  17.988  0.00  0.00    +0.000 OA
ATOM      5  C   UNL     1       3.216   5.827  19.503  0.00  0.00    +0.000 C 
ATOM      6  C   UNL     1       2.457   4.653  20.022  0.00  0.00    +0.000 C 
ATOM      7  O   UNL     1       1.808   4.767  21.066  0.00  0.00    +0.000 OA
ATOM      8  N   UNL     1       2.534   3.473  19.310  0.00  0.00    +0.000 N 
ATOM      9  C   UNL     1       1.786   2.322  19.788  0.00  0.00    +0.000 C 
ATOM     10  C   UNL     1       3.302   3.276  18.174  0.00  0.00    +0.000 C 
ATOM     11  O   UNL     1       3.337   2.181  17.604  0.00  0.00    +0.000 OA
ENDROOT
BRANCH   5  12
ATOM     12  C   UNL     1       2.307   6.992  19.242  0.00  0.00    +0.000 C 
ATOM     13  N   UNL     1       2.086   7.866  20.170  0.00  0.00    +0.000 NA
BRANCH  13  14
ATOM     14  N   UNL     1       1.219   8.854  19.843  0.00  0.00    +0.000 N 
ATOM     15  H   UNL     1       1.274   9.350  18.957  0.00  0.00    +0.000 HD
BRANCH  14  16
ATOM     16  C   UNL     1       0.548   9.540  20.876  0.00  0.00    +0.000 A 
ATOM     17  C   UNL     1       0.463   9.024  22.176  0.00  0.00    +0.000 A 
ATOM     18  C   UNL     1      -0.264   9.682  23.170  0.00  0.00    +0.000 A 
ATOM     19  C   UNL     1      -0.938  10.864  22.872  0.00  0.00    +0.000 A 
ATOM     20  C   UNL     1      -0.885  11.381  21.581  0.00  0.00    +0.000 A 
ATOM     21  C   UNL     1      -0.153  10.721  20.588  0.00  0.00    +0.000 A 
ENDBRANCH  14  16
ENDBRANCH  13  14
ENDBRANCH   5  12
TORSDOF 3
ENDMDL
MODEL 9
REMARK VINA RESULT:      -6.7      5.546      7.184
REMARK  Name = 
REMARK  5 active torsions:
REMARK  status: ('A' for Active; 'I' for Inactive)
REMARK    1  A    between atoms: C_1  and  N_2
REMARK    2  A    between atoms: C_5  and  C_6
REMARK    3  A    between atoms: N_7  and  N_8
REMARK    4  A    between atoms: N_8  and  C_9
REMARK    5  A    between atoms: N_17  and  C_18
REMARK                            x       y       z     vdW  Elec       q    Type
REMARK                         _______ _______ _______ _____ _____    ______ ____
ROOT
ATOM      1  C   UNL     1       3.419   2.469  17.990  0.00  0.00    +0.000 C 
ATOM      2  N   UNL     1       3.422   3.922  17.924  0.00  0.00    +0.000 N 
ATOM      3  C   UNL     1       2.351   4.608  18.459  0.00  0.00    +0.000 C 
ATOM      4  O   UNL     1       1.362   4.043  18.935  0.00  0.00    +0.000 OA
ATOM      5  C   UNL     1       2.398   6.099  18.428  0.00  0.00    +0.000 C 
ATOM      6  C   UNL     1       3.506   6.720  17.646  0.00  0.00    +0.000 C 
ATOM      7  O   UNL     1       3.508   7.942  17.466  0.00  0.00    +0.000 OA
ATOM      8  N   UNL     1       4.479   5.883  17.137  0.00  0.00    +0.000 N 
ATOM      9  C   UNL     1       5.579   6.470  16.389  0.00  0.00    +0.000 C 
ATOM     10  C   UNL     1       4.485   4.503  17.253  0.00  0.00    +0.000 C 
ATOM     11  O   UNL     1       5.381   3.819  16.750  0.00  0.00    +0.000 OA
ENDROOT
BRANCH   5  12
ATOM     12  C   UNL     1       2.320   6.673  19.813  0.00  0.00    +0.000 C 
ATOM     13  N   UNL     1       1.535   7.670  20.061  0.00  0.00    +0.000 NA
BRANCH  13  14
ATOM     14  N   UNL     1       1.572   8.136  21.333  0.00  0.00    +0.000 N 
ATOM     15  H   UNL     1       1.869   7.554  22.112  0.00  0.00    +0.000 HD
BRANCH  14  16
ATOM     16  C   UNL     1       0.765   9.239  21.677  0.00  0.00    +0.000 A 
ATOM     17  C   UNL     1       0.861  10.466  21.008  0.00  0.00    +0.000 A 
ATOM     18  C   UNL     1       0.104  11.570  21.407  0.00  0.00    +0.000 A 
ATOM     19  C   UNL     1      -0.753  11.467  22.500  0.00  0.00    +0.000 A 
ATOM     20  C   UNL     1      -0.847  10.263  23.192  0.00  0.00    +0.000 A 
ATOM     21  C   UNL     1      -0.088   9.159  22.788  0.00  0.00    +0.000 A 
ENDBRANCH  14  16
ENDBRANCH  13  14
ENDBRANCH   5  12
TORSDOF 3
ENDMDL
