MODEL 1
REMARK VINA RESULT:      -8.0      0.000      0.000
REMARK  Name = 
REMARK  10 active torsions:
REMARK  status: ('A' for Active; 'I' for Inactive)
REMARK    1  A    between atoms: C_1  and  C_2
REMARK    2  A    between atoms: C_2  and  O_3
REMARK    3  A    between atoms: O_3  and  C_4
REMARK    4  A    between atoms: C_4  and  C_6
REMARK    5  A    between atoms: C_11  and  O_12
REMARK    6  A    between atoms: O_12  and  C_13
REMARK    7  A    between atoms: C_16  and  S_17
REMARK    8  A    between atoms: S_17  and  C_18
REMARK    9  A    between atoms: C_23  and  O_24
REMARK   10  A    between atoms: O_24  and  C_25
REMARK                            x       y       z     vdW  Elec       q    Type
REMARK                         _______ _______ _______ _____ _____    ______ ____
ROOT
ATOM      1  C   UNL     1       6.812   5.124  16.612  0.00  0.00    +0.000 A 
ATOM      2  N   UNL     1       7.581   5.478  15.519  0.00  0.00    +0.000 N 
ATOM      3  C   UNL     1       7.113   4.887  14.373  0.00  0.00    +0.000 A 
ATOM      4  C   UNL     1       7.646   4.882  13.078  0.00  0.00    +0.000 A 
ATOM      5  C   UNL     1       6.966   4.150  12.094  0.00  0.00    +0.000 A 
ATOM      6  C   UNL     1       5.781   3.482  12.387  0.00  0.00    +0.000 A 
ATOM      7  C   UNL     1       5.252   3.530  13.684  0.00  0.00    +0.000 A 
ATOM      8  C   UNL     1       5.938   4.215  14.709  0.00  0.00    +0.000 A 
ATOM      9  C   UNL     1       5.757   4.371  16.120  0.00  0.00    +0.000 A 
ATOM     10  H   UNL     1       8.415   6.044  15.581  0.00  0.00    +0.000 HD
ENDROOT
BRANCH   1  11
ATOM     11  C   UNL     1       7.120   5.533  17.960  0.00  0.00    +0.000 C 
ATOM     12  O   UNL     1       7.343   4.795  18.911  0.00  0.00    +0.000 OA
BRANCH  11  13
ATOM     13  O   UNL     1       7.004   6.888  18.053  0.00  0.00    +0.000 OA
BRANCH  13  15
ATOM     14  C   UNL     1       8.106   8.989  17.897  0.00  0.00    +0.000 C 
ATOM     15  C   UNL     1       8.223   7.561  18.402  0.00  0.00    +0.000 C 
ENDBRANCH  13  15
ENDBRANCH  11  13
ENDBRANCH   1  11
BRANCH   6  16
ATOM     16  O   UNL     1       5.039   2.737  11.506  0.00  0.00    +0.000 OA
ATOM     17  C   UNL     1       3.789   3.272  11.097  0.00  0.00    +0.000 C 
ENDBRANCH   6  16
BRANCH   9  18
ATOM     18  S   UNL     1       4.520   3.550  17.058  0.00  0.00    +0.000 S 
BRANCH  18  19
ATOM     19  C   UNL     1       3.669   4.824  17.991  0.00  0.00    +0.000 A 
ATOM     20  C   UNL     1       3.604   6.108  17.405  0.00  0.00    +0.000 A 
ATOM     21  C   UNL     1       3.005   7.196  18.042  0.00  0.00    +0.000 A 
ATOM     22  C   UNL     1       2.455   7.030  19.300  0.00  0.00    +0.000 A 
ATOM     23  C   UNL     1       2.535   5.783  19.914  0.00  0.00    +0.000 A 
ATOM     24  C   UNL     1       3.149   4.675  19.292  0.00  0.00    +0.000 A 
BRANCH  24  25
ATOM     25  O   UNL     1       3.126   3.602  20.140  0.00  0.00    +0.000 OA
ATOM     26  C   UNL     1       2.247   2.512  19.947  0.00  0.00    +0.000 C 
ENDBRANCH  24  25
ENDBRANCH  18  19
ENDBRANCH   9  18
TORSDOF 7
ENDMDL
MODEL 2
REMARK VINA RESULT:      -7.6      2.684      5.397
REMARK  Name = 
REMARK  10 active torsions:
REMARK  status: ('A' for Active; 'I' for Inactive)
REMARK    1  A    between atoms: C_1  and  C_2
REMARK    2  A    between atoms: C_2  and  O_3
REMARK    3  A    between atoms: O_3  and  C_4
REMARK    4  A    between atoms: C_4  and  C_6
REMARK    5  A    between atoms: C_11  and  O_12
REMARK    6  A    between atoms: O_12  and  C_13
REMARK    7  A    between atoms: C_16  and  S_17
REMARK    8  A    between atoms: S_17  and  C_18
REMARK    9  A    between atoms: C_23  and  O_24
REMARK   10  A    between atoms: O_24  and  C_25
REMARK                            x       y       z     vdW  Elec       q    Type
REMARK                         _______ _______ _______ _____ _____    ______ ____
ROOT
ATOM      1  C   UNL     1       2.888   3.781  17.942  0.00  0.00    +0.000 A 
ATOM      2  N   UNL     1       3.567   3.401  16.799  0.00  0.00    +0.000 N 
ATOM      3  C   UNL     1       4.673   4.188  16.596  0.00  0.00    +0.000 A 
ATOM      4  C   UNL     1       5.569   4.225  15.521  0.00  0.00    +0.000 A 
ATOM      5  C   UNL     1       6.602   5.173  15.564  0.00  0.00    +0.000 A 
ATOM      6  C   UNL     1       6.753   6.022  16.656  0.00  0.00    +0.000 A 
ATOM      7  C   UNL     1       5.860   5.941  17.734  0.00  0.00    +0.000 A 
ATOM      8  C   UNL     1       4.780   5.034  17.699  0.00  0.00    +0.000 A 
ATOM      9  C   UNL     1       3.653   4.769  18.540  0.00  0.00    +0.000 A 
ATOM     10  H   UNL     1       3.244   2.683  16.168  0.00  0.00    +0.000 HD
ENDROOT
BRANCH   1  11
ATOM     11  C   UNL     1       1.644   3.182  18.356  0.00  0.00    +0.000 C 
ATOM     12  O   UNL     1       0.529   3.455  17.931  0.00  0.00    +0.000 OA
BRANCH  11  13
ATOM     13  O   UNL     1       1.881   2.336  19.398  0.00  0.00    +0.000 OA
BRANCH  13  15
ATOM     14  C   UNL     1       2.139   2.631  21.743  0.00  0.00    +0.000 C 
ATOM     15  C   UNL     1       1.148   2.651  20.592  0.00  0.00    +0.000 C 
ENDBRANCH  13  15
ENDBRANCH  11  13
ENDBRANCH   1  11
BRANCH   6  16
ATOM     16  O   UNL     1       7.721   6.983  16.799  0.00  0.00    +0.000 OA
ATOM     17  C   UNL     1       7.997   7.434  18.116  0.00  0.00    +0.000 C 
ENDBRANCH   6  16
BRANCH   9  18
ATOM     18  S   UNL     1       3.234   5.711  19.962  0.00  0.00    +0.000 S 
BRANCH  18  19
ATOM     19  C   UNL     1       2.422   7.193  19.361  0.00  0.00    +0.000 A 
ATOM     20  C   UNL     1       2.644   7.538  18.009  0.00  0.00    +0.000 A 
ATOM     21  C   UNL     1       2.103   8.687  17.428  0.00  0.00    +0.000 A 
ATOM     22  C   UNL     1       1.325   9.535  18.193  0.00  0.00    +0.000 A 
ATOM     23  C   UNL     1       1.119   9.236  19.537  0.00  0.00    +0.000 A 
ATOM     24  C   UNL     1       1.668   8.088  20.146  0.00  0.00    +0.000 A 
BRANCH  24  25
ATOM     25  O   UNL     1       1.346   8.076  21.475  0.00  0.00    +0.000 OA
ATOM     26  C   UNL     1       0.284   8.850  21.997  0.00  0.00    +0.000 C 
ENDBRANCH  24  25
ENDBRANCH  18  19
ENDBRANCH   9  18
TORSDOF 7
ENDMDL
MODEL 3
REMARK VINA RESULT:      -7.1      2.782      7.138
REMARK  Name = 
REMARK  10 active torsions:
REMARK  status: ('A' for Active; 'I' for Inactive)
REMARK    1  A    between atoms: C_1  and  C_2
REMARK    2  A    between atoms: C_2  and  O_3
REMARK    3  A    between atoms: O_3  and  C_4
REMARK    4  A    between atoms: C_4  and  C_6
REMARK    5  A    between atoms: C_11  and  O_12
REMARK    6  A    between atoms: O_12  and  C_13
REMARK    7  A    between atoms: C_16  and  S_17
REMARK    8  A    between atoms: S_17  and  C_18
REMARK    9  A    between atoms: C_23  and  O_24
REMARK   10  A    between atoms: O_24  and  C_25
REMARK                            x       y       z     vdW  Elec       q    Type
REMARK                         _______ _______ _______ _____ _____    ______ ____
ROOT
ATOM      1  C   UNL     1       2.490   4.686  20.209  0.00  0.00    +0.000 A 
ATOM      2  N   UNL     1       1.809   5.635  20.949  0.00  0.00    +0.000 N 
ATOM      3  C   UNL     1       1.771   6.840  20.294  0.00  0.00    +0.000 A 
ATOM      4  C   UNL     1       1.289   8.083  20.719  0.00  0.00    +0.000 A 
ATOM      5  C   UNL     1       1.417   9.169  19.841  0.00  0.00    +0.000 A 
ATOM      6  C   UNL     1       1.971   9.007  18.575  0.00  0.00    +0.000 A 
ATOM      7  C   UNL     1       2.416   7.743  18.162  0.00  0.00    +0.000 A 
ATOM      8  C   UNL     1       2.349   6.641  19.040  0.00  0.00    +0.000 A 
ATOM      9  C   UNL     1       2.797   5.283  18.997  0.00  0.00    +0.000 A 
ATOM     10  H   UNL     1       1.450   5.469  21.878  0.00  0.00    +0.000 HD
ENDROOT
BRANCH   1  11
ATOM     11  C   UNL     1       2.754   3.352  20.689  0.00  0.00    +0.000 C 
ATOM     12  O   UNL     1       3.853   2.823  20.797  0.00  0.00    +0.000 OA
BRANCH  11  13
ATOM     13  O   UNL     1       1.570   2.708  20.892  0.00  0.00    +0.000 OA
BRANCH  13  15
ATOM     14  C   UNL     1       1.358   1.813  18.700  0.00  0.00    +0.000 C 
ATOM     15  C   UNL     1       0.702   2.693  19.749  0.00  0.00    +0.000 C 
ENDBRANCH  13  15
ENDBRANCH  11  13
ENDBRANCH   1  11
BRANCH   6  16
ATOM     16  O   UNL     1       2.146   9.996  17.641  0.00  0.00    +0.000 OA
ATOM     17  C   UNL     1       2.121  11.337  18.105  0.00  0.00    +0.000 C 
ENDBRANCH   6  16
BRANCH   9  18
ATOM     18  S   UNL     1       3.760   4.597  17.698  0.00  0.00    +0.000 S 
BRANCH  18  19
ATOM     19  C   UNL     1       5.407   5.284  17.879  0.00  0.00    +0.000 A 
ATOM     20  C   UNL     1       5.985   5.225  19.167  0.00  0.00    +0.000 A 
ATOM     21  C   UNL     1       7.244   5.757  19.451  0.00  0.00    +0.000 A 
ATOM     22  C   UNL     1       7.964   6.377  18.447  0.00  0.00    +0.000 A 
ATOM     23  C   UNL     1       7.403   6.479  17.176  0.00  0.00    +0.000 A 
ATOM     24  C   UNL     1       6.126   5.960  16.873  0.00  0.00    +0.000 A 
BRANCH  24  25
ATOM     25  O   UNL     1       5.813   6.245  15.572  0.00  0.00    +0.000 OA
ATOM     26  C   UNL     1       5.805   5.251  14.567  0.00  0.00    +0.000 C 
ENDBRANCH  24  25
ENDBRANCH  18  19
ENDBRANCH   9  18
TORSDOF 7
ENDMDL
MODEL 4
REMARK VINA RESULT:      -6.9      3.529      5.998
REMARK  Name = 
REMARK  10 active torsions:
REMARK  status: ('A' for Active; 'I' for Inactive)
REMARK    1  A    between atoms: C_1  and  C_2
REMARK    2  A    between atoms: C_2  and  O_3
REMARK    3  A    between atoms: O_3  and  C_4
REMARK    4  A    between atoms: C_4  and  C_6
REMARK    5  A    between atoms: C_11  and  O_12
REMARK    6  A    between atoms: O_12  and  C_13
REMARK    7  A    between atoms: C_16  and  S_17
REMARK    8  A    between atoms: S_17  and  C_18
REMARK    9  A    between atoms: C_23  and  O_24
REMARK   10  A    between atoms: O_24  and  C_25
REMARK                            x       y       z     vdW  Elec       q    Type
REMARK                         _______ _______ _______ _____ _____    ______ ____
ROOT
ATOM      1  C   UNL     1       3.021   4.960  18.048  0.00  0.00    +0.000 A 
ATOM      2  N   UNL     1       4.169   4.204  18.203  0.00  0.00    +0.000 N 
ATOM      3  C   UNL     1       5.292   4.956  17.965  0.00  0.00    +0.000 A 
ATOM      4  C   UNL     1       6.637   4.573  17.903  0.00  0.00    +0.000 A 
ATOM      5  C   UNL     1       7.584   5.562  17.598  0.00  0.00    +0.000 A 
ATOM      6  C   UNL     1       7.203   6.886  17.402  0.00  0.00    +0.000 A 
ATOM      7  C   UNL     1       5.852   7.247  17.502  0.00  0.00    +0.000 A 
ATOM      8  C   UNL     1       4.868   6.268  17.756  0.00  0.00    +0.000 A 
ATOM      9  C   UNL     1       3.438   6.259  17.811  0.00  0.00    +0.000 A 
ATOM     10  H   UNL     1       4.166   3.214  18.399  0.00  0.00    +0.000 HD
ENDROOT
BRANCH   1  11
ATOM     11  C   UNL     1       1.693   4.409  18.156  0.00  0.00    +0.000 C 
ATOM     12  O   UNL     1       0.917   4.195  17.234  0.00  0.00    +0.000 OA
BRANCH  11  13
ATOM     13  O   UNL     1       1.374   4.271  19.474  0.00  0.00    +0.000 OA
BRANCH  13  15
ATOM     14  C   UNL     1       1.641   2.914  21.408  0.00  0.00    +0.000 C 
ATOM     15  C   UNL     1       1.308   2.910  19.926  0.00  0.00    +0.000 C 
ENDBRANCH  13  15
ENDBRANCH  11  13
ENDBRANCH   1  11
BRANCH   6  16
ATOM     16  O   UNL     1       8.042   7.928  17.097  0.00  0.00    +0.000 OA
ATOM     17  C   UNL     1       8.070   9.022  18.000  0.00  0.00    +0.000 C 
ENDBRANCH   6  16
BRANCH   9  18
ATOM     18  S   UNL     1       2.423   7.639  17.422  0.00  0.00    +0.000 S 
BRANCH  18  19
ATOM     19  C   UNL     1       1.801   8.261  18.985  0.00  0.00    +0.000 A 
ATOM     20  C   UNL     1       2.106   7.506  20.139  0.00  0.00    +0.000 A 
ATOM     21  C   UNL     1       1.651   7.859  21.411  0.00  0.00    +0.000 A 
ATOM     22  C   UNL     1       0.862   8.984  21.563  0.00  0.00    +0.000 A 
ATOM     23  C   UNL     1       0.519   9.727  20.437  0.00  0.00    +0.000 A 
ATOM     24  C   UNL     1       0.958   9.379  19.142  0.00  0.00    +0.000 A 
BRANCH  24  25
ATOM     25  O   UNL     1       0.431  10.251  18.230  0.00  0.00    +0.000 OA
ATOM     26  C   UNL     1      -0.938  10.231  17.875  0.00  0.00    +0.000 C 
ENDBRANCH  24  25
ENDBRANCH  18  19
ENDBRANCH   9  18
TORSDOF 7
ENDMDL
MODEL 5
REMARK VINA RESULT:      -6.8      2.792      7.075
REMARK  Name = 
REMARK  10 active torsions:
REMARK  status: ('A' for Active; 'I' for Inactive)
REMARK    1  A    between atoms: C_1  and  C_2
REMARK    2  A    between atoms: C_2  and  O_3
REMARK    3  A    between atoms: O_3  and  C_4
REMARK    4  A    between atoms: C_4  and  C_6
REMARK    5  A    between atoms: C_11  and  O_12
REMARK    6  A    between atoms: O_12  and  C_13
REMARK    7  A    between atoms: C_16  and  S_17
REMARK    8  A    between atoms: S_17  and  C_18
REMARK    9  A    between atoms: C_23  and  O_24
REMARK   10  A    between atoms: O_24  and  C_25
REMARK                            x       y       z     vdW  Elec       q    Type
REMARK                         _______ _______ _______ _____ _____    ______ ____
ROOT
ATOM      1  C   UNL     1       2.211   5.059  20.231  0.00  0.00    +0.000 A 
ATOM      2  N   UNL     1       1.617   6.066  20.969  0.00  0.00    +0.000 N 
ATOM      3  C   UNL     1       1.635   7.256  20.287  0.00  0.00    +0.000 A 
ATOM      4  C   UNL     1       1.247   8.537  20.698  0.00  0.00    +0.000 A 
ATOM      5  C   UNL     1       1.415   9.593  19.791  0.00  0.00    +0.000 A 
ATOM      6  C   UNL     1       1.915   9.368  18.511  0.00  0.00    +0.000 A 
ATOM      7  C   UNL     1       2.265   8.070  18.115  0.00  0.00    +0.000 A 
ATOM      8  C   UNL     1       2.157   6.994  19.021  0.00  0.00    +0.000 A 
ATOM      9  C   UNL     1       2.515   5.608  18.996  0.00  0.00    +0.000 A 
ATOM     10  H   UNL     1       1.280   5.944  21.913  0.00  0.00    +0.000 HD
ENDROOT
BRANCH   1  11
ATOM     11  C   UNL     1       2.406   3.722  20.733  0.00  0.00    +0.000 C 
ATOM     12  O   UNL     1       2.492   3.392  21.909  0.00  0.00    +0.000 OA
BRANCH  11  13
ATOM     13  O   UNL     1       2.607   2.875  19.684  0.00  0.00    +0.000 OA
BRANCH  13  15
ATOM     14  C   UNL     1       3.872   1.221  18.536  0.00  0.00    +0.000 C 
ATOM     15  C   UNL     1       3.810   2.098  19.775  0.00  0.00    +0.000 C 
ENDBRANCH  13  15
ENDBRANCH  11  13
ENDBRANCH   1  11
BRANCH   6  16
ATOM     16  O   UNL     1       2.122  10.324  17.549  0.00  0.00    +0.000 OA
ATOM     17  C   UNL     1       2.346  11.653  17.994  0.00  0.00    +0.000 C 
ENDBRANCH   6  16
BRANCH   9  18
ATOM     18  S   UNL     1       3.389   4.834  17.684  0.00  0.00    +0.000 S 
BRANCH  18  19
ATOM     19  C   UNL     1       5.109   5.302  17.881  0.00  0.00    +0.000 A 
ATOM     20  C   UNL     1       5.634   5.264  19.192  0.00  0.00    +0.000 A 
ATOM     21  C   UNL     1       6.946   5.640  19.488  0.00  0.00    +0.000 A 
ATOM     22  C   UNL     1       7.774   6.078  18.472  0.00  0.00    +0.000 A 
ATOM     23  C   UNL     1       7.271   6.158  17.176  0.00  0.00    +0.000 A 
ATOM     24  C   UNL     1       5.945   5.796  16.860  0.00  0.00    +0.000 A 
BRANCH  24  25
ATOM     25  O   UNL     1       5.713   6.021  15.530  0.00  0.00    +0.000 OA
ATOM     26  C   UNL     1       6.113   5.102  14.532  0.00  0.00    +0.000 C 
ENDBRANCH  24  25
ENDBRANCH  18  19
ENDBRANCH   9  18
TORSDOF 7
ENDMDL
MODEL 6
REMARK VINA RESULT:      -6.8      2.205      5.806
REMARK  Name = 
REMARK  10 active torsions:
REMARK  status: ('A' for Active; 'I' for Inactive)
REMARK    1  A    between atoms: C_1  and  C_2
REMARK    2  A    between atoms: C_2  and  O_3
REMARK    3  A    between atoms: O_3  and  C_4
REMARK    4  A    between atoms: C_4  and  C_6
REMARK    5  A    between atoms: C_11  and  O_12
REMARK    6  A    between atoms: O_12  and  C_13
REMARK    7  A    between atoms: C_16  and  S_17
REMARK    8  A    between atoms: S_17  and  C_18
REMARK    9  A    between atoms: C_23  and  O_24
REMARK   10  A    between atoms: O_24  and  C_25
REMARK                            x       y       z     vdW  Elec       q    Type
REMARK                         _______ _______ _______ _____ _____    ______ ____
ROOT
ATOM      1  C   UNL     1       5.196   6.057  16.525  0.00  0.00    +0.000 A 
ATOM      2  N   UNL     1       4.594   7.296  16.404  0.00  0.00    +0.000 N 
ATOM      3  C   UNL     1       3.706   7.517  17.427  0.00  0.00    +0.000 A 
ATOM      4  C   UNL     1       2.812   8.574  17.633  0.00  0.00    +0.000 A 
ATOM      5  C   UNL     1       1.982   8.519  18.762  0.00  0.00    +0.000 A 
ATOM      6  C   UNL     1       2.073   7.465  19.668  0.00  0.00    +0.000 A 
ATOM      7  C   UNL     1       2.999   6.436  19.454  0.00  0.00    +0.000 A 
ATOM      8  C   UNL     1       3.812   6.435  18.301  0.00  0.00    +0.000 A 
ATOM      9  C   UNL     1       4.753   5.524  17.724  0.00  0.00    +0.000 A 
ATOM     10  H   UNL     1       4.747   7.920  15.625  0.00  0.00    +0.000 HD
ENDROOT
BRANCH   1  11
ATOM     11  C   UNL     1       6.113   5.527  15.547  0.00  0.00    +0.000 C 
ATOM     12  O   UNL     1       7.310   5.767  15.468  0.00  0.00    +0.000 OA
BRANCH  11  13
ATOM     13  O   UNL     1       5.415   4.799  14.629  0.00  0.00    +0.000 OA
BRANCH  13  15
ATOM     14  C   UNL     1       5.668   3.541  12.628  0.00  0.00    +0.000 C 
ATOM     15  C   UNL     1       6.151   3.708  14.058  0.00  0.00    +0.000 C 
ENDBRANCH  13  15
ENDBRANCH  11  13
ENDBRANCH   1  11
BRANCH   6  16
ATOM     16  O   UNL     1       1.311   7.309  20.798  0.00  0.00    +0.000 OA
ATOM     17  C   UNL     1       0.705   8.474  21.337  0.00  0.00    +0.000 C 
ENDBRANCH   6  16
BRANCH   9  18
ATOM     18  S   UNL     1       5.090   3.919  18.353  0.00  0.00    +0.000 S 
BRANCH  18  19
ATOM     19  C   UNL     1       3.507   3.223  18.829  0.00  0.00    +0.000 A 
ATOM     20  C   UNL     1       2.432   3.414  17.933  0.00  0.00    +0.000 A 
ATOM     21  C   UNL     1       1.140   2.957  18.201  0.00  0.00    +0.000 A 
ATOM     22  C   UNL     1       0.884   2.297  19.388  0.00  0.00    +0.000 A 
ATOM     23  C   UNL     1       1.919   2.125  20.304  0.00  0.00    +0.000 A 
ATOM     24  C   UNL     1       3.227   2.592  20.057  0.00  0.00    +0.000 A 
BRANCH  24  25
ATOM     25  O   UNL     1       4.019   2.330  21.142  0.00  0.00    +0.000 OA
ATOM     26  C   UNL     1       5.067   1.382  21.095  0.00  0.00    +0.000 C 
ENDBRANCH  24  25
ENDBRANCH  18  19
ENDBRANCH   9  18
TORSDOF 7
ENDMDL
MODEL 7
REMARK VINA RESULT:      -6.7      2.172      5.843
REMARK  Name = 
REMARK  10 active torsions:
REMARK  status: ('A' for Active; 'I' for Inactive)
REMARK    1  A    between atoms: C_1  and  C_2
REMARK    2  A    between atoms: C_2  and  O_3
REMARK    3  A    between atoms: O_3  and  C_4
REMARK    4  A    between atoms: C_4  and  C_6
REMARK    5  A    between atoms: C_11  and  O_12
REMARK    6  A    between atoms: O_12  and  C_13
REMARK    7  A    between atoms: C_16  and  S_17
REMARK    8  A    between atoms: S_17  and  C_18
REMARK    9  A    between atoms: C_23  and  O_24
REMARK   10  A    between atoms: O_24  and  C_25
REMARK                            x       y       z     vdW  Elec       q    Type
REMARK                         _______ _______ _______ _____ _____    ______ ____
ROOT
ATOM      1  C   UNL     1       5.304   5.482  16.921  0.00  0.00    +0.000 A 
ATOM      2  N   UNL     1       4.783   6.718  16.586  0.00  0.00    +0.000 N 
ATOM      3  C   UNL     1       3.857   7.133  17.510  0.00  0.00    +0.000 A 
ATOM      4  C   UNL     1       3.018   8.253  17.505  0.00  0.00    +0.000 A 
ATOM      5  C   UNL     1       2.129   8.407  18.579  0.00  0.00    +0.000 A 
ATOM      6  C   UNL     1       2.110   7.497  19.632  0.00  0.00    +0.000 A 
ATOM      7  C   UNL     1       2.984   6.402  19.627  0.00  0.00    +0.000 A 
ATOM      8  C   UNL     1       3.855   6.189  18.537  0.00  0.00    +0.000 A 
ATOM      9  C   UNL     1       4.769   5.156  18.157  0.00  0.00    +0.000 A 
ATOM     10  H   UNL     1       5.012   7.210  15.734  0.00  0.00    +0.000 HD
ENDROOT
BRANCH   1  11
ATOM     11  C   UNL     1       6.238   4.766  16.088  0.00  0.00    +0.000 C 
ATOM     12  O   UNL     1       7.452   4.715  16.235  0.00  0.00    +0.000 OA
BRANCH  11  13
ATOM     13  O   UNL     1       5.573   4.245  15.019  0.00  0.00    +0.000 OA
BRANCH  13  15
ATOM     14  C   UNL     1       5.481   3.572  12.740  0.00  0.00    +0.000 C 
ATOM     15  C   UNL     1       6.399   4.004  13.870  0.00  0.00    +0.000 C 
ENDBRANCH  13  15
ENDBRANCH  11  13
ENDBRANCH   1  11
BRANCH   6  16
ATOM     16  O   UNL     1       1.283   7.550  20.726  0.00  0.00    +0.000 OA
ATOM     17  C   UNL     1       0.854   8.834  21.152  0.00  0.00    +0.000 C 
ENDBRANCH   6  16
BRANCH   9  18
ATOM     18  S   UNL     1       4.979   3.648  19.032  0.00  0.00    +0.000 S 
BRANCH  18  19
ATOM     19  C   UNL     1       3.377   3.247  19.733  0.00  0.00    +0.000 A 
ATOM     20  C   UNL     1       3.262   3.310  21.140  0.00  0.00    +0.000 A 
ATOM     21  C   UNL     1       2.083   2.985  21.813  0.00  0.00    +0.000 A 
ATOM     22  C   UNL     1       0.977   2.576  21.091  0.00  0.00    +0.000 A 
ATOM     23  C   UNL     1       1.074   2.472  19.706  0.00  0.00    +0.000 A 
ATOM     24  C   UNL     1       2.261   2.783  19.009  0.00  0.00    +0.000 A 
BRANCH  24  25
ATOM     25  O   UNL     1       2.083   2.544  17.674  0.00  0.00    +0.000 OA
ATOM     26  C   UNL     1       2.123   3.582  16.714  0.00  0.00    +0.000 C 
ENDBRANCH  24  25
ENDBRANCH  18  19
ENDBRANCH   9  18
TORSDOF 7
ENDMDL
MODEL 8
REMARK VINA RESULT:      -6.7      3.564      5.714
REMARK  Name = 
REMARK  10 active torsions:
REMARK  status: ('A' for Active; 'I' for Inactive)
REMARK    1  A    between atoms: C_1  and  C_2
REMARK    2  A    between atoms: C_2  and  O_3
REMARK    3  A    between atoms: O_3  and  C_4
REMARK    4  A    between atoms: C_4  and  C_6
REMARK    5  A    between atoms: C_11  and  O_12
REMARK    6  A    between atoms: O_12  and  C_13
REMARK    7  A    between atoms: C_16  and  S_17
REMARK    8  A    between atoms: S_17  and  C_18
REMARK    9  A    between atoms: C_23  and  O_24
REMARK   10  A    between atoms: O_24  and  C_25
REMARK                            x       y       z     vdW  Elec       q    Type
REMARK                         _______ _______ _______ _____ _____    ______ ____
ROOT
ATOM      1  C   UNL     1       4.256   3.611  18.435  0.00  0.00    +0.000 A 
ATOM      2  N   UNL     1       5.622   3.498  18.615  0.00  0.00    +0.000 N 
ATOM      3  C   UNL     1       6.258   4.680  18.328  0.00  0.00    +0.000 A 
ATOM      4  C   UNL     1       7.624   4.977  18.271  0.00  0.00    +0.000 A 
ATOM      5  C   UNL     1       7.995   6.280  17.907  0.00  0.00    +0.000 A 
ATOM      6  C   UNL     1       7.034   7.254  17.649  0.00  0.00    +0.000 A 
ATOM      7  C   UNL     1       5.672   6.937  17.745  0.00  0.00    +0.000 A 
ATOM      8  C   UNL     1       5.266   5.622  18.058  0.00  0.00    +0.000 A 
ATOM      9  C   UNL     1       4.010   4.939  18.129  0.00  0.00    +0.000 A 
ATOM     10  H   UNL     1       6.085   2.635  18.861  0.00  0.00    +0.000 HD
ENDROOT
BRANCH   1  11
ATOM     11  C   UNL     1       3.346   2.502  18.585  0.00  0.00    +0.000 C 
ATOM     12  O   UNL     1       2.782   1.897  17.682  0.00  0.00    +0.000 OA
BRANCH  11  13
ATOM     13  O   UNL     1       3.103   2.300  19.911  0.00  0.00    +0.000 OA
BRANCH  13  15
ATOM     14  C   UNL     1       1.750   2.892  21.775  0.00  0.00    +0.000 C 
ATOM     15  C   UNL     1       1.740   2.521  20.302  0.00  0.00    +0.000 C 
ENDBRANCH  13  15
ENDBRANCH  11  13
ENDBRANCH   1  11
BRANCH   6  16
ATOM     16  O   UNL     1       7.283   8.553  17.283  0.00  0.00    +0.000 OA
ATOM     17  C   UNL     1       8.256   9.262  18.035  0.00  0.00    +0.000 C 
ENDBRANCH   6  16
BRANCH   9  18
ATOM     18  S   UNL     1       2.469   5.652  17.682  0.00  0.00    +0.000 S 
BRANCH  18  19
ATOM     19  C   UNL     1       2.050   6.805  18.990  0.00  0.00    +0.000 A 
ATOM     20  C   UNL     1       1.681   6.249  20.236  0.00  0.00    +0.000 A 
ATOM     21  C   UNL     1       1.296   7.033  21.325  0.00  0.00    +0.000 A 
ATOM     22  C   UNL     1       1.259   8.409  21.194  0.00  0.00    +0.000 A 
ATOM     23  C   UNL     1       1.584   8.980  19.966  0.00  0.00    +0.000 A 
ATOM     24  C   UNL     1       1.963   8.204  18.851  0.00  0.00    +0.000 A 
BRANCH  24  25
ATOM     25  O   UNL     1       2.176   9.021  17.775  0.00  0.00    +0.000 OA
ATOM     26  C   UNL     1       1.979  10.420  17.844  0.00  0.00    +0.000 C 
ENDBRANCH  24  25
ENDBRANCH  18  19
ENDBRANCH   9  18
TORSDOF 7
ENDMDL
MODEL 9
REMARK VINA RESULT:      -6.7      1.152      1.536
REMARK  Name = 
REMARK  10 active torsions:
REMARK  status: ('A' for Active; 'I' for Inactive)
REMARK    1  A    between atoms: C_1  and  C_2
REMARK    2  A    between atoms: C_2  and  O_3
REMARK    3  A    between atoms: O_3  and  C_4
REMARK    4  A    between atoms: C_4  and  C_6
REMARK    5  A    between atoms: C_11  and  O_12
REMARK    6  A    between atoms: O_12  and  C_13
REMARK    7  A    between atoms: C_16  and  S_17
REMARK    8  A    between atoms: S_17  and  C_18
REMARK    9  A    between atoms: C_23  and  O_24
REMARK   10  A    between atoms: O_24  and  C_25
REMARK                            x       y       z     vdW  Elec       q    Type
REMARK                         _______ _______ _______ _____ _____    ______ ____
ROOT
ATOM      1  C   UNL     1       7.045   5.409  15.978  0.00  0.00    +0.000 A 
ATOM      2  N   UNL     1       7.739   5.591  14.797  0.00  0.00    +0.000 N 
ATOM      3  C   UNL     1       7.170   4.875  13.773  0.00  0.00    +0.000 A 
ATOM      4  C   UNL     1       7.604   4.686  12.456  0.00  0.00    +0.000 A 
ATOM      5  C   UNL     1       6.832   3.859  11.626  0.00  0.00    +0.000 A 
ATOM      6  C   UNL     1       5.654   3.279  12.087  0.00  0.00    +0.000 A 
ATOM      7  C   UNL     1       5.226   3.512  13.401  0.00  0.00    +0.000 A 
ATOM      8  C   UNL     1       6.007   4.296  14.277  0.00  0.00    +0.000 A 
ATOM      9  C   UNL     1       5.937   4.639  15.665  0.00  0.00    +0.000 A 
ATOM     10  H   UNL     1       8.591   6.129  14.724  0.00  0.00    +0.000 HD
ENDROOT
BRANCH   1  11
ATOM     11  C   UNL     1       7.465   5.975  17.236  0.00  0.00    +0.000 C 
ATOM     12  O   UNL     1       7.573   7.166  17.496  0.00  0.00    +0.000 OA
BRANCH  11  13
ATOM     13  O   UNL     1       7.849   4.970  18.072  0.00  0.00    +0.000 OA
BRANCH  13  15
ATOM     14  C   UNL     1       6.211   5.241  19.774  0.00  0.00    +0.000 C 
ATOM     15  C   UNL     1       7.698   5.273  19.467  0.00  0.00    +0.000 C 
ENDBRANCH  13  15
ENDBRANCH  11  13
ENDBRANCH   1  11
BRANCH   6  16
ATOM     16  O   UNL     1       4.828   2.455  11.366  0.00  0.00    +0.000 OA
ATOM     17  C   UNL     1       3.631   3.022  10.856  0.00  0.00    +0.000 C 
ENDBRANCH   6  16
BRANCH   9  18
ATOM     18  S   UNL     1       4.751   3.990  16.787  0.00  0.00    +0.000 S 
BRANCH  18  19
ATOM     19  C   UNL     1       3.802   5.392  17.380  0.00  0.00    +0.000 A 
ATOM     20  C   UNL     1       4.199   6.669  16.925  0.00  0.00    +0.000 A 
ATOM     21  C   UNL     1       3.569   7.844  17.340  0.00  0.00    +0.000 A 
ATOM     22  C   UNL     1       2.520   7.774  18.237  0.00  0.00    +0.000 A 
ATOM     23  C   UNL     1       2.131   6.530  18.727  0.00  0.00    +0.000 A 
ATOM     24  C   UNL     1       2.764   5.333  18.330  0.00  0.00    +0.000 A 
BRANCH  24  25
ATOM     25  O   UNL     1       2.211   4.278  19.003  0.00  0.00    +0.000 OA
ATOM     26  C   UNL     1       1.389   3.325  18.359  0.00  0.00    +0.000 C 
ENDBRANCH  24  25
ENDBRANCH  18  19
ENDBRANCH   9  18
TORSDOF 7
ENDMDL
