MODEL 1
REMARK VINA RESULT:      -6.5      0.000      0.000
REMARK  Name = 
REMARK  3 active torsions:
REMARK  status: ('A' for Active; 'I' for Inactive)
REMARK    1  A    between atoms: C_1  and  C_2
REMARK    2  A    between atoms: N_11  and  C_12
REMARK    3  A    between atoms: N_17  and  C_18
REMARK                            x       y       z     vdW  Elec       q    Type
REMARK                         _______ _______ _______ _____ _____    ______ ____
ROOT
ATOM      1  C   UNL     1       0.828  13.624  19.590  0.00  0.00    +0.000 C 
ATOM      2  C   UNL     1       1.067  12.141  19.627  0.00  0.00    +0.000 A 
ATOM      3  N   UNL     1       1.492  11.530  18.560  0.00  0.00    +0.000 NA
ATOM      4  C   UNL     1       1.699  10.145  18.661  0.00  0.00    +0.000 A 
ATOM      5  C   UNL     1       2.180   9.405  17.604  0.00  0.00    +0.000 A 
ATOM      6  N   UNL     1       2.395   8.068  17.640  0.00  0.00    +0.000 NA
ATOM      7  C   UNL     1       2.161   7.450  18.803  0.00  0.00    +0.000 A 
ATOM      8  N   UNL     1       2.309   6.093  18.928  0.00  0.00    +0.000 N 
ATOM      9  C   UNL     1       2.466   5.257  17.748  0.00  0.00    +0.000 C 
ATOM     10  C   UNL     1       2.024   3.818  18.124  0.00  0.00    +0.000 C 
ATOM     11  N   UNL     1       2.760   3.271  19.293  0.00  0.00    +0.000 NA
ATOM     12  C   UNL     1       2.240   1.952  19.653  0.00  0.00    +0.000 C 
ATOM     13  C   UNL     1       2.633   4.198  20.443  0.00  0.00    +0.000 C 
ATOM     14  C   UNL     1       3.066   5.638  20.097  0.00  0.00    +0.000 C 
ATOM     15  N   UNL     1       1.702   8.087  19.885  0.00  0.00    +0.000 NA
ATOM     16  C   UNL     1       1.457   9.407  19.801  0.00  0.00    +0.000 A 
ATOM     17  N   UNL     1       0.945  10.060  20.954  0.00  0.00    +0.000 N 
ATOM     18  C   UNL     1       0.786  11.437  20.951  0.00  0.00    +0.000 A 
ATOM     19  O   UNL     1       0.446  12.131  21.905  0.00  0.00    +0.000 OA
ENDROOT
BRANCH  17  20
ATOM     20  C   UNL     1       0.710   9.241  22.126  0.00  0.00    +0.000 C 
ATOM     21  C   UNL     1      -0.074   9.634  23.348  0.00  0.00    +0.000 C 
ATOM     22  C   UNL     1      -0.676   8.681  22.364  0.00  0.00    +0.000 C 
ENDBRANCH  17  20
TORSDOF 1
ENDMDL
MODEL 2
REMARK VINA RESULT:      -5.9      2.720      6.555
REMARK  Name = 
REMARK  3 active torsions:
REMARK  status: ('A' for Active; 'I' for Inactive)
REMARK    1  A    between atoms: C_1  and  C_2
REMARK    2  A    between atoms: N_11  and  C_12
REMARK    3  A    between atoms: N_17  and  C_18
REMARK                            x       y       z     vdW  Elec       q    Type
REMARK                         _______ _______ _______ _____ _____    ______ ____
ROOT
ATOM      1  C   UNL     1       5.209   3.720  16.691  0.00  0.00    +0.000 C 
ATOM      2  C   UNL     1       4.359   4.666  17.492  0.00  0.00    +0.000 A 
ATOM      3  N   UNL     1       4.188   5.887  17.078  0.00  0.00    +0.000 NA
ATOM      4  C   UNL     1       3.379   6.719  17.869  0.00  0.00    +0.000 A 
ATOM      5  C   UNL     1       3.104   8.018  17.506  0.00  0.00    +0.000 A 
ATOM      6  N   UNL     1       2.336   8.869  18.230  0.00  0.00    +0.000 NA
ATOM      7  C   UNL     1       1.783   8.382  19.346  0.00  0.00    +0.000 A 
ATOM      8  N   UNL     1       1.025   9.175  20.167  0.00  0.00    +0.000 N 
ATOM      9  C   UNL     1       1.017  10.619  19.994  0.00  0.00    +0.000 C 
ATOM     10  C   UNL     1       0.596  11.257  21.344  0.00  0.00    +0.000 C 
ATOM     11  N   UNL     1      -0.710  10.752  21.843  0.00  0.00    +0.000 NA
ATOM     12  C   UNL     1      -1.011  11.320  23.156  0.00  0.00    +0.000 C 
ATOM     13  C   UNL     1      -0.675   9.272  21.925  0.00  0.00    +0.000 C 
ATOM     14  C   UNL     1      -0.258   8.611  20.595  0.00  0.00    +0.000 C 
ATOM     15  N   UNL     1       1.986   7.131  19.771  0.00  0.00    +0.000 NA
ATOM     16  C   UNL     1       2.789   6.327  19.053  0.00  0.00    +0.000 A 
ATOM     17  N   UNL     1       3.014   5.011  19.536  0.00  0.00    +0.000 N 
ATOM     18  C   UNL     1       3.739   4.110  18.771  0.00  0.00    +0.000 A 
ATOM     19  O   UNL     1       3.924   2.924  19.026  0.00  0.00    +0.000 OA
ENDROOT
BRANCH  17  20
ATOM     20  C   UNL     1       2.370   4.647  20.782  0.00  0.00    +0.000 C 
ATOM     21  C   UNL     1       1.212   3.701  20.946  0.00  0.00    +0.000 C 
ATOM     22  C   UNL     1       2.585   3.257  21.341  0.00  0.00    +0.000 C 
ENDBRANCH  17  20
TORSDOF 1
ENDMDL
MODEL 3
REMARK VINA RESULT:      -5.7      1.951      4.046
REMARK  Name = 
REMARK  3 active torsions:
REMARK  status: ('A' for Active; 'I' for Inactive)
REMARK    1  A    between atoms: C_1  and  C_2
REMARK    2  A    between atoms: N_11  and  C_12
REMARK    3  A    between atoms: N_17  and  C_18
REMARK                            x       y       z     vdW  Elec       q    Type
REMARK                         _______ _______ _______ _____ _____    ______ ____
ROOT
ATOM      1  C   UNL     1      -1.704  13.763  23.588  0.00  0.00    +0.000 C 
ATOM      2  C   UNL     1      -0.945  12.787  22.733  0.00  0.00    +0.000 A 
ATOM      3  N   UNL     1      -1.024  11.513  22.984  0.00  0.00    +0.000 NA
ATOM      4  C   UNL     1      -0.295  10.655  22.146  0.00  0.00    +0.000 A 
ATOM      5  C   UNL     1      -0.332   9.287  22.302  0.00  0.00    +0.000 A 
ATOM      6  N   UNL     1       0.352   8.409  21.529  0.00  0.00    +0.000 NA
ATOM      7  C   UNL     1       1.073   8.923  20.526  0.00  0.00    +0.000 A 
ATOM      8  N   UNL     1       1.833   8.120  19.715  0.00  0.00    +0.000 N 
ATOM      9  C   UNL     1       2.086   6.735  20.078  0.00  0.00    +0.000 C 
ATOM     10  C   UNL     1       3.381   6.284  19.353  0.00  0.00    +0.000 C 
ATOM     11  N   UNL     1       3.317   6.468  17.879  0.00  0.00    +0.000 NA
ATOM     12  C   UNL     1       4.593   6.110  17.263  0.00  0.00    +0.000 C 
ATOM     13  C   UNL     1       2.978   7.877  17.566  0.00  0.00    +0.000 C 
ATOM     14  C   UNL     1       1.693   8.352  18.274  0.00  0.00    +0.000 C 
ATOM     15  N   UNL     1       1.162  10.236  20.293  0.00  0.00    +0.000 NA
ATOM     16  C   UNL     1       0.505  11.082  21.106  0.00  0.00    +0.000 A 
ATOM     17  N   UNL     1       0.634  12.474  20.859  0.00  0.00    +0.000 N 
ATOM     18  C   UNL     1      -0.114  13.378  21.597  0.00  0.00    +0.000 A 
ATOM     19  O   UNL     1      -0.168  14.591  21.422  0.00  0.00    +0.000 OA
ENDROOT
BRANCH  17  20
ATOM     20  C   UNL     1       1.483  12.871  19.754  0.00  0.00    +0.000 C 
ATOM     21  C   UNL     1       1.786  14.280  19.320  0.00  0.00    +0.000 C 
ATOM     22  C   UNL     1       2.830  13.495  20.050  0.00  0.00    +0.000 C 
ENDBRANCH  17  20
TORSDOF 1
ENDMDL
MODEL 4
REMARK VINA RESULT:      -5.7      5.611      9.037
REMARK  Name = 
REMARK  3 active torsions:
REMARK  status: ('A' for Active; 'I' for Inactive)
REMARK    1  A    between atoms: C_1  and  C_2
REMARK    2  A    between atoms: N_11  and  C_12
REMARK    3  A    between atoms: N_17  and  C_18
REMARK                            x       y       z     vdW  Elec       q    Type
REMARK                         _______ _______ _______ _____ _____    ______ ____
ROOT
ATOM      1  C   UNL     1      -3.754  10.010  14.876  0.00  0.00    +0.000 C 
ATOM      2  C   UNL     1      -3.697  10.652  16.234  0.00  0.00    +0.000 A 
ATOM      3  N   UNL     1      -4.697  11.372  16.649  0.00  0.00    +0.000 NA
ATOM      4  C   UNL     1      -4.583  11.940  17.928  0.00  0.00    +0.000 A 
ATOM      5  C   UNL     1      -5.596  12.692  18.479  0.00  0.00    +0.000 A 
ATOM      6  N   UNL     1      -5.543  13.268  19.704  0.00  0.00    +0.000 NA
ATOM      7  C   UNL     1      -4.441  13.045  20.429  0.00  0.00    +0.000 A 
ATOM      8  N   UNL     1      -4.275  13.618  21.663  0.00  0.00    +0.000 N 
ATOM      9  C   UNL     1      -5.158  14.686  22.104  0.00  0.00    +0.000 C 
ATOM     10  C   UNL     1      -4.410  15.501  23.192  0.00  0.00    +0.000 C 
ATOM     11  N   UNL     1      -3.943  14.664  24.327  0.00  0.00    +0.000 NA
ATOM     12  C   UNL     1      -3.172  15.469  25.273  0.00  0.00    +0.000 C 
ATOM     13  C   UNL     1      -3.114  13.546  23.816  0.00  0.00    +0.000 C 
ATOM     14  C   UNL     1      -3.833  12.718  22.732  0.00  0.00    +0.000 C 
ATOM     15  N   UNL     1      -3.411  12.320  19.980  0.00  0.00    +0.000 NA
ATOM     16  C   UNL     1      -3.479  11.799  18.743  0.00  0.00    +0.000 A 
ATOM     17  N   UNL     1      -2.363  11.056  18.275  0.00  0.00    +0.000 N 
ATOM     18  C   UNL     1      -2.433  10.404  17.053  0.00  0.00    +0.000 A 
ATOM     19  O   UNL     1      -1.583   9.656  16.579  0.00  0.00    +0.000 OA
ENDROOT
BRANCH  17  20
ATOM     20  C   UNL     1      -1.230  10.935  19.169  0.00  0.00    +0.000 C 
ATOM     21  C   UNL     1       0.123  10.371  18.826  0.00  0.00    +0.000 C 
ATOM     22  C   UNL     1      -0.041  11.851  18.975  0.00  0.00    +0.000 C 
ENDBRANCH  17  20
TORSDOF 1
ENDMDL
MODEL 5
REMARK VINA RESULT:      -5.6      6.068      9.480
REMARK  Name = 
REMARK  3 active torsions:
REMARK  status: ('A' for Active; 'I' for Inactive)
REMARK    1  A    between atoms: C_1  and  C_2
REMARK    2  A    between atoms: N_11  and  C_12
REMARK    3  A    between atoms: N_17  and  C_18
REMARK                            x       y       z     vdW  Elec       q    Type
REMARK                         _______ _______ _______ _____ _____    ______ ____
ROOT
ATOM      1  C   UNL     1      -3.068   9.669  15.037  0.00  0.00    +0.000 C 
ATOM      2  C   UNL     1      -3.345  10.453  16.289  0.00  0.00    +0.000 A 
ATOM      3  N   UNL     1      -4.487  11.059  16.431  0.00  0.00    +0.000 NA
ATOM      4  C   UNL     1      -4.684  11.771  17.624  0.00  0.00    +0.000 A 
ATOM      5  C   UNL     1      -5.868  12.421  17.893  0.00  0.00    +0.000 A 
ATOM      6  N   UNL     1      -6.114  13.127  19.023  0.00  0.00    +0.000 NA
ATOM      7  C   UNL     1      -5.146  13.146  19.947  0.00  0.00    +0.000 A 
ATOM      8  N   UNL     1      -5.284  13.867  21.104  0.00  0.00    +0.000 N 
ATOM      9  C   UNL     1      -6.361  14.834  21.246  0.00  0.00    +0.000 C 
ATOM     10  C   UNL     1      -5.936  15.862  22.327  0.00  0.00    +0.000 C 
ATOM     11  N   UNL     1      -5.585  15.229  23.625  0.00  0.00    +0.000 NA
ATOM     12  C   UNL     1      -5.109  16.236  24.574  0.00  0.00    +0.000 C 
ATOM     13  C   UNL     1      -4.542  14.197  23.413  0.00  0.00    +0.000 C 
ATOM     14  C   UNL     1      -4.939  13.161  22.341  0.00  0.00    +0.000 C 
ATOM     15  N   UNL     1      -3.969  12.537  19.777  0.00  0.00    +0.000 NA
ATOM     16  C   UNL     1      -3.740  11.882  18.625  0.00  0.00    +0.000 A 
ATOM     17  N   UNL     1      -2.473  11.265  18.453  0.00  0.00    +0.000 N 
ATOM     18  C   UNL     1      -2.233  10.483  17.334  0.00  0.00    +0.000 A 
ATOM     19  O   UNL     1      -1.224   9.822  17.113  0.00  0.00    +0.000 OA
ENDROOT
BRANCH  17  20
ATOM     20  C   UNL     1      -1.518  11.409  19.533  0.00  0.00    +0.000 C 
ATOM     21  C   UNL     1      -0.083  10.958  19.524  0.00  0.00    +0.000 C 
ATOM     22  C   UNL     1      -0.396  12.415  19.392  0.00  0.00    +0.000 C 
ENDBRANCH  17  20
TORSDOF 1
ENDMDL
MODEL 6
REMARK VINA RESULT:      -5.5      4.078      8.260
REMARK  Name = 
REMARK  3 active torsions:
REMARK  status: ('A' for Active; 'I' for Inactive)
REMARK    1  A    between atoms: C_1  and  C_2
REMARK    2  A    between atoms: N_11  and  C_12
REMARK    3  A    between atoms: N_17  and  C_18
REMARK                            x       y       z     vdW  Elec       q    Type
REMARK                         _______ _______ _______ _____ _____    ______ ____
ROOT
ATOM      1  C   UNL     1       2.173   7.805  19.593  0.00  0.00    +0.000 C 
ATOM      2  C   UNL     1       1.162   8.825  20.036  0.00  0.00    +0.000 A 
ATOM      3  N   UNL     1       0.916   8.980  21.304  0.00  0.00    +0.000 NA
ATOM      4  C   UNL     1      -0.036   9.952  21.652  0.00  0.00    +0.000 A 
ATOM      5  C   UNL     1      -0.348  10.222  22.965  0.00  0.00    +0.000 A 
ATOM      6  N   UNL     1      -1.259  11.143  23.362  0.00  0.00    +0.000 NA
ATOM      7  C   UNL     1      -1.854  11.858  22.400  0.00  0.00    +0.000 A 
ATOM      8  N   UNL     1      -2.820  12.783  22.698  0.00  0.00    +0.000 N 
ATOM      9  C   UNL     1      -3.411  12.829  24.026  0.00  0.00    +0.000 C 
ATOM     10  C   UNL     1      -4.801  13.508  23.903  0.00  0.00    +0.000 C 
ATOM     11  N   UNL     1      -4.737  14.854  23.277  0.00  0.00    +0.000 NA
ATOM     12  C   UNL     1      -6.082  15.404  23.108  0.00  0.00    +0.000 C 
ATOM     13  C   UNL     1      -4.056  14.764  21.964  0.00  0.00    +0.000 C 
ATOM     14  C   UNL     1      -2.670  14.092  22.057  0.00  0.00    +0.000 C 
ATOM     15  N   UNL     1      -1.608  11.671  21.100  0.00  0.00    +0.000 NA
ATOM     16  C   UNL     1      -0.730  10.719  20.739  0.00  0.00    +0.000 A 
ATOM     17  N   UNL     1      -0.503  10.518  19.351  0.00  0.00    +0.000 N 
ATOM     18  C   UNL     1       0.476   9.630  18.935  0.00  0.00    +0.000 A 
ATOM     19  O   UNL     1       0.836   9.435  17.778  0.00  0.00    +0.000 OA
ENDROOT
BRANCH  17  20
ATOM     20  C   UNL     1      -1.254  11.350  18.434  0.00  0.00    +0.000 C 
ATOM     21  C   UNL     1      -1.792  10.939  17.090  0.00  0.00    +0.000 C 
ATOM     22  C   UNL     1      -2.732  11.084  18.244  0.00  0.00    +0.000 C 
ENDBRANCH  17  20
TORSDOF 1
ENDMDL
MODEL 7
REMARK VINA RESULT:      -5.4      0.976      1.065
REMARK  Name = 
REMARK  3 active torsions:
REMARK  status: ('A' for Active; 'I' for Inactive)
REMARK    1  A    between atoms: C_1  and  C_2
REMARK    2  A    between atoms: N_11  and  C_12
REMARK    3  A    between atoms: N_17  and  C_18
REMARK                            x       y       z     vdW  Elec       q    Type
REMARK                         _______ _______ _______ _____ _____    ______ ____
ROOT
ATOM      1  C   UNL     1       0.187  14.291  19.313  0.00  0.00    +0.000 C 
ATOM      2  C   UNL     1       0.441  12.813  19.411  0.00  0.00    +0.000 A 
ATOM      3  N   UNL     1       1.235  12.237  18.557  0.00  0.00    +0.000 NA
ATOM      4  C   UNL     1       1.434  10.855  18.706  0.00  0.00    +0.000 A 
ATOM      5  C   UNL     1       2.280  10.152  17.878  0.00  0.00    +0.000 A 
ATOM      6  N   UNL     1       2.508   8.819  17.970  0.00  0.00    +0.000 NA
ATOM      7  C   UNL     1       1.894   8.168  18.964  0.00  0.00    +0.000 A 
ATOM      8  N   UNL     1       2.028   6.813  19.115  0.00  0.00    +0.000 N 
ATOM      9  C   UNL     1       2.619   6.009  18.056  0.00  0.00    +0.000 C 
ATOM     10  C   UNL     1       2.115   4.552  18.229  0.00  0.00    +0.000 C 
ATOM     11  N   UNL     1       2.403   3.993  19.576  0.00  0.00    +0.000 NA
ATOM     12  C   UNL     1       1.829   2.655  19.709  0.00  0.00    +0.000 C 
ATOM     13  C   UNL     1       1.849   4.890  20.618  0.00  0.00    +0.000 C 
ATOM     14  C   UNL     1       2.334   6.347  20.470  0.00  0.00    +0.000 C 
ATOM     15  N   UNL     1       1.063   8.770  19.821  0.00  0.00    +0.000 NA
ATOM     16  C   UNL     1       0.824  10.085  19.675  0.00  0.00    +0.000 A 
ATOM     17  N   UNL     1      -0.083  10.699  20.579  0.00  0.00    +0.000 N 
ATOM     18  C   UNL     1      -0.271  12.072  20.540  0.00  0.00    +0.000 A 
ATOM     19  O   UNL     1      -0.948  12.734  21.320  0.00  0.00    +0.000 OA
ENDROOT
BRANCH  17  20
ATOM     20  C   UNL     1      -0.694   9.848  21.579  0.00  0.00    +0.000 C 
ATOM     21  C   UNL     1      -0.001   8.796  22.402  0.00  0.00    +0.000 C 
ATOM     22  C   UNL     1      -0.386  10.093  23.040  0.00  0.00    +0.000 C 
ENDBRANCH  17  20
TORSDOF 1
ENDMDL
MODEL 8
REMARK VINA RESULT:      -5.4      8.880     10.713
REMARK  Name = 
REMARK  3 active torsions:
REMARK  status: ('A' for Active; 'I' for Inactive)
REMARK    1  A    between atoms: C_1  and  C_2
REMARK    2  A    between atoms: N_11  and  C_12
REMARK    3  A    between atoms: N_17  and  C_18
REMARK                            x       y       z     vdW  Elec       q    Type
REMARK                         _______ _______ _______ _____ _____    ______ ____
ROOT
ATOM      1  C   UNL     1      11.882  15.690  17.146  0.00  0.00    +0.000 C 
ATOM      2  C   UNL     1      11.108  15.123  18.303  0.00  0.00    +0.000 A 
ATOM      3  N   UNL     1      11.022  15.797  19.413  0.00  0.00    +0.000 NA
ATOM      4  C   UNL     1      10.282  15.214  20.453  0.00  0.00    +0.000 A 
ATOM      5  C   UNL     1      10.098  15.855  21.659  0.00  0.00    +0.000 A 
ATOM      6  N   UNL     1       9.399  15.342  22.700  0.00  0.00    +0.000 NA
ATOM      7  C   UNL     1       8.819  14.151  22.510  0.00  0.00    +0.000 A 
ATOM      8  N   UNL     1       8.126  13.531  23.517  0.00  0.00    +0.000 N 
ATOM      9  C   UNL     1       8.222  14.016  24.884  0.00  0.00    +0.000 C 
ATOM     10  C   UNL     1       7.857  12.843  25.831  0.00  0.00    +0.000 C 
ATOM     11  N   UNL     1       6.521  12.257  25.542  0.00  0.00    +0.000 NA
ATOM     12  C   UNL     1       6.271  11.103  26.405  0.00  0.00    +0.000 C 
ATOM     13  C   UNL     1       6.450  11.853  24.118  0.00  0.00    +0.000 C 
ATOM     14  C   UNL     1       6.809  13.002  23.154  0.00  0.00    +0.000 C 
ATOM     15  N   UNL     1       8.935  13.461  21.372  0.00  0.00    +0.000 NA
ATOM     16  C   UNL     1       9.672  13.979  20.374  0.00  0.00    +0.000 A 
ATOM     17  N   UNL     1       9.805  13.217  19.183  0.00  0.00    +0.000 N 
ATOM     18  C   UNL     1      10.458  13.759  18.087  0.00  0.00    +0.000 A 
ATOM     19  O   UNL     1      10.559  13.249  16.976  0.00  0.00    +0.000 OA
ENDROOT
BRANCH  17  20
ATOM     20  C   UNL     1       9.145  11.928  19.148  0.00  0.00    +0.000 C 
ATOM     21  C   UNL     1       9.446  10.794  18.206  0.00  0.00    +0.000 C 
ATOM     22  C   UNL     1       9.896  10.705  19.629  0.00  0.00    +0.000 C 
ENDBRANCH  17  20
TORSDOF 1
ENDMDL
MODEL 9
REMARK VINA RESULT:      -5.3      3.137      7.718
REMARK  Name = 
REMARK  3 active torsions:
REMARK  status: ('A' for Active; 'I' for Inactive)
REMARK    1  A    between atoms: C_1  and  C_2
REMARK    2  A    between atoms: N_11  and  C_12
REMARK    3  A    between atoms: N_17  and  C_18
REMARK                            x       y       z     vdW  Elec       q    Type
REMARK                         _______ _______ _______ _____ _____    ______ ____
ROOT
ATOM      1  C   UNL     1       2.661   6.526  19.559  0.00  0.00    +0.000 C 
ATOM      2  C   UNL     1       1.870   7.732  19.982  0.00  0.00    +0.000 A 
ATOM      3  N   UNL     1       1.262   7.732  21.132  0.00  0.00    +0.000 NA
ATOM      4  C   UNL     1       0.544   8.890  21.470  0.00  0.00    +0.000 A 
ATOM      5  C   UNL     1      -0.109   9.012  22.676  0.00  0.00    +0.000 A 
ATOM      6  N   UNL     1      -0.820  10.100  23.056  0.00  0.00    +0.000 NA
ATOM      7  C   UNL     1      -0.843  11.133  22.206  0.00  0.00    +0.000 A 
ATOM      8  N   UNL     1      -1.570  12.263  22.481  0.00  0.00    +0.000 N 
ATOM      9  C   UNL     1      -2.539  12.269  23.565  0.00  0.00    +0.000 C 
ATOM     10  C   UNL     1      -3.572  13.389  23.271  0.00  0.00    +0.000 C 
ATOM     11  N   UNL     1      -2.945  14.722  23.080  0.00  0.00    +0.000 NA
ATOM     12  C   UNL     1      -3.956  15.716  22.720  0.00  0.00    +0.000 C 
ATOM     13  C   UNL     1      -1.911  14.642  22.021  0.00  0.00    +0.000 C 
ATOM     14  C   UNL     1      -0.870  13.536  22.288  0.00  0.00    +0.000 C 
ATOM     15  N   UNL     1      -0.232  11.109  21.018  0.00  0.00    +0.000 NA
ATOM     16  C   UNL     1       0.429   9.997  20.654  0.00  0.00    +0.000 A 
ATOM     17  N   UNL     1       1.049   9.982  19.376  0.00  0.00    +0.000 N 
ATOM     18  C   UNL     1       1.837   8.903  19.005  0.00  0.00    +0.000 A 
ATOM     19  O   UNL     1       2.500   8.808  17.977  0.00  0.00    +0.000 OA
ENDROOT
BRANCH  17  20
ATOM     20  C   UNL     1       0.901  11.168  18.558  0.00  0.00    +0.000 C 
ATOM     21  C   UNL     1       1.048  12.594  19.016  0.00  0.00    +0.000 C 
ATOM     22  C   UNL     1       2.133  11.969  18.197  0.00  0.00    +0.000 C 
ENDBRANCH  17  20
TORSDOF 1
ENDMDL
