MODEL 1
REMARK VINA RESULT:      -6.5      0.000      0.000
REMARK  Name = 
REMARK  10 active torsions:
REMARK  status: ('A' for Active; 'I' for Inactive)
REMARK    1  A    between atoms: C_1  and  C_2
REMARK    2  A    between atoms: C_2  and  C_3
REMARK    3  A    between atoms: C_2  and  C_4
REMARK    4  A    between atoms: C_7  and  C_8
REMARK    5  A    between atoms: C_10  and  O_11
REMARK    6  A    between atoms: O_11  and  C_12
REMARK    7  A    between atoms: N_15  and  C_16
REMARK    8  A    between atoms: C_16  and  C_17
REMARK    9  A    between atoms: C_16  and  C_18
REMARK   10  A    between atoms: C_24  and  C_25
REMARK                            x       y       z     vdW  Elec       q    Type
REMARK                         _______ _______ _______ _____ _____    ______ ____
ROOT
ATOM      1  C   UNL     1      -3.854  11.694  18.296  0.00  0.00    +0.000 C 
ATOM      2  C   UNL     1      -2.649  10.720  18.164  0.00  0.00    +0.000 C 
ATOM      3  O   UNL     1      -2.481   9.573  17.821  0.00  0.00    +0.000 OA
ATOM      4  N   UNL     1      -1.785  11.647  18.642  0.00  0.00    +0.000 N 
ATOM      5  C   UNL     1      -2.813  12.655  18.984  0.00  0.00    +0.000 C 
ENDROOT
BRANCH   5   6
ATOM      6  C   UNL     1      -3.012  13.220  20.474  0.00  0.00    +0.000 A 
ATOM      7  C   UNL     1      -3.586  12.474  21.527  0.00  0.00    +0.000 A 
ATOM      8  C   UNL     1      -3.658  12.934  22.848  0.00  0.00    +0.000 A 
ATOM      9  C   UNL     1      -3.115  14.164  23.175  0.00  0.00    +0.000 A 
ATOM     10 BR   UNL     1      -3.168  14.769  24.963  0.00  0.00    +0.000 Br
ATOM     11  C   UNL     1      -2.516  14.934  22.188  0.00  0.00    +0.000 A 
ATOM     12  C   UNL     1      -2.471  14.465  20.864  0.00  0.00    +0.000 A 
ENDBRANCH   5   6
BRANCH   4  13
ATOM     13  C   UNL     1      -0.444  11.432  19.120  0.00  0.00    +0.000 C 
ATOM     14  C   UNL     1       0.361  12.739  19.158  0.00  0.00    +0.000 C 
BRANCH  13  15
ATOM     15  C   UNL     1      -0.395  10.669  20.442  0.00  0.00    +0.000 A 
ATOM     16  C   UNL     1      -0.053   9.303  20.446  0.00  0.00    +0.000 A 
ATOM     17  C   UNL     1       0.120   8.611  21.648  0.00  0.00    +0.000 A 
ATOM     18  C   UNL     1      -0.054   9.268  22.864  0.00  0.00    +0.000 A 
ATOM     19  C   UNL     1      -0.433  10.606  22.878  0.00  0.00    +0.000 A 
ATOM     20  C   UNL     1      -0.617  11.297  21.676  0.00  0.00    +0.000 A 
ENDBRANCH  13  15
ENDBRANCH   4  13
BRANCH   1  21
ATOM     21  O   UNL     1      -5.017  11.170  19.015  0.00  0.00    +0.000 OA
BRANCH  21  28
ATOM     22  C   UNL     1      -6.699  12.625  20.155  0.00  0.00    +0.000 C 
ATOM     23  C   UNL     1      -7.914  13.547  19.862  0.00  0.00    +0.000 C 
ATOM     24  C   UNL     1      -7.707  14.502  18.692  0.00  0.00    +0.000 C 
ATOM     25  C   UNL     1      -7.322  13.744  17.427  0.00  0.00    +0.000 C 
ATOM     26  C   UNL     1      -7.087  14.699  16.259  0.00  0.00    +0.000 C 
ATOM     27  C   UNL     1      -6.077  12.901  17.688  0.00  0.00    +0.000 C 
ATOM     28  C   UNL     1      -6.258  11.899  18.843  0.00  0.00    +0.000 C 
BRANCH  22  30
ATOM     29  C   UNL     1      -7.908  10.455  20.859  0.00  0.00    +0.000 C 
ATOM     30  C   UNL     1      -7.060  11.650  21.330  0.00  0.00    +0.000 C 
ATOM     31  C   UNL     1      -7.803  12.325  22.484  0.00  0.00    +0.000 C 
ENDBRANCH  22  30
ENDBRANCH  21  28
ENDBRANCH   1  21
TORSDOF 6
ENDMDL
MODEL 2
REMARK VINA RESULT:      -6.1      2.588      5.849
REMARK  Name = 
REMARK  10 active torsions:
REMARK  status: ('A' for Active; 'I' for Inactive)
REMARK    1  A    between atoms: C_1  and  C_2
REMARK    2  A    between atoms: C_2  and  C_3
REMARK    3  A    between atoms: C_2  and  C_4
REMARK    4  A    between atoms: C_7  and  C_8
REMARK    5  A    between atoms: C_10  and  O_11
REMARK    6  A    between atoms: O_11  and  C_12
REMARK    7  A    between atoms: N_15  and  C_16
REMARK    8  A    between atoms: C_16  and  C_17
REMARK    9  A    between atoms: C_16  and  C_18
REMARK   10  A    between atoms: C_24  and  C_25
REMARK                            x       y       z     vdW  Elec       q    Type
REMARK                         _______ _______ _______ _____ _____    ______ ____
ROOT
ATOM      1  C   UNL     1      -1.191  12.384  21.143  0.00  0.00    +0.000 C 
ATOM      2  C   UNL     1      -1.100  12.300  22.693  0.00  0.00    +0.000 C 
ATOM      3  O   UNL     1      -0.752  11.479  23.509  0.00  0.00    +0.000 OA
ATOM      4  N   UNL     1      -1.624  13.540  22.839  0.00  0.00    +0.000 N 
ATOM      5  C   UNL     1      -1.933  13.748  21.407  0.00  0.00    +0.000 C 
ENDROOT
BRANCH   5   6
ATOM      6  C   UNL     1      -3.419  14.039  20.874  0.00  0.00    +0.000 A 
ATOM      7  C   UNL     1      -4.436  13.061  20.802  0.00  0.00    +0.000 A 
ATOM      8  C   UNL     1      -5.757  13.347  20.438  0.00  0.00    +0.000 A 
ATOM      9  C   UNL     1      -6.124  14.652  20.163  0.00  0.00    +0.000 A 
ATOM     10 BR   UNL     1      -7.916  15.050  19.716  0.00  0.00    +0.000 Br
ATOM     11  C   UNL     1      -5.176  15.663  20.238  0.00  0.00    +0.000 A 
ATOM     12  C   UNL     1      -3.849  15.354  20.585  0.00  0.00    +0.000 A 
ENDBRANCH   5   6
BRANCH   4  13
ATOM     13  C   UNL     1      -2.157  14.131  24.039  0.00  0.00    +0.000 C 
ATOM     14  C   UNL     1      -1.652  15.568  24.235  0.00  0.00    +0.000 C 
BRANCH  13  15
ATOM     15  C   UNL     1      -3.676  14.020  24.138  0.00  0.00    +0.000 A 
ATOM     16  C   UNL     1      -4.470  15.171  23.977  0.00  0.00    +0.000 A 
ATOM     17  C   UNL     1      -5.865  15.081  23.939  0.00  0.00    +0.000 A 
ATOM     18  C   UNL     1      -6.488  13.842  24.069  0.00  0.00    +0.000 A 
ATOM     19  C   UNL     1      -5.720  12.700  24.270  0.00  0.00    +0.000 A 
ATOM     20  C   UNL     1      -4.326  12.790  24.319  0.00  0.00    +0.000 A 
ENDBRANCH  13  15
ENDBRANCH   4  13
BRANCH   1  21
ATOM     21  O   UNL     1      -1.854  11.255  20.485  0.00  0.00    +0.000 OA
BRANCH  21  28
ATOM     22  C   UNL     1      -1.097   9.919  18.514  0.00  0.00    +0.000 C 
ATOM     23  C   UNL     1      -1.224   9.845  16.967  0.00  0.00    +0.000 C 
ATOM     24  C   UNL     1      -2.645  10.029  16.447  0.00  0.00    +0.000 C 
ATOM     25  C   UNL     1      -3.248  11.334  16.948  0.00  0.00    +0.000 C 
ATOM     26  C   UNL     1      -4.682  11.509  16.451  0.00  0.00    +0.000 C 
ATOM     27  C   UNL     1      -3.202  11.373  18.473  0.00  0.00    +0.000 C 
ATOM     28  C   UNL     1      -1.778  11.224  19.038  0.00  0.00    +0.000 C 
BRANCH  22  30
ATOM     29  C   UNL     1       0.590   9.320  20.374  0.00  0.00    +0.000 C 
ATOM     30  C   UNL     1       0.412   9.783  18.917  0.00  0.00    +0.000 C 
ATOM     31  C   UNL     1       1.217  11.072  18.734  0.00  0.00    +0.000 C 
ENDBRANCH  22  30
ENDBRANCH  21  28
ENDBRANCH   1  21
TORSDOF 6
ENDMDL
MODEL 3
REMARK VINA RESULT:      -6.0      4.162      8.603
REMARK  Name = 
REMARK  10 active torsions:
REMARK  status: ('A' for Active; 'I' for Inactive)
REMARK    1  A    between atoms: C_1  and  C_2
REMARK    2  A    between atoms: C_2  and  C_3
REMARK    3  A    between atoms: C_2  and  C_4
REMARK    4  A    between atoms: C_7  and  C_8
REMARK    5  A    between atoms: C_10  and  O_11
REMARK    6  A    between atoms: O_11  and  C_12
REMARK    7  A    between atoms: N_15  and  C_16
REMARK    8  A    between atoms: C_16  and  C_17
REMARK    9  A    between atoms: C_16  and  C_18
REMARK   10  A    between atoms: C_24  and  C_25
REMARK                            x       y       z     vdW  Elec       q    Type
REMARK                         _______ _______ _______ _____ _____    ______ ____
ROOT
ATOM      1  C   UNL     1       1.788   8.927  19.673  0.00  0.00    +0.000 C 
ATOM      2  C   UNL     1       1.193   8.708  21.092  0.00  0.00    +0.000 C 
ATOM      3  O   UNL     1       1.236   7.846  21.939  0.00  0.00    +0.000 OA
ATOM      4  N   UNL     1       0.521   9.882  21.044  0.00  0.00    +0.000 N 
ATOM      5  C   UNL     1       0.855  10.195  19.636  0.00  0.00    +0.000 C 
ENDROOT
BRANCH   5   6
ATOM      6  C   UNL     1      -0.265  10.412  18.507  0.00  0.00    +0.000 A 
ATOM      7  C   UNL     1      -0.804   9.368  17.723  0.00  0.00    +0.000 A 
ATOM      8  C   UNL     1      -1.856   9.548  16.816  0.00  0.00    +0.000 A 
ATOM      9  C   UNL     1      -2.440  10.796  16.684  0.00  0.00    +0.000 A 
ATOM     10 BR   UNL     1      -3.888  11.035  15.496  0.00  0.00    +0.000 Br
ATOM     11  C   UNL     1      -1.970  11.857  17.445  0.00  0.00    +0.000 A 
ATOM     12  C   UNL     1      -0.900  11.662  18.335  0.00  0.00    +0.000 A 
ENDBRANCH   5   6
BRANCH   4  13
ATOM     13  C   UNL     1      -0.552  10.315  21.903  0.00  0.00    +0.000 C 
ATOM     14  C   UNL     1      -0.319   9.888  23.359  0.00  0.00    +0.000 C 
BRANCH  13  15
ATOM     15  C   UNL     1      -0.865  11.803  21.766  0.00  0.00    +0.000 A 
ATOM     16  C   UNL     1       0.189  12.736  21.736  0.00  0.00    +0.000 A 
ATOM     17  C   UNL     1      -0.059  14.089  21.487  0.00  0.00    +0.000 A 
ATOM     18  C   UNL     1      -1.362  14.533  21.274  0.00  0.00    +0.000 A 
ATOM     19  C   UNL     1      -2.419  13.631  21.342  0.00  0.00    +0.000 A 
ATOM     20  C   UNL     1      -2.174  12.279  21.601  0.00  0.00    +0.000 A 
ENDBRANCH  13  15
ENDBRANCH   4  13
BRANCH   1  21
ATOM     21  O   UNL     1       1.618   7.813  18.736  0.00  0.00    +0.000 OA
BRANCH  21  28
ATOM     22  C   UNL     1       2.195   5.386  18.584  0.00  0.00    +0.000 C 
ATOM     23  C   UNL     1       3.389   4.430  18.314  0.00  0.00    +0.000 C 
ATOM     24  C   UNL     1       4.257   4.832  17.127  0.00  0.00    +0.000 C 
ATOM     25  C   UNL     1       4.768   6.259  17.279  0.00  0.00    +0.000 C 
ATOM     26  C   UNL     1       5.615   6.675  16.079  0.00  0.00    +0.000 C 
ATOM     27  C   UNL     1       3.591   7.213  17.460  0.00  0.00    +0.000 C 
ATOM     28  C   UNL     1       2.708   6.860  18.671  0.00  0.00    +0.000 C 
BRANCH  22  30
ATOM     29  C   UNL     1       2.341   4.806  21.096  0.00  0.00    +0.000 C 
ATOM     30  C   UNL     1       1.425   4.905  19.862  0.00  0.00    +0.000 C 
ATOM     31  C   UNL     1       0.726   3.555  19.689  0.00  0.00    +0.000 C 
ENDBRANCH  22  30
ENDBRANCH  21  28
ENDBRANCH   1  21
TORSDOF 6
ENDMDL
MODEL 4
REMARK VINA RESULT:      -6.0      3.516      6.763
REMARK  Name = 
REMARK  10 active torsions:
REMARK  status: ('A' for Active; 'I' for Inactive)
REMARK    1  A    between atoms: C_1  and  C_2
REMARK    2  A    between atoms: C_2  and  C_3
REMARK    3  A    between atoms: C_2  and  C_4
REMARK    4  A    between atoms: C_7  and  C_8
REMARK    5  A    between atoms: C_10  and  O_11
REMARK    6  A    between atoms: O_11  and  C_12
REMARK    7  A    between atoms: N_15  and  C_16
REMARK    8  A    between atoms: C_16  and  C_17
REMARK    9  A    between atoms: C_16  and  C_18
REMARK   10  A    between atoms: C_24  and  C_25
REMARK                            x       y       z     vdW  Elec       q    Type
REMARK                         _______ _______ _______ _____ _____    ______ ____
ROOT
ATOM      1  C   UNL     1       1.564  12.998  20.548  0.00  0.00    +0.000 C 
ATOM      2  C   UNL     1       1.629  11.994  19.363  0.00  0.00    +0.000 C 
ATOM      3  O   UNL     1       2.101  11.978  18.250  0.00  0.00    +0.000 OA
ATOM      4  N   UNL     1       0.882  11.083  20.030  0.00  0.00    +0.000 N 
ATOM      5  C   UNL     1       0.576  11.952  21.189  0.00  0.00    +0.000 C 
ENDROOT
BRANCH   5   6
ATOM      6  C   UNL     1      -0.924  12.331  21.617  0.00  0.00    +0.000 A 
ATOM      7  C   UNL     1      -1.879  12.882  20.735  0.00  0.00    +0.000 A 
ATOM      8  C   UNL     1      -3.215  13.109  21.088  0.00  0.00    +0.000 A 
ATOM      9  C   UNL     1      -3.660  12.753  22.349  0.00  0.00    +0.000 A 
ATOM     10 BR   UNL     1      -5.471  13.015  22.814  0.00  0.00    +0.000 Br
ATOM     11  C   UNL     1      -2.775  12.185  23.254  0.00  0.00    +0.000 A 
ATOM     12  C   UNL     1      -1.433  11.983  22.889  0.00  0.00    +0.000 A 
ENDBRANCH   5   6
BRANCH   4  13
ATOM     13  C   UNL     1       0.218   9.926  19.487  0.00  0.00    +0.000 C 
ATOM     14  C   UNL     1      -0.674  10.293  18.292  0.00  0.00    +0.000 C 
BRANCH  13  15
ATOM     15  C   UNL     1       1.174   8.776  19.180  0.00  0.00    +0.000 A 
ATOM     16  C   UNL     1       1.786   8.699  17.914  0.00  0.00    +0.000 A 
ATOM     17  C   UNL     1       2.758   7.732  17.645  0.00  0.00    +0.000 A 
ATOM     18  C   UNL     1       3.128   6.821  18.632  0.00  0.00    +0.000 A 
ATOM     19  C   UNL     1       2.504   6.857  19.875  0.00  0.00    +0.000 A 
ATOM     20  C   UNL     1       1.523   7.817  20.141  0.00  0.00    +0.000 A 
ENDBRANCH  13  15
ENDBRANCH   4  13
BRANCH   1  21
ATOM     21  O   UNL     1       1.138  14.357  20.205  0.00  0.00    +0.000 OA
BRANCH  21  28
ATOM     22  C   UNL     1       1.297  16.423  18.808  0.00  0.00    +0.000 C 
ATOM     23  C   UNL     1       2.152  17.076  17.687  0.00  0.00    +0.000 C 
ATOM     24  C   UNL     1       3.656  16.963  17.902  0.00  0.00    +0.000 C 
ATOM     25  C   UNL     1       4.077  15.511  18.086  0.00  0.00    +0.000 C 
ATOM     26  C   UNL     1       5.580  15.396  18.328  0.00  0.00    +0.000 C 
ATOM     27  C   UNL     1       3.299  14.890  19.242  0.00  0.00    +0.000 C 
ATOM     28  C   UNL     1       1.773  14.954  19.048  0.00  0.00    +0.000 C 
BRANCH  22  30
ATOM     29  C   UNL     1      -0.496  17.704  17.462  0.00  0.00    +0.000 C 
ATOM     30  C   UNL     1      -0.223  16.546  18.439  0.00  0.00    +0.000 C 
ATOM     31  C   UNL     1      -1.138  16.730  19.652  0.00  0.00    +0.000 C 
ENDBRANCH  22  30
ENDBRANCH  21  28
ENDBRANCH   1  21
TORSDOF 6
ENDMDL
MODEL 5
REMARK VINA RESULT:      -6.0      3.241      6.796
REMARK  Name = 
REMARK  10 active torsions:
REMARK  status: ('A' for Active; 'I' for Inactive)
REMARK    1  A    between atoms: C_1  and  C_2
REMARK    2  A    between atoms: C_2  and  C_3
REMARK    3  A    between atoms: C_2  and  C_4
REMARK    4  A    between atoms: C_7  and  C_8
REMARK    5  A    between atoms: C_10  and  O_11
REMARK    6  A    between atoms: O_11  and  C_12
REMARK    7  A    between atoms: N_15  and  C_16
REMARK    8  A    between atoms: C_16  and  C_17
REMARK    9  A    between atoms: C_16  and  C_18
REMARK   10  A    between atoms: C_24  and  C_25
REMARK                            x       y       z     vdW  Elec       q    Type
REMARK                         _______ _______ _______ _____ _____    ______ ____
ROOT
ATOM      1  C   UNL     1       1.575  13.034  20.522  0.00  0.00    +0.000 C 
ATOM      2  C   UNL     1       1.464  11.987  19.377  0.00  0.00    +0.000 C 
ATOM      3  O   UNL     1       1.813  11.909  18.222  0.00  0.00    +0.000 OA
ATOM      4  N   UNL     1       0.751  11.140  20.155  0.00  0.00    +0.000 N 
ATOM      5  C   UNL     1       0.613  12.063  21.304  0.00  0.00    +0.000 C 
ENDROOT
BRANCH   5   6
ATOM      6  C   UNL     1      -0.813  12.533  21.874  0.00  0.00    +0.000 A 
ATOM      7  C   UNL     1      -1.578  13.579  21.312  0.00  0.00    +0.000 A 
ATOM      8  C   UNL     1      -2.867  13.911  21.747  0.00  0.00    +0.000 A 
ATOM      9  C   UNL     1      -3.461  13.172  22.755  0.00  0.00    +0.000 A 
ATOM     10 BR   UNL     1      -5.217  13.587  23.314  0.00  0.00    +0.000 Br
ATOM     11  C   UNL     1      -2.769  12.116  23.331  0.00  0.00    +0.000 A 
ATOM     12  C   UNL     1      -1.468  11.810  22.895  0.00  0.00    +0.000 A 
ENDBRANCH   5   6
BRANCH   4  13
ATOM     13  C   UNL     1      -0.022  10.000  19.732  0.00  0.00    +0.000 C 
ATOM     14  C   UNL     1      -0.500   9.164  20.928  0.00  0.00    +0.000 C 
BRANCH  13  15
ATOM     15  C   UNL     1      -1.155  10.367  18.777  0.00  0.00    +0.000 A 
ATOM     16  C   UNL     1      -1.197   9.790  17.493  0.00  0.00    +0.000 A 
ATOM     17  C   UNL     1      -2.285  10.009  16.643  0.00  0.00    +0.000 A 
ATOM     18  C   UNL     1      -3.343  10.815  17.058  0.00  0.00    +0.000 A 
ATOM     19  C   UNL     1      -3.298  11.426  18.307  0.00  0.00    +0.000 A 
ATOM     20  C   UNL     1      -2.206  11.216  19.153  0.00  0.00    +0.000 A 
ENDBRANCH  13  15
ENDBRANCH   4  13
BRANCH   1  21
ATOM     21  O   UNL     1       1.180  14.400  20.172  0.00  0.00    +0.000 OA
BRANCH  21  28
ATOM     22  C   UNL     1       1.365  16.441  18.742  0.00  0.00    +0.000 C 
ATOM     23  C   UNL     1       2.184  17.036  17.564  0.00  0.00    +0.000 C 
ATOM     24  C   UNL     1       3.690  16.842  17.688  0.00  0.00    +0.000 C 
ATOM     25  C   UNL     1       4.041  15.370  17.864  0.00  0.00    +0.000 C 
ATOM     26  C   UNL     1       5.548  15.174  18.016  0.00  0.00    +0.000 C 
ATOM     27  C   UNL     1       3.303  14.804  19.073  0.00  0.00    +0.000 C 
ATOM     28  C   UNL     1       1.774  14.950  18.971  0.00  0.00    +0.000 C 
BRANCH  22  30
ATOM     29  C   UNL     1      -0.430  17.743  17.419  0.00  0.00    +0.000 C 
ATOM     30  C   UNL     1      -0.165  16.645  18.465  0.00  0.00    +0.000 C 
ATOM     31  C   UNL     1      -0.978  16.986  19.716  0.00  0.00    +0.000 C 
ENDBRANCH  22  30
ENDBRANCH  21  28
ENDBRANCH   1  21
TORSDOF 6
ENDMDL
MODEL 6
REMARK VINA RESULT:      -6.0      2.994      4.776
REMARK  Name = 
REMARK  10 active torsions:
REMARK  status: ('A' for Active; 'I' for Inactive)
REMARK    1  A    between atoms: C_1  and  C_2
REMARK    2  A    between atoms: C_2  and  C_3
REMARK    3  A    between atoms: C_2  and  C_4
REMARK    4  A    between atoms: C_7  and  C_8
REMARK    5  A    between atoms: C_10  and  O_11
REMARK    6  A    between atoms: O_11  and  C_12
REMARK    7  A    between atoms: N_15  and  C_16
REMARK    8  A    between atoms: C_16  and  C_17
REMARK    9  A    between atoms: C_16  and  C_18
REMARK   10  A    between atoms: C_24  and  C_25
REMARK                            x       y       z     vdW  Elec       q    Type
REMARK                         _______ _______ _______ _____ _____    ______ ____
ROOT
ATOM      1  C   UNL     1      -2.948  12.555  20.509  0.00  0.00    +0.000 C 
ATOM      2  C   UNL     1      -1.544  13.201  20.674  0.00  0.00    +0.000 C 
ATOM      3  O   UNL     1      -1.098  14.233  21.121  0.00  0.00    +0.000 OA
ATOM      4  N   UNL     1      -0.938  12.156  20.062  0.00  0.00    +0.000 N 
ATOM      5  C   UNL     1      -2.184  11.459  19.675  0.00  0.00    +0.000 C 
ENDROOT
BRANCH   5   6
ATOM      6  C   UNL     1      -2.552  11.123  18.149  0.00  0.00    +0.000 A 
ATOM      7  C   UNL     1      -1.863  10.171  17.365  0.00  0.00    +0.000 A 
ATOM      8  C   UNL     1      -2.256   9.807  16.071  0.00  0.00    +0.000 A 
ATOM      9  C   UNL     1      -3.395  10.366  15.519  0.00  0.00    +0.000 A 
ATOM     10 BR   UNL     1      -3.956   9.844  13.793  0.00  0.00    +0.000 Br
ATOM     11  C   UNL     1      -4.129  11.291  16.249  0.00  0.00    +0.000 A 
ATOM     12  C   UNL     1      -3.708  11.660  17.538  0.00  0.00    +0.000 A 
ENDBRANCH   5   6
BRANCH   4  13
ATOM     13  C   UNL     1       0.403  12.104  19.538  0.00  0.00    +0.000 C 
ATOM     14  C   UNL     1       1.328  13.104  20.247  0.00  0.00    +0.000 C 
BRANCH  13  15
ATOM     15  C   UNL     1       0.977  10.690  19.503  0.00  0.00    +0.000 A 
ATOM     16  C   UNL     1       0.876   9.869  20.642  0.00  0.00    +0.000 A 
ATOM     17  C   UNL     1       1.280   8.532  20.601  0.00  0.00    +0.000 A 
ATOM     18  C   UNL     1       1.800   7.996  19.424  0.00  0.00    +0.000 A 
ATOM     19  C   UNL     1       1.946   8.804  18.302  0.00  0.00    +0.000 A 
ATOM     20  C   UNL     1       1.552  10.145  18.345  0.00  0.00    +0.000 A 
ENDBRANCH  13  15
ENDBRANCH   4  13
BRANCH   1  21
ATOM     21  O   UNL     1      -3.973  13.412  19.908  0.00  0.00    +0.000 OA
BRANCH  21  28
ATOM     22  C   UNL     1      -5.857  12.329  21.142  0.00  0.00    +0.000 C 
ATOM     23  C   UNL     1      -6.989  12.640  22.160  0.00  0.00    +0.000 C 
ATOM     24  C   UNL     1      -6.549  13.493  23.343  0.00  0.00    +0.000 C 
ATOM     25  C   UNL     1      -5.911  14.795  22.873  0.00  0.00    +0.000 C 
ATOM     26  C   UNL     1      -5.444  15.641  24.056  0.00  0.00    +0.000 C 
ATOM     27  C   UNL     1      -4.744  14.490  21.939  0.00  0.00    +0.000 C 
ATOM     28  C   UNL     1      -5.154  13.656  20.712  0.00  0.00    +0.000 C 
BRANCH  22  30
ATOM     29  C   UNL     1      -7.185  12.398  18.929  0.00  0.00    +0.000 C 
ATOM     30  C   UNL     1      -6.448  11.506  19.945  0.00  0.00    +0.000 C 
ATOM     31  C   UNL     1      -7.409  10.395  20.375  0.00  0.00    +0.000 C 
ENDBRANCH  22  30
ENDBRANCH  21  28
ENDBRANCH   1  21
TORSDOF 6
ENDMDL
MODEL 7
REMARK VINA RESULT:      -6.0      3.572      6.126
REMARK  Name = 
REMARK  10 active torsions:
REMARK  status: ('A' for Active; 'I' for Inactive)
REMARK    1  A    between atoms: C_1  and  C_2
REMARK    2  A    between atoms: C_2  and  C_3
REMARK    3  A    between atoms: C_2  and  C_4
REMARK    4  A    between atoms: C_7  and  C_8
REMARK    5  A    between atoms: C_10  and  O_11
REMARK    6  A    between atoms: O_11  and  C_12
REMARK    7  A    between atoms: N_15  and  C_16
REMARK    8  A    between atoms: C_16  and  C_17
REMARK    9  A    between atoms: C_16  and  C_18
REMARK   10  A    between atoms: C_24  and  C_25
REMARK                            x       y       z     vdW  Elec       q    Type
REMARK                         _______ _______ _______ _____ _____    ______ ____
ROOT
ATOM      1  C   UNL     1      -1.071  11.803  20.399  0.00  0.00    +0.000 C 
ATOM      2  C   UNL     1      -0.421  13.084  19.804  0.00  0.00    +0.000 C 
ATOM      3  O   UNL     1      -0.803  14.078  19.232  0.00  0.00    +0.000 OA
ATOM      4  N   UNL     1       0.824  12.661  20.130  0.00  0.00    +0.000 N 
ATOM      5  C   UNL     1       0.414  11.319  20.600  0.00  0.00    +0.000 C 
ENDROOT
BRANCH   5   6
ATOM      6  C   UNL     1       0.977   9.963  19.951  0.00  0.00    +0.000 A 
ATOM      7  C   UNL     1       1.350   9.836  18.595  0.00  0.00    +0.000 A 
ATOM      8  C   UNL     1       1.940   8.683  18.062  0.00  0.00    +0.000 A 
ATOM      9  C   UNL     1       2.215   7.609  18.890  0.00  0.00    +0.000 A 
ATOM     10 BR   UNL     1       3.052   6.070  18.186  0.00  0.00    +0.000 Br
ATOM     11  C   UNL     1       1.893   7.682  20.238  0.00  0.00    +0.000 A 
ATOM     12  C   UNL     1       1.283   8.840  20.752  0.00  0.00    +0.000 A 
ENDBRANCH   5   6
BRANCH   4  13
ATOM     13  C   UNL     1       2.079  13.175  19.644  0.00  0.00    +0.000 C 
ATOM     14  C   UNL     1       2.151  13.139  18.111  0.00  0.00    +0.000 C 
BRANCH  13  15
ATOM     15  C   UNL     1       2.428  14.545  20.220  0.00  0.00    +0.000 A 
ATOM     16  C   UNL     1       2.520  14.710  21.616  0.00  0.00    +0.000 A 
ATOM     17  C   UNL     1       2.957  15.917  22.167  0.00  0.00    +0.000 A 
ATOM     18  C   UNL     1       3.302  16.981  21.336  0.00  0.00    +0.000 A 
ATOM     19  C   UNL     1       3.177  16.848  19.957  0.00  0.00    +0.000 A 
ATOM     20  C   UNL     1       2.730  15.645  19.404  0.00  0.00    +0.000 A 
ENDBRANCH  13  15
ENDBRANCH   4  13
BRANCH   1  21
ATOM     21  O   UNL     1      -2.003  11.097  19.516  0.00  0.00    +0.000 OA
BRANCH  21  28
ATOM     22  C   UNL     1      -3.737  11.173  17.718  0.00  0.00    +0.000 C 
ATOM     23  C   UNL     1      -4.978  11.983  17.252  0.00  0.00    +0.000 C 
ATOM     24  C   UNL     1      -5.953  12.332  18.371  0.00  0.00    +0.000 C 
ATOM     25  C   UNL     1      -5.250  13.076  19.499  0.00  0.00    +0.000 C 
ATOM     26  C   UNL     1      -6.218  13.403  20.634  0.00  0.00    +0.000 C 
ATOM     27  C   UNL     1      -4.080  12.244  20.017  0.00  0.00    +0.000 C 
ATOM     28  C   UNL     1      -3.054  11.899  18.922  0.00  0.00    +0.000 C 
BRANCH  22  30
ATOM     29  C   UNL     1      -3.555  10.787  15.171  0.00  0.00    +0.000 C 
ATOM     30  C   UNL     1      -2.783  10.937  16.495  0.00  0.00    +0.000 C 
ATOM     31  C   UNL     1      -1.876   9.714  16.648  0.00  0.00    +0.000 C 
ENDBRANCH  22  30
ENDBRANCH  21  28
ENDBRANCH   1  21
TORSDOF 6
ENDMDL
MODEL 8
REMARK VINA RESULT:      -5.9      2.944      6.289
REMARK  Name = 
REMARK  10 active torsions:
REMARK  status: ('A' for Active; 'I' for Inactive)
REMARK    1  A    between atoms: C_1  and  C_2
REMARK    2  A    between atoms: C_2  and  C_3
REMARK    3  A    between atoms: C_2  and  C_4
REMARK    4  A    between atoms: C_7  and  C_8
REMARK    5  A    between atoms: C_10  and  O_11
REMARK    6  A    between atoms: O_11  and  C_12
REMARK    7  A    between atoms: N_15  and  C_16
REMARK    8  A    between atoms: C_16  and  C_17
REMARK    9  A    between atoms: C_16  and  C_18
REMARK   10  A    between atoms: C_24  and  C_25
REMARK                            x       y       z     vdW  Elec       q    Type
REMARK                         _______ _______ _______ _____ _____    ______ ____
ROOT
ATOM      1  C   UNL     1      -0.566  13.815  20.523  0.00  0.00    +0.000 C 
ATOM      2  C   UNL     1       0.415  14.296  21.629  0.00  0.00    +0.000 C 
ATOM      3  O   UNL     1       1.534  14.017  21.992  0.00  0.00    +0.000 OA
ATOM      4  N   UNL     1      -0.491  15.175  22.118  0.00  0.00    +0.000 N 
ATOM      5  C   UNL     1      -1.609  14.746  21.248  0.00  0.00    +0.000 C 
ENDROOT
BRANCH   5   6
ATOM      6  C   UNL     1      -3.000  14.196  21.830  0.00  0.00    +0.000 A 
ATOM      7  C   UNL     1      -3.101  13.124  22.745  0.00  0.00    +0.000 A 
ATOM      8  C   UNL     1      -4.308  12.721  23.330  0.00  0.00    +0.000 A 
ATOM      9  C   UNL     1      -5.472  13.411  23.043  0.00  0.00    +0.000 A 
ATOM     10 BR   UNL     1      -7.094  12.900  23.865  0.00  0.00    +0.000 Br
ATOM     11  C   UNL     1      -5.434  14.488  22.169  0.00  0.00    +0.000 A 
ATOM     12  C   UNL     1      -4.217  14.866  21.575  0.00  0.00    +0.000 A 
ENDBRANCH   5   6
BRANCH   4  13
ATOM     13  C   UNL     1      -0.460  15.851  23.390  0.00  0.00    +0.000 C 
ATOM     14  C   UNL     1       0.702  16.852  23.471  0.00  0.00    +0.000 C 
BRANCH  13  15
ATOM     15  C   UNL     1      -1.802  16.471  23.771  0.00  0.00    +0.000 A 
ATOM     16  C   UNL     1      -2.561  15.902  24.812  0.00  0.00    +0.000 A 
ATOM     17  C   UNL     1      -3.730  16.518  25.265  0.00  0.00    +0.000 A 
ATOM     18  C   UNL     1      -4.165  17.706  24.681  0.00  0.00    +0.000 A 
ATOM     19  C   UNL     1      -3.450  18.259  23.624  0.00  0.00    +0.000 A 
ATOM     20  C   UNL     1      -2.286  17.638  23.163  0.00  0.00    +0.000 A 
ENDBRANCH  13  15
ENDBRANCH   4  13
BRANCH   1  21
ATOM     21  O   UNL     1      -0.755  12.365  20.430  0.00  0.00    +0.000 OA
BRANCH  21  28
ATOM     22  C   UNL     1      -0.549  10.396  18.905  0.00  0.00    +0.000 C 
ATOM     23  C   UNL     1      -1.107   9.818  17.575  0.00  0.00    +0.000 C 
ATOM     24  C   UNL     1      -2.622   9.916  17.437  0.00  0.00    +0.000 C 
ATOM     25  C   UNL     1      -3.096  11.354  17.610  0.00  0.00    +0.000 C 
ATOM     26  C   UNL     1      -4.616  11.452  17.500  0.00  0.00    +0.000 C 
ATOM     27  C   UNL     1      -2.621  11.897  18.954  0.00  0.00    +0.000 C 
ATOM     28  C   UNL     1      -1.092  11.846  19.120  0.00  0.00    +0.000 C 
BRANCH  22  30
ATOM     29  C   UNL     1       1.683  11.619  18.471  0.00  0.00    +0.000 C 
ATOM     30  C   UNL     1       1.016  10.298  18.896  0.00  0.00    +0.000 C 
ATOM     31  C   UNL     1       1.559   9.188  17.994  0.00  0.00    +0.000 C 
ENDBRANCH  22  30
ENDBRANCH  21  28
ENDBRANCH   1  21
TORSDOF 6
ENDMDL
MODEL 9
REMARK VINA RESULT:      -5.9      2.817      6.739
REMARK  Name = 
REMARK  10 active torsions:
REMARK  status: ('A' for Active; 'I' for Inactive)
REMARK    1  A    between atoms: C_1  and  C_2
REMARK    2  A    between atoms: C_2  and  C_3
REMARK    3  A    between atoms: C_2  and  C_4
REMARK    4  A    between atoms: C_7  and  C_8
REMARK    5  A    between atoms: C_10  and  O_11
REMARK    6  A    between atoms: O_11  and  C_12
REMARK    7  A    between atoms: N_15  and  C_16
REMARK    8  A    between atoms: C_16  and  C_17
REMARK    9  A    between atoms: C_16  and  C_18
REMARK   10  A    between atoms: C_24  and  C_25
REMARK                            x       y       z     vdW  Elec       q    Type
REMARK                         _______ _______ _______ _____ _____    ______ ____
ROOT
ATOM      1  C   UNL     1      -1.128  11.908  18.423  0.00  0.00    +0.000 C 
ATOM      2  C   UNL     1       0.114  12.788  18.740  0.00  0.00    +0.000 C 
ATOM      3  O   UNL     1       1.315  12.648  18.734  0.00  0.00    +0.000 OA
ATOM      4  N   UNL     1      -0.662  13.840  19.094  0.00  0.00    +0.000 N 
ATOM      5  C   UNL     1      -1.952  13.120  18.999  0.00  0.00    +0.000 C 
ENDROOT
BRANCH   5   6
ATOM      6  C   UNL     1      -2.956  12.970  20.242  0.00  0.00    +0.000 A 
ATOM      7  C   UNL     1      -2.613  13.297  21.573  0.00  0.00    +0.000 A 
ATOM      8  C   UNL     1      -3.527  13.265  22.634  0.00  0.00    +0.000 A 
ATOM      9  C   UNL     1      -4.848  12.935  22.391  0.00  0.00    +0.000 A 
ATOM     10 BR   UNL     1      -6.094  12.935  23.810  0.00  0.00    +0.000 Br
ATOM     11  C   UNL     1      -5.252  12.627  21.099  0.00  0.00    +0.000 A 
ATOM     12  C   UNL     1      -4.317  12.644  20.050  0.00  0.00    +0.000 A 
ENDBRANCH   5   6
BRANCH   4  13
ATOM     13  C   UNL     1      -0.264  15.019  19.819  0.00  0.00    +0.000 C 
ATOM     14  C   UNL     1       0.741  14.687  20.932  0.00  0.00    +0.000 C 
BRANCH  13  15
ATOM     15  C   UNL     1       0.214  16.148  18.910  0.00  0.00    +0.000 A 
ATOM     16  C   UNL     1       1.588  16.291  18.640  0.00  0.00    +0.000 A 
ATOM     17  C   UNL     1       2.044  17.235  17.716  0.00  0.00    +0.000 A 
ATOM     18  C   UNL     1       1.135  18.058  17.053  0.00  0.00    +0.000 A 
ATOM     19  C   UNL     1      -0.223  17.959  17.339  0.00  0.00    +0.000 A 
ATOM     20  C   UNL     1      -0.678  17.022  18.271  0.00  0.00    +0.000 A 
ENDBRANCH  13  15
ENDBRANCH   4  13
BRANCH   1  21
ATOM     21  O   UNL     1      -1.147  10.588  19.058  0.00  0.00    +0.000 OA
BRANCH  21  28
ATOM     22  C   UNL     1      -0.008   9.219  20.812  0.00  0.00    +0.000 C 
ATOM     23  C   UNL     1       1.349   8.538  21.139  0.00  0.00    +0.000 C 
ATOM     24  C   UNL     1       1.958   7.767  19.974  0.00  0.00    +0.000 C 
ATOM     25  C   UNL     1       2.115   8.658  18.749  0.00  0.00    +0.000 C 
ATOM     26  C   UNL     1       2.700   7.882  17.571  0.00  0.00    +0.000 C 
ATOM     27  C   UNL     1       0.765   9.263  18.373  0.00  0.00    +0.000 C 
ATOM     28  C   UNL     1       0.131  10.079  19.514  0.00  0.00    +0.000 C 
BRANCH  22  30
ATOM     29  C   UNL     1       0.055  11.469  22.078  0.00  0.00    +0.000 C 
ATOM     30  C   UNL     1      -0.496  10.031  22.063  0.00  0.00    +0.000 C 
ATOM     31  C   UNL     1      -0.136   9.379  23.399  0.00  0.00    +0.000 C 
ENDBRANCH  22  30
ENDBRANCH  21  28
ENDBRANCH   1  21
TORSDOF 6
ENDMDL
