MODEL 1
REMARK VINA RESULT:      -7.1      0.000      0.000
REMARK  Name = 
REMARK  9 active torsions:
REMARK  status: ('A' for Active; 'I' for Inactive)
REMARK    1  A    between atoms: C_1  and  O_2
REMARK    2  A    between atoms: O_2  and  P_3
REMARK    3  A    between atoms: P_3  and  C_4
REMARK    4  A    between atoms: P_3  and  O_6
REMARK    5  A    between atoms: O_6  and  C_7
REMARK    6  A    between atoms: C_7  and  C_8
REMARK    7  A    between atoms: C_10  and  N_11
REMARK    8  A    between atoms: C_21  and  O_22
REMARK    9  A    between atoms: C_23  and  O_24
REMARK                            x       y       z     vdW  Elec       q    Type
REMARK                         _______ _______ _______ _____ _____    ______ ____
ROOT
ATOM      1  C   UNL     1       4.474   4.802  17.675  0.00  0.00    +0.000 C 
ATOM      2  O   UNL     1       3.311   5.595  17.384  0.00  0.00    +0.000 OA
ATOM      3  C   UNL     1       2.644   5.921  18.623  0.00  0.00    +0.000 C 
ATOM      4  C   UNL     1       3.582   5.506  19.761  0.00  0.00    +0.000 C 
ATOM      5  C   UNL     1       4.310   4.332  19.121  0.00  0.00    +0.000 C 
ENDROOT
BRANCH   3   6
ATOM      6  N   UNL     1       2.316   7.329  18.620  0.00  0.00    +0.000 N 
ATOM      7  C   UNL     1       2.518   8.215  17.600  0.00  0.00    +0.000 A 
ATOM      8  N   UNL     1       2.070   9.417  17.889  0.00  0.00    +0.000 NA
ATOM      9  C   UNL     1       1.533   9.292  19.151  0.00  0.00    +0.000 A 
ATOM     10  C   UNL     1       0.874  10.202  19.997  0.00  0.00    +0.000 A 
ATOM     11  N   UNL     1       0.598  11.509  19.622  0.00  0.00    +0.000 N 
ATOM     12  N   UNL     1       0.500   9.786  21.228  0.00  0.00    +0.000 NA
ATOM     13  C   UNL     1       0.742   8.500  21.570  0.00  0.00    +0.000 A 
ATOM     14  N   UNL     1       1.324   7.528  20.834  0.00  0.00    +0.000 NA
ATOM     15  C   UNL     1       1.699   8.003  19.635  0.00  0.00    +0.000 A 
ATOM     16  H   UNL     1       1.167  11.842  18.853  0.00  0.00    +0.000 HD
ATOM     17  H   UNL     1       0.459  12.121  20.414  0.00  0.00    +0.000 HD
ENDBRANCH   3   6
BRANCH   4  18
ATOM     18  O   UNL     1       2.917   5.143  20.968  0.00  0.00    +0.000 OA
ATOM     19  H   UNL     1       2.196   4.520  20.778  0.00  0.00    +0.000 HD
ENDBRANCH   4  18
BRANCH   5  20
ATOM     20  O   UNL     1       5.545   4.013  19.742  0.00  0.00    +0.000 OA
ATOM     21  H   UNL     1       5.723   4.652  20.456  0.00  0.00    +0.000 HD
ENDBRANCH   5  20
BRANCH   1  22
ATOM     22  C   UNL     1       4.567   3.633  16.696  0.00  0.00    +0.000 C 
BRANCH  22  23
ATOM     23  O   UNL     1       5.821   3.629  16.005  0.00  0.00    +0.000 OA
BRANCH  23  24
ATOM     24  P   UNL     1       6.702   5.110  16.164  0.00  0.00    +0.000 P 
ATOM     25  C   UNL     1       7.085   5.102  14.328  0.00  0.00    +0.000 C 
ATOM     26  O   UNL     1       7.844   4.343  16.844  0.00  0.00    +0.000 OA
BRANCH  24  28
ATOM     27  C   UNL     1       7.181   7.361  17.449  0.00  0.00    +0.000 C 
ATOM     28  O   UNL     1       7.582   6.591  16.325  0.00  0.00    +0.000 OA
ENDBRANCH  24  28
ENDBRANCH  23  24
ENDBRANCH  22  23
ENDBRANCH   1  22
TORSDOF 7
ENDMDL
MODEL 2
REMARK VINA RESULT:      -7.1      4.124      7.005
REMARK  Name = 
REMARK  9 active torsions:
REMARK  status: ('A' for Active; 'I' for Inactive)
REMARK    1  A    between atoms: C_1  and  O_2
REMARK    2  A    between atoms: O_2  and  P_3
REMARK    3  A    between atoms: P_3  and  C_4
REMARK    4  A    between atoms: P_3  and  O_6
REMARK    5  A    between atoms: O_6  and  C_7
REMARK    6  A    between atoms: C_7  and  C_8
REMARK    7  A    between atoms: C_10  and  N_11
REMARK    8  A    between atoms: C_21  and  O_22
REMARK    9  A    between atoms: C_23  and  O_24
REMARK                            x       y       z     vdW  Elec       q    Type
REMARK                         _______ _______ _______ _____ _____    ______ ____
ROOT
ATOM      1  C   UNL     1       1.902   5.520  20.046  0.00  0.00    +0.000 C 
ATOM      2  O   UNL     1       3.203   5.824  19.516  0.00  0.00    +0.000 OA
ATOM      3  C   UNL     1       4.009   4.625  19.538  0.00  0.00    +0.000 C 
ATOM      4  C   UNL     1       3.074   3.461  19.879  0.00  0.00    +0.000 C 
ATOM      5  C   UNL     1       2.040   4.166  20.744  0.00  0.00    +0.000 C 
ENDROOT
BRANCH   3   6
ATOM      6  N   UNL     1       4.673   4.487  18.260  0.00  0.00    +0.000 N 
ATOM      7  C   UNL     1       4.350   3.614  17.260  0.00  0.00    +0.000 A 
ATOM      8  N   UNL     1       5.118   3.763  16.203  0.00  0.00    +0.000 NA
ATOM      9  C   UNL     1       5.963   4.800  16.533  0.00  0.00    +0.000 A 
ATOM     10  C   UNL     1       6.984   5.455  15.821  0.00  0.00    +0.000 A 
ATOM     11  N   UNL     1       7.303   5.142  14.508  0.00  0.00    +0.000 N 
ATOM     12  N   UNL     1       7.687   6.425  16.447  0.00  0.00    +0.000 NA
ATOM     13  C   UNL     1       7.345   6.748  17.717  0.00  0.00    +0.000 A 
ATOM     14  N   UNL     1       6.363   6.224  18.482  0.00  0.00    +0.000 NA
ATOM     15  C   UNL     1       5.718   5.248  17.822  0.00  0.00    +0.000 A 
ATOM     16  H   UNL     1       6.979   4.228  14.215  0.00  0.00    +0.000 HD
ATOM     17  H   UNL     1       8.242   5.419  14.258  0.00  0.00    +0.000 HD
ENDBRANCH   3   6
BRANCH   4  18
ATOM     18  O   UNL     1       3.706   2.379  20.557  0.00  0.00    +0.000 OA
ATOM     19  H   UNL     1       3.156   2.086  21.304  0.00  0.00    +0.000 HD
ENDBRANCH   4  18
BRANCH   5  20
ATOM     20  O   UNL     1       0.807   3.472  20.850  0.00  0.00    +0.000 OA
ATOM     21  H   UNL     1       0.681   3.175  21.770  0.00  0.00    +0.000 HD
ENDBRANCH   5  20
BRANCH   1  22
ATOM     22  C   UNL     1       1.460   6.622  21.008  0.00  0.00    +0.000 C 
BRANCH  22  23
ATOM     23  O   UNL     1       1.719   7.922  20.465  0.00  0.00    +0.000 OA
BRANCH  23  24
ATOM     24  P   UNL     1       1.124   9.213  21.452  0.00  0.00    +0.000 P 
ATOM     25  C   UNL     1      -0.500   8.307  21.692  0.00  0.00    +0.000 C 
ATOM     26  O   UNL     1       0.951  10.077  20.195  0.00  0.00    +0.000 OA
BRANCH  24  28
ATOM     27  C   UNL     1      -0.706  10.204  23.070  0.00  0.00    +0.000 C 
ATOM     28  O   UNL     1       0.531  10.504  22.438  0.00  0.00    +0.000 OA
ENDBRANCH  24  28
ENDBRANCH  23  24
ENDBRANCH  22  23
ENDBRANCH   1  22
TORSDOF 7
ENDMDL
MODEL 3
REMARK VINA RESULT:      -6.8      3.783      5.500
REMARK  Name = 
REMARK  9 active torsions:
REMARK  status: ('A' for Active; 'I' for Inactive)
REMARK    1  A    between atoms: C_1  and  O_2
REMARK    2  A    between atoms: O_2  and  P_3
REMARK    3  A    between atoms: P_3  and  C_4
REMARK    4  A    between atoms: P_3  and  O_6
REMARK    5  A    between atoms: O_6  and  C_7
REMARK    6  A    between atoms: C_7  and  C_8
REMARK    7  A    between atoms: C_10  and  N_11
REMARK    8  A    between atoms: C_21  and  O_22
REMARK    9  A    between atoms: C_23  and  O_24
REMARK                            x       y       z     vdW  Elec       q    Type
REMARK                         _______ _______ _______ _____ _____    ______ ____
ROOT
ATOM      1  C   UNL     1       5.876   5.344  15.502  0.00  0.00    +0.000 C 
ATOM      2  O   UNL     1       5.007   4.321  16.016  0.00  0.00    +0.000 OA
ATOM      3  C   UNL     1       5.359   4.057  17.392  0.00  0.00    +0.000 C 
ATOM      4  C   UNL     1       6.345   5.147  17.822  0.00  0.00    +0.000 C 
ATOM      5  C   UNL     1       7.031   5.453  16.498  0.00  0.00    +0.000 C 
ENDROOT
BRANCH   3   6
ATOM      6  N   UNL     1       4.150   4.017  18.184  0.00  0.00    +0.000 N 
ATOM      7  C   UNL     1       2.961   4.626  17.895  0.00  0.00    +0.000 A 
ATOM      8  N   UNL     1       2.036   4.362  18.792  0.00  0.00    +0.000 NA
ATOM      9  C   UNL     1       2.656   3.523  19.692  0.00  0.00    +0.000 A 
ATOM     10  C   UNL     1       2.199   2.869  20.850  0.00  0.00    +0.000 A 
ATOM     11  N   UNL     1       0.884   2.948  21.287  0.00  0.00    +0.000 N 
ATOM     12  N   UNL     1       3.080   2.137  21.569  0.00  0.00    +0.000 NA
ATOM     13  C   UNL     1       4.351   2.037  21.115  0.00  0.00    +0.000 A 
ATOM     14  N   UNL     1       4.892   2.579  20.003  0.00  0.00    +0.000 NA
ATOM     15  C   UNL     1       3.983   3.317  19.344  0.00  0.00    +0.000 A 
ATOM     16  H   UNL     1       0.376   3.739  20.909  0.00  0.00    +0.000 HD
ATOM     17  H   UNL     1       0.788   2.745  22.272  0.00  0.00    +0.000 HD
ENDBRANCH   3   6
BRANCH   4  18
ATOM     18  O   UNL     1       7.265   4.744  18.833  0.00  0.00    +0.000 OA
ATOM     19  H   UNL     1       6.802   4.640  19.682  0.00  0.00    +0.000 HD
ENDBRANCH   4  18
BRANCH   5  20
ATOM     20  O   UNL     1       7.674   6.718  16.461  0.00  0.00    +0.000 OA
ATOM     21  H   UNL     1       8.116   6.880  17.315  0.00  0.00    +0.000 HD
ENDBRANCH   5  20
BRANCH   1  22
ATOM     22  C   UNL     1       6.356   4.964  14.102  0.00  0.00    +0.000 C 
BRANCH  22  23
ATOM     23  O   UNL     1       5.391   4.152  13.422  0.00  0.00    +0.000 OA
BRANCH  23  24
ATOM     24  P   UNL     1       6.094   3.038  12.301  0.00  0.00    +0.000 P 
ATOM     25  C   UNL     1       7.328   4.339  11.751  0.00  0.00    +0.000 C 
ATOM     26  O   UNL     1       4.868   3.198  11.392  0.00  0.00    +0.000 OA
BRANCH  24  28
ATOM     27  C   UNL     1       6.124   0.671  11.140  0.00  0.00    +0.000 C 
ATOM     28  O   UNL     1       6.796   1.922  11.180  0.00  0.00    +0.000 OA
ENDBRANCH  24  28
ENDBRANCH  23  24
ENDBRANCH  22  23
ENDBRANCH   1  22
TORSDOF 7
ENDMDL
MODEL 4
REMARK VINA RESULT:      -6.7      1.493      2.292
REMARK  Name = 
REMARK  9 active torsions:
REMARK  status: ('A' for Active; 'I' for Inactive)
REMARK    1  A    between atoms: C_1  and  O_2
REMARK    2  A    between atoms: O_2  and  P_3
REMARK    3  A    between atoms: P_3  and  C_4
REMARK    4  A    between atoms: P_3  and  O_6
REMARK    5  A    between atoms: O_6  and  C_7
REMARK    6  A    between atoms: C_7  and  C_8
REMARK    7  A    between atoms: C_10  and  N_11
REMARK    8  A    between atoms: C_21  and  O_22
REMARK    9  A    between atoms: C_23  and  O_24
REMARK                            x       y       z     vdW  Elec       q    Type
REMARK                         _______ _______ _______ _____ _____    ______ ____
ROOT
ATOM      1  C   UNL     1       4.901   4.879  19.237  0.00  0.00    +0.000 C 
ATOM      2  O   UNL     1       4.193   6.078  18.880  0.00  0.00    +0.000 OA
ATOM      3  C   UNL     1       2.774   5.809  18.909  0.00  0.00    +0.000 C 
ATOM      4  C   UNL     1       2.590   4.431  19.550  0.00  0.00    +0.000 C 
ATOM      5  C   UNL     1       3.883   3.744  19.133  0.00  0.00    +0.000 C 
ENDROOT
BRANCH   3   6
ATOM      6  N   UNL     1       2.111   6.879  19.621  0.00  0.00    +0.000 N 
ATOM      7  C   UNL     1       1.622   6.834  20.896  0.00  0.00    +0.000 A 
ATOM      8  N   UNL     1       1.112   7.987  21.274  0.00  0.00    +0.000 NA
ATOM      9  C   UNL     1       1.304   8.820  20.194  0.00  0.00    +0.000 A 
ATOM     10  C   UNL     1       1.013  10.179  19.981  0.00  0.00    +0.000 A 
ATOM     11  N   UNL     1       0.459  10.991  20.961  0.00  0.00    +0.000 N 
ATOM     12  N   UNL     1       1.278  10.715  18.768  0.00  0.00    +0.000 NA
ATOM     13  C   UNL     1       1.851   9.925  17.830  0.00  0.00    +0.000 A 
ATOM     14  N   UNL     1       2.214   8.628  17.931  0.00  0.00    +0.000 NA
ATOM     15  C   UNL     1       1.902   8.141  19.143  0.00  0.00    +0.000 A 
ATOM     16  H   UNL     1       0.000  10.477  21.705  0.00  0.00    +0.000 HD
ATOM     17  H   UNL     1      -0.010  11.799  20.579  0.00  0.00    +0.000 HD
ENDBRANCH   3   6
BRANCH   4  18
ATOM     18  O   UNL     1       1.431   3.727  19.112  0.00  0.00    +0.000 OA
ATOM     19  H   UNL     1       1.080   4.135  18.301  0.00  0.00    +0.000 HD
ENDBRANCH   4  18
BRANCH   5  20
ATOM     20  O   UNL     1       4.223   2.621  19.932  0.00  0.00    +0.000 OA
ATOM     21  H   UNL     1       3.760   1.833  19.595  0.00  0.00    +0.000 HD
ENDBRANCH   5  20
BRANCH   1  22
ATOM     22  C   UNL     1       6.088   4.676  18.296  0.00  0.00    +0.000 C 
BRANCH  22  23
ATOM     23  O   UNL     1       5.653   4.422  16.955  0.00  0.00    +0.000 OA
BRANCH  23  24
ATOM     24  P   UNL     1       6.741   5.023  15.751  0.00  0.00    +0.000 P 
ATOM     25  C   UNL     1       6.126   3.740  14.528  0.00  0.00    +0.000 C 
ATOM     26  O   UNL     1       7.911   4.373  16.502  0.00  0.00    +0.000 OA
BRANCH  24  28
ATOM     27  C   UNL     1       7.598   5.074  13.258  0.00  0.00    +0.000 C 
ATOM     28  O   UNL     1       7.829   5.624  14.548  0.00  0.00    +0.000 OA
ENDBRANCH  24  28
ENDBRANCH  23  24
ENDBRANCH  22  23
ENDBRANCH   1  22
TORSDOF 7
ENDMDL
MODEL 5
REMARK VINA RESULT:      -6.7      3.591      5.404
REMARK  Name = 
REMARK  9 active torsions:
REMARK  status: ('A' for Active; 'I' for Inactive)
REMARK    1  A    between atoms: C_1  and  O_2
REMARK    2  A    between atoms: O_2  and  P_3
REMARK    3  A    between atoms: P_3  and  C_4
REMARK    4  A    between atoms: P_3  and  O_6
REMARK    5  A    between atoms: O_6  and  C_7
REMARK    6  A    between atoms: C_7  and  C_8
REMARK    7  A    between atoms: C_10  and  N_11
REMARK    8  A    between atoms: C_21  and  O_22
REMARK    9  A    between atoms: C_23  and  O_24
REMARK                            x       y       z     vdW  Elec       q    Type
REMARK                         _______ _______ _______ _____ _____    ______ ____
ROOT
ATOM      1  C   UNL     1       6.073   5.329  15.743  0.00  0.00    +0.000 C 
ATOM      2  O   UNL     1       5.265   4.363  16.437  0.00  0.00    +0.000 OA
ATOM      3  C   UNL     1       5.687   4.306  17.817  0.00  0.00    +0.000 C 
ATOM      4  C   UNL     1       6.651   5.474  18.042  0.00  0.00    +0.000 C 
ATOM      5  C   UNL     1       7.266   5.611  16.656  0.00  0.00    +0.000 C 
ENDROOT
BRANCH   3   6
ATOM      6  N   UNL     1       4.516   4.343  18.665  0.00  0.00    +0.000 N 
ATOM      7  C   UNL     1       4.185   5.319  19.562  0.00  0.00    +0.000 A 
ATOM      8  N   UNL     1       3.031   5.084  20.149  0.00  0.00    +0.000 NA
ATOM      9  C   UNL     1       2.588   3.909  19.583  0.00  0.00    +0.000 A 
ATOM     10  C   UNL     1       1.415   3.155  19.759  0.00  0.00    +0.000 A 
ATOM     11  N   UNL     1       0.386   3.554  20.601  0.00  0.00    +0.000 N 
ATOM     12  N   UNL     1       1.288   1.991  19.085  0.00  0.00    +0.000 NA
ATOM     13  C   UNL     1       2.280   1.628  18.239  0.00  0.00    +0.000 A 
ATOM     14  N   UNL     1       3.426   2.286  17.957  0.00  0.00    +0.000 NA
ATOM     15  C   UNL     1       3.512   3.417  18.674  0.00  0.00    +0.000 A 
ATOM     16  H   UNL     1       0.668   4.235  21.296  0.00  0.00    +0.000 HD
ATOM     17  H   UNL     1      -0.198   2.783  20.896  0.00  0.00    +0.000 HD
ENDBRANCH   3   6
BRANCH   4  18
ATOM     18  O   UNL     1       7.629   5.245  19.053  0.00  0.00    +0.000 OA
ATOM     19  H   UNL     1       7.199   5.174  19.923  0.00  0.00    +0.000 HD
ENDBRANCH   4  18
BRANCH   5  20
ATOM     20  O   UNL     1       7.862   6.875  16.412  0.00  0.00    +0.000 OA
ATOM     21  H   UNL     1       8.819   6.759  16.266  0.00  0.00    +0.000 HD
ENDBRANCH   5  20
BRANCH   1  22
ATOM     22  C   UNL     1       6.504   4.769  14.388  0.00  0.00    +0.000 C 
BRANCH  22  23
ATOM     23  O   UNL     1       5.372   4.438  13.576  0.00  0.00    +0.000 OA
BRANCH  23  24
ATOM     24  P   UNL     1       5.652   3.103  12.512  0.00  0.00    +0.000 P 
ATOM     25  C   UNL     1       7.148   3.969  11.787  0.00  0.00    +0.000 C 
ATOM     26  O   UNL     1       4.450   3.542  11.665  0.00  0.00    +0.000 OA
BRANCH  24  28
ATOM     27  C   UNL     1       7.278   1.674  11.007  0.00  0.00    +0.000 C 
ATOM     28  O   UNL     1       5.930   1.767  11.449  0.00  0.00    +0.000 OA
ENDBRANCH  24  28
ENDBRANCH  23  24
ENDBRANCH  22  23
ENDBRANCH   1  22
TORSDOF 7
ENDMDL
MODEL 6
REMARK VINA RESULT:      -6.7      1.529      2.634
REMARK  Name = 
REMARK  9 active torsions:
REMARK  status: ('A' for Active; 'I' for Inactive)
REMARK    1  A    between atoms: C_1  and  O_2
REMARK    2  A    between atoms: O_2  and  P_3
REMARK    3  A    between atoms: P_3  and  C_4
REMARK    4  A    between atoms: P_3  and  O_6
REMARK    5  A    between atoms: O_6  and  C_7
REMARK    6  A    between atoms: C_7  and  C_8
REMARK    7  A    between atoms: C_10  and  N_11
REMARK    8  A    between atoms: C_21  and  O_22
REMARK    9  A    between atoms: C_23  and  O_24
REMARK                            x       y       z     vdW  Elec       q    Type
REMARK                         _______ _______ _______ _____ _____    ______ ____
ROOT
ATOM      1  C   UNL     1       5.454   4.891  19.055  0.00  0.00    +0.000 C 
ATOM      2  O   UNL     1       4.587   5.983  18.709  0.00  0.00    +0.000 OA
ATOM      3  C   UNL     1       3.217   5.527  18.758  0.00  0.00    +0.000 C 
ATOM      4  C   UNL     1       3.228   4.138  19.403  0.00  0.00    +0.000 C 
ATOM      5  C   UNL     1       4.595   3.629  18.967  0.00  0.00    +0.000 C 
ENDROOT
BRANCH   3   6
ATOM      6  N   UNL     1       2.426   6.500  19.479  0.00  0.00    +0.000 N 
ATOM      7  C   UNL     1       1.884   6.354  20.725  0.00  0.00    +0.000 A 
ATOM      8  N   UNL     1       1.255   7.438  21.124  0.00  0.00    +0.000 NA
ATOM      9  C   UNL     1       1.421   8.334  20.091  0.00  0.00    +0.000 A 
ATOM     10  C   UNL     1       1.019   9.671  19.920  0.00  0.00    +0.000 A 
ATOM     11  N   UNL     1       0.348  10.384  20.904  0.00  0.00    +0.000 N 
ATOM     12  N   UNL     1       1.292  10.283  18.746  0.00  0.00    +0.000 NA
ATOM     13  C   UNL     1       1.977   9.591  17.806  0.00  0.00    +0.000 A 
ATOM     14  N   UNL     1       2.451   8.327  17.871  0.00  0.00    +0.000 NA
ATOM     15  C   UNL     1       2.127   7.760  19.045  0.00  0.00    +0.000 A 
ATOM     16  H   UNL     1      -0.097   9.798  21.601  0.00  0.00    +0.000 HD
ATOM     17  H   UNL     1      -0.173  11.165  20.532  0.00  0.00    +0.000 HD
ENDBRANCH   3   6
BRANCH   4  18
ATOM     18  O   UNL     1       2.168   3.285  18.982  0.00  0.00    +0.000 OA
ATOM     19  H   UNL     1       2.266   2.406  19.387  0.00  0.00    +0.000 HD
ENDBRANCH   4  18
BRANCH   5  20
ATOM     20  O   UNL     1       5.094   2.565  19.762  0.00  0.00    +0.000 OA
ATOM     21  H   UNL     1       6.056   2.673  19.879  0.00  0.00    +0.000 HD
ENDBRANCH   5  20
BRANCH   1  22
ATOM     22  C   UNL     1       6.644   4.846  18.097  0.00  0.00    +0.000 C 
BRANCH  22  23
ATOM     23  O   UNL     1       6.478   5.771  17.016  0.00  0.00    +0.000 OA
BRANCH  23  24
ATOM     24  P   UNL     1       5.796   5.058  15.595  0.00  0.00    +0.000 P 
ATOM     25  C   UNL     1       7.500   4.920  14.824  0.00  0.00    +0.000 C 
ATOM     26  O   UNL     1       5.249   6.431  15.184  0.00  0.00    +0.000 OA
BRANCH  24  28
ATOM     27  C   UNL     1       6.086   3.770  13.314  0.00  0.00    +0.000 C 
ATOM     28  O   UNL     1       5.113   4.345  14.175  0.00  0.00    +0.000 OA
ENDBRANCH  24  28
ENDBRANCH  23  24
ENDBRANCH  22  23
ENDBRANCH   1  22
TORSDOF 7
ENDMDL
MODEL 7
REMARK VINA RESULT:      -6.7      3.933      7.153
REMARK  Name = 
REMARK  9 active torsions:
REMARK  status: ('A' for Active; 'I' for Inactive)
REMARK    1  A    between atoms: C_1  and  O_2
REMARK    2  A    between atoms: O_2  and  P_3
REMARK    3  A    between atoms: P_3  and  C_4
REMARK    4  A    between atoms: P_3  and  O_6
REMARK    5  A    between atoms: O_6  and  C_7
REMARK    6  A    between atoms: C_7  and  C_8
REMARK    7  A    between atoms: C_10  and  N_11
REMARK    8  A    between atoms: C_21  and  O_22
REMARK    9  A    between atoms: C_23  and  O_24
REMARK                            x       y       z     vdW  Elec       q    Type
REMARK                         _______ _______ _______ _____ _____    ______ ____
ROOT
ATOM      1  C   UNL     1       1.614   6.173  20.168  0.00  0.00    +0.000 C 
ATOM      2  O   UNL     1       2.853   6.695  19.659  0.00  0.00    +0.000 OA
ATOM      3  C   UNL     1       3.798   5.611  19.525  0.00  0.00    +0.000 C 
ATOM      4  C   UNL     1       3.022   4.309  19.740  0.00  0.00    +0.000 C 
ATOM      5  C   UNL     1       1.935   4.775  20.698  0.00  0.00    +0.000 C 
ENDROOT
BRANCH   3   6
ATOM      6  N   UNL     1       4.437   5.705  18.231  0.00  0.00    +0.000 N 
ATOM      7  C   UNL     1       3.949   6.336  17.121  0.00  0.00    +0.000 A 
ATOM      8  N   UNL     1       4.789   6.282  16.110  0.00  0.00    +0.000 NA
ATOM      9  C   UNL     1       5.881   5.602  16.603  0.00  0.00    +0.000 A 
ATOM     10  C   UNL     1       7.116   5.251  16.031  0.00  0.00    +0.000 A 
ATOM     11  N   UNL     1       7.479   5.619  14.743  0.00  0.00    +0.000 N 
ATOM     12  N   UNL     1       7.983   4.519  16.767  0.00  0.00    +0.000 NA
ATOM     13  C   UNL     1       7.636   4.196  18.034  0.00  0.00    +0.000 A 
ATOM     14  N   UNL     1       6.504   4.511  18.702  0.00  0.00    +0.000 NA
ATOM     15  C   UNL     1       5.670   5.211  17.916  0.00  0.00    +0.000 A 
ATOM     16  H   UNL     1       6.694   5.871  14.154  0.00  0.00    +0.000 HD
ATOM     17  H   UNL     1       8.196   5.022  14.355  0.00  0.00    +0.000 HD
ENDBRANCH   3   6
BRANCH   4  18
ATOM     18  O   UNL     1       3.800   3.241  20.275  0.00  0.00    +0.000 OA
ATOM     19  H   UNL     1       4.137   3.482  21.155  0.00  0.00    +0.000 HD
ENDBRANCH   4  18
BRANCH   5  20
ATOM     20  O   UNL     1       0.799   3.926  20.738  0.00  0.00    +0.000 OA
ATOM     21  H   UNL     1       1.073   3.010  20.545  0.00  0.00    +0.000 HD
ENDBRANCH   5  20
BRANCH   1  22
ATOM     22  C   UNL     1       1.071   7.093  21.261  0.00  0.00    +0.000 C 
BRANCH  22  23
ATOM     23  O   UNL     1       1.239   8.472  20.912  0.00  0.00    +0.000 OA
BRANCH  23  24
ATOM     24  P   UNL     1       0.502   9.563  22.036  0.00  0.00    +0.000 P 
ATOM     25  C   UNL     1       0.614  10.956  20.785  0.00  0.00    +0.000 C 
ATOM     26  O   UNL     1       1.810   9.601  22.838  0.00  0.00    +0.000 OA
BRANCH  24  28
ATOM     27  C   UNL     1      -0.798  11.800  22.540  0.00  0.00    +0.000 C 
ATOM     28  O   UNL     1      -0.235  10.652  23.159  0.00  0.00    +0.000 OA
ENDBRANCH  24  28
ENDBRANCH  23  24
ENDBRANCH  22  23
ENDBRANCH   1  22
TORSDOF 7
ENDMDL
MODEL 8
REMARK VINA RESULT:      -6.6      3.886      7.025
REMARK  Name = 
REMARK  9 active torsions:
REMARK  status: ('A' for Active; 'I' for Inactive)
REMARK    1  A    between atoms: C_1  and  O_2
REMARK    2  A    between atoms: O_2  and  P_3
REMARK    3  A    between atoms: P_3  and  C_4
REMARK    4  A    between atoms: P_3  and  O_6
REMARK    5  A    between atoms: O_6  and  C_7
REMARK    6  A    between atoms: C_7  and  C_8
REMARK    7  A    between atoms: C_10  and  N_11
REMARK    8  A    between atoms: C_21  and  O_22
REMARK    9  A    between atoms: C_23  and  O_24
REMARK                            x       y       z     vdW  Elec       q    Type
REMARK                         _______ _______ _______ _____ _____    ______ ____
ROOT
ATOM      1  C   UNL     1       2.698   5.379  19.396  0.00  0.00    +0.000 C 
ATOM      2  O   UNL     1       3.904   6.131  19.183  0.00  0.00    +0.000 OA
ATOM      3  C   UNL     1       5.026   5.220  19.161  0.00  0.00    +0.000 C 
ATOM      4  C   UNL     1       4.452   3.801  19.121  0.00  0.00    +0.000 C 
ATOM      5  C   UNL     1       3.145   3.997  19.875  0.00  0.00    +0.000 C 
ENDROOT
BRANCH   3   6
ATOM      6  N   UNL     1       5.867   5.543  18.029  0.00  0.00    +0.000 N 
ATOM      7  C   UNL     1       6.900   6.437  18.006  0.00  0.00    +0.000 A 
ATOM      8  N   UNL     1       7.500   6.472  16.836  0.00  0.00    +0.000 NA
ATOM      9  C   UNL     1       6.833   5.536  16.077  0.00  0.00    +0.000 A 
ATOM     10  C   UNL     1       7.015   5.080  14.759  0.00  0.00    +0.000 A 
ATOM     11  N   UNL     1       8.043   5.531  13.944  0.00  0.00    +0.000 N 
ATOM     12  N   UNL     1       6.146   4.170  14.265  0.00  0.00    +0.000 NA
ATOM     13  C   UNL     1       5.168   3.709  15.080  0.00  0.00    +0.000 A 
ATOM     14  N   UNL     1       4.922   4.037  16.367  0.00  0.00    +0.000 NA
ATOM     15  C   UNL     1       5.795   4.964  16.795  0.00  0.00    +0.000 A 
ATOM     16  H   UNL     1       8.444   6.413  14.242  0.00  0.00    +0.000 HD
ATOM     17  H   UNL     1       7.847   5.404  12.961  0.00  0.00    +0.000 HD
ENDBRANCH   3   6
BRANCH   4  18
ATOM     18  O   UNL     1       5.285   2.812  19.720  0.00  0.00    +0.000 OA
ATOM     19  H   UNL     1       6.161   3.188  19.917  0.00  0.00    +0.000 HD
ENDBRANCH   4  18
BRANCH   5  20
ATOM     20  O   UNL     1       2.179   2.988  19.627  0.00  0.00    +0.000 OA
ATOM     21  H   UNL     1       1.606   3.263  18.887  0.00  0.00    +0.000 HD
ENDBRANCH   5  20
BRANCH   1  22
ATOM     22  C   UNL     1       1.817   6.088  20.423  0.00  0.00    +0.000 C 
BRANCH  22  23
ATOM     23  O   UNL     1       2.132   7.483  20.506  0.00  0.00    +0.000 OA
BRANCH  23  24
ATOM     24  P   UNL     1       0.846   8.445  21.150  0.00  0.00    +0.000 P 
ATOM     25  C   UNL     1       0.908   9.567  19.648  0.00  0.00    +0.000 C 
ATOM     26  O   UNL     1       1.822   9.043  22.172  0.00  0.00    +0.000 OA
BRANCH  24  28
ATOM     27  C   UNL     1      -0.332   9.619  23.195  0.00  0.00    +0.000 C 
ATOM     28  O   UNL     1      -0.440   9.405  21.795  0.00  0.00    +0.000 OA
ENDBRANCH  24  28
ENDBRANCH  23  24
ENDBRANCH  22  23
ENDBRANCH   1  22
TORSDOF 7
ENDMDL
MODEL 9
REMARK VINA RESULT:      -6.6      2.456      3.877
REMARK  Name = 
REMARK  9 active torsions:
REMARK  status: ('A' for Active; 'I' for Inactive)
REMARK    1  A    between atoms: C_1  and  O_2
REMARK    2  A    between atoms: O_2  and  P_3
REMARK    3  A    between atoms: P_3  and  C_4
REMARK    4  A    between atoms: P_3  and  O_6
REMARK    5  A    between atoms: O_6  and  C_7
REMARK    6  A    between atoms: C_7  and  C_8
REMARK    7  A    between atoms: C_10  and  N_11
REMARK    8  A    between atoms: C_21  and  O_22
REMARK    9  A    between atoms: C_23  and  O_24
REMARK                            x       y       z     vdW  Elec       q    Type
REMARK                         _______ _______ _______ _____ _____    ______ ____
ROOT
ATOM      1  C   UNL     1       6.471   5.371  15.751  0.00  0.00    +0.000 C 
ATOM      2  O   UNL     1       5.082   5.715  15.891  0.00  0.00    +0.000 OA
ATOM      3  C   UNL     1       4.576   5.130  17.111  0.00  0.00    +0.000 C 
ATOM      4  C   UNL     1       5.782   4.592  17.886  0.00  0.00    +0.000 C 
ATOM      5  C   UNL     1       6.724   4.237  16.745  0.00  0.00    +0.000 C 
ENDROOT
BRANCH   3   6
ATOM      6  N   UNL     1       3.817   6.130  17.828  0.00  0.00    +0.000 N 
ATOM      7  C   UNL     1       3.650   7.440  17.476  0.00  0.00    +0.000 A 
ATOM      8  N   UNL     1       2.866   8.083  18.314  0.00  0.00    +0.000 NA
ATOM      9  C   UNL     1       2.492   7.132  19.238  0.00  0.00    +0.000 A 
ATOM     10  C   UNL     1       1.643   7.180  20.358  0.00  0.00    +0.000 A 
ATOM     11  N   UNL     1       0.938   8.320  20.717  0.00  0.00    +0.000 N 
ATOM     12  N   UNL     1       1.515   6.070  21.119  0.00  0.00    +0.000 NA
ATOM     13  C   UNL     1       2.178   4.953  20.740  0.00  0.00    +0.000 A 
ATOM     14  N   UNL     1       2.982   4.775  19.669  0.00  0.00    +0.000 NA
ATOM     15  C   UNL     1       3.096   5.914  18.967  0.00  0.00    +0.000 A 
ATOM     16  H   UNL     1       1.312   9.174  20.320  0.00  0.00    +0.000 HD
ATOM     17  H   UNL     1       0.672   8.323  21.692  0.00  0.00    +0.000 HD
ENDBRANCH   3   6
BRANCH   4  18
ATOM     18  O   UNL     1       5.493   3.477  18.724  0.00  0.00    +0.000 OA
ATOM     19  H   UNL     1       6.309   2.983  18.916  0.00  0.00    +0.000 HD
ENDBRANCH   4  18
BRANCH   5  20
ATOM     20  O   UNL     1       8.085   4.135  17.131  0.00  0.00    +0.000 OA
ATOM     21  H   UNL     1       8.566   3.591  16.480  0.00  0.00    +0.000 HD
ENDBRANCH   5  20
BRANCH   1  22
ATOM     22  C   UNL     1       6.760   4.950  14.310  0.00  0.00    +0.000 C 
BRANCH  22  23
ATOM     23  O   UNL     1       5.754   4.058  13.816  0.00  0.00    +0.000 OA
BRANCH  23  24
ATOM     24  P   UNL     1       6.294   3.070  12.502  0.00  0.00    +0.000 P 
ATOM     25  C   UNL     1       7.385   4.461  11.878  0.00  0.00    +0.000 C 
ATOM     26  O   UNL     1       4.931   3.255  11.820  0.00  0.00    +0.000 OA
BRANCH  24  28
ATOM     27  C   UNL     1       6.076   0.887  11.040  0.00  0.00    +0.000 C 
ATOM     28  O   UNL     1       6.832   2.081  11.189  0.00  0.00    +0.000 OA
ENDBRANCH  24  28
ENDBRANCH  23  24
ENDBRANCH  22  23
ENDBRANCH   1  22
TORSDOF 7
ENDMDL
