MODEL 1
REMARK VINA RESULT:      -6.5      0.000      0.000
REMARK  Name = 
REMARK  6 active torsions:
REMARK  status: ('A' for Active; 'I' for Inactive)
REMARK    1  A    between atoms: C_1  and  C_2
REMARK    2  A    between atoms: C_5  and  S_6
REMARK    3  A    between atoms: S_6  and  C_7
REMARK    4  A    between atoms: C_7  and  C_8
REMARK    5  A    between atoms: N_10  and  N_11
REMARK    6  A    between atoms: C_12  and  C_14
REMARK                            x       y       z     vdW  Elec       q    Type
REMARK                         _______ _______ _______ _____ _____    ______ ____
ROOT
ATOM      1  C   UNL     1       1.843   3.907  20.541  0.00  0.00    +0.000 C 
ATOM      2  O   UNL     1       0.648   3.970  20.261  0.00  0.00    +0.000 OA
ATOM      3  N   UNL     1       2.581   5.011  20.921  0.00  0.00    +0.000 N 
ATOM      4  H   UNL     1       3.604   5.013  20.955  0.00  0.00    +0.000 HD
ENDROOT
BRANCH   3   5
ATOM      5  N   UNL     1       1.957   6.261  20.859  0.00  0.00    +0.000 N 
ATOM      6  C   UNL     1       2.227   7.119  19.809  0.00  0.00    +0.000 C 
ATOM      7  O   UNL     1       2.954   6.799  18.870  0.00  0.00    +0.000 OA
ATOM      8  H   UNL     1       1.330   6.525  21.618  0.00  0.00    +0.000 HD
BRANCH   6   9
ATOM      9  C   UNL     1       1.586   8.411  19.929  0.00  0.00    +0.000 A 
ATOM     10  C   UNL     1       0.945   9.015  20.993  0.00  0.00    +0.000 A 
ATOM     11  C   UNL     1       0.490  10.276  20.534  0.00  0.00    +0.000 A 
ATOM     12  C   UNL     1       0.878  10.365  19.218  0.00  0.00    +0.000 A 
ATOM     13  O   UNL     1       1.546   9.245  18.840  0.00  0.00    +0.000 OA
ENDBRANCH   6   9
ENDBRANCH   3   5
BRANCH   1  14
ATOM     14  C   UNL     1       2.630   2.609  20.506  0.00  0.00    +0.000 C 
BRANCH  14  15
ATOM     15  S   UNL     1       3.110   2.177  18.816  0.00  0.00    +0.000 S 
BRANCH  15  20
ATOM     16  C   UNL     1       6.860   5.680  16.754  0.00  0.00    +0.000 C 
ATOM     17  C   UNL     1       6.025   4.792  17.607  0.00  0.00    +0.000 A 
ATOM     18  N   UNL     1       6.202   4.580  18.898  0.00  0.00    +0.000 NA
ATOM     19  N   UNL     1       5.254   3.710  19.417  0.00  0.00    +0.000 NA
ATOM     20  C   UNL     1       4.415   3.294  18.498  0.00  0.00    +0.000 A 
ATOM     21  S   UNL     1       4.705   3.933  16.933  0.00  0.00    +0.000 S 
ENDBRANCH  15  20
ENDBRANCH  14  15
ENDBRANCH   1  14
TORSDOF 5
ENDMDL
MODEL 2
REMARK VINA RESULT:      -6.2      1.291      1.478
REMARK  Name = 
REMARK  6 active torsions:
REMARK  status: ('A' for Active; 'I' for Inactive)
REMARK    1  A    between atoms: C_1  and  C_2
REMARK    2  A    between atoms: C_5  and  S_6
REMARK    3  A    between atoms: S_6  and  C_7
REMARK    4  A    between atoms: C_7  and  C_8
REMARK    5  A    between atoms: N_10  and  N_11
REMARK    6  A    between atoms: C_12  and  C_14
REMARK                            x       y       z     vdW  Elec       q    Type
REMARK                         _______ _______ _______ _____ _____    ______ ____
ROOT
ATOM      1  C   UNL     1       2.145   4.073  19.773  0.00  0.00    +0.000 C 
ATOM      2  O   UNL     1       0.934   4.119  19.570  0.00  0.00    +0.000 OA
ATOM      3  N   UNL     1       2.824   5.049  20.476  0.00  0.00    +0.000 N 
ATOM      4  H   UNL     1       3.844   5.130  20.473  0.00  0.00    +0.000 HD
ENDROOT
BRANCH   3   5
ATOM      5  N   UNL     1       2.110   6.189  20.856  0.00  0.00    +0.000 N 
ATOM      6  C   UNL     1       2.079   7.297  20.029  0.00  0.00    +0.000 C 
ATOM      7  O   UNL     1       2.607   7.301  18.918  0.00  0.00    +0.000 OA
ATOM      8  H   UNL     1       1.644   6.186  21.763  0.00  0.00    +0.000 HD
BRANCH   6   9
ATOM      9  C   UNL     1       1.385   8.433  20.596  0.00  0.00    +0.000 A 
ATOM     10  C   UNL     1       0.759   9.510  19.999  0.00  0.00    +0.000 A 
ATOM     11  C   UNL     1       0.267  10.328  21.046  0.00  0.00    +0.000 A 
ATOM     12  C   UNL     1       0.622   9.704  22.217  0.00  0.00    +0.000 A 
ATOM     13  O   UNL     1       1.296   8.554  21.961  0.00  0.00    +0.000 OA
ENDBRANCH   6   9
ENDBRANCH   3   5
BRANCH   1  14
ATOM     14  C   UNL     1       3.020   2.934  19.279  0.00  0.00    +0.000 C 
BRANCH  14  15
ATOM     15  S   UNL     1       3.704   3.293  17.643  0.00  0.00    +0.000 S 
BRANCH  15  20
ATOM     16  C   UNL     1       7.680   7.131  17.837  0.00  0.00    +0.000 C 
ATOM     17  C   UNL     1       6.745   6.004  18.093  0.00  0.00    +0.000 A 
ATOM     18  N   UNL     1       6.756   5.225  19.159  0.00  0.00    +0.000 NA
ATOM     19  N   UNL     1       5.751   4.269  19.115  0.00  0.00    +0.000 NA
ATOM     20  C   UNL     1       5.037   4.358  18.017  0.00  0.00    +0.000 A 
ATOM     21  S   UNL     1       5.523   5.614  16.956  0.00  0.00    +0.000 S 
ENDBRANCH  15  20
ENDBRANCH  14  15
ENDBRANCH   1  14
TORSDOF 5
ENDMDL
MODEL 3
REMARK VINA RESULT:      -6.2      4.199      7.596
REMARK  Name = 
REMARK  6 active torsions:
REMARK  status: ('A' for Active; 'I' for Inactive)
REMARK    1  A    between atoms: C_1  and  C_2
REMARK    2  A    between atoms: C_5  and  S_6
REMARK    3  A    between atoms: S_6  and  C_7
REMARK    4  A    between atoms: C_7  and  C_8
REMARK    5  A    between atoms: N_10  and  N_11
REMARK    6  A    between atoms: C_12  and  C_14
REMARK                            x       y       z     vdW  Elec       q    Type
REMARK                         _______ _______ _______ _____ _____    ______ ____
ROOT
ATOM      1  C   UNL     1       6.302   6.000  16.461  0.00  0.00    +0.000 C 
ATOM      2  O   UNL     1       5.207   6.269  15.973  0.00  0.00    +0.000 OA
ATOM      3  N   UNL     1       7.114   4.996  15.968  0.00  0.00    +0.000 N 
ATOM      4  H   UNL     1       7.918   4.627  16.483  0.00  0.00    +0.000 HD
ENDROOT
BRANCH   3   5
ATOM      5  N   UNL     1       6.598   4.185  14.954  0.00  0.00    +0.000 N 
ATOM      6  C   UNL     1       6.885   4.462  13.630  0.00  0.00    +0.000 C 
ATOM      7  O   UNL     1       7.647   5.370  13.300  0.00  0.00    +0.000 OA
ATOM      8  H   UNL     1       5.989   3.411  15.218  0.00  0.00    +0.000 HD
BRANCH   6   9
ATOM      9  C   UNL     1       6.205   3.599  12.689  0.00  0.00    +0.000 A 
ATOM     10  C   UNL     1       6.661   2.539  11.929  0.00  0.00    +0.000 A 
ATOM     11  C   UNL     1       5.559   2.076  11.170  0.00  0.00    +0.000 A 
ATOM     12  C   UNL     1       4.497   2.880  11.509  0.00  0.00    +0.000 A 
ATOM     13  O   UNL     1       4.872   3.804  12.430  0.00  0.00    +0.000 OA
ENDBRANCH   6   9
ENDBRANCH   3   5
BRANCH   1  14
ATOM     14  C   UNL     1       6.879   6.745  17.651  0.00  0.00    +0.000 C 
BRANCH  14  15
ATOM     15  S   UNL     1       7.089   5.648  19.075  0.00  0.00    +0.000 S 
BRANCH  15  20
ATOM     16  C   UNL     1       1.767   4.203  19.489  0.00  0.00    +0.000 C 
ATOM     17  C   UNL     1       3.248   4.246  19.360  0.00  0.00    +0.000 A 
ATOM     18  N   UNL     1       4.040   3.196  19.245  0.00  0.00    +0.000 NA
ATOM     19  N   UNL     1       5.374   3.559  19.130  0.00  0.00    +0.000 NA
ATOM     20  C   UNL     1       5.533   4.861  19.176  0.00  0.00    +0.000 A 
ATOM     21  S   UNL     1       4.075   5.747  19.354  0.00  0.00    +0.000 S 
ENDBRANCH  15  20
ENDBRANCH  14  15
ENDBRANCH   1  14
TORSDOF 5
ENDMDL
MODEL 4
REMARK VINA RESULT:      -6.2      2.075      2.631
REMARK  Name = 
REMARK  6 active torsions:
REMARK  status: ('A' for Active; 'I' for Inactive)
REMARK    1  A    between atoms: C_1  and  C_2
REMARK    2  A    between atoms: C_5  and  S_6
REMARK    3  A    between atoms: S_6  and  C_7
REMARK    4  A    between atoms: C_7  and  C_8
REMARK    5  A    between atoms: N_10  and  N_11
REMARK    6  A    between atoms: C_12  and  C_14
REMARK                            x       y       z     vdW  Elec       q    Type
REMARK                         _______ _______ _______ _____ _____    ______ ____
ROOT
ATOM      1  C   UNL     1       3.268   4.983  19.002  0.00  0.00    +0.000 C 
ATOM      2  O   UNL     1       2.204   4.699  18.457  0.00  0.00    +0.000 OA
ATOM      3  N   UNL     1       3.440   6.132  19.750  0.00  0.00    +0.000 N 
ATOM      4  H   UNL     1       4.361   6.481  20.031  0.00  0.00    +0.000 HD
ENDROOT
BRANCH   3   5
ATOM      5  N   UNL     1       2.391   7.056  19.771  0.00  0.00    +0.000 N 
ATOM      6  C   UNL     1       2.334   8.063  18.826  0.00  0.00    +0.000 C 
ATOM      7  O   UNL     1       3.144   8.144  17.904  0.00  0.00    +0.000 OA
ATOM      8  H   UNL     1       1.698   6.980  20.515  0.00  0.00    +0.000 HD
BRANCH   6   9
ATOM      9  C   UNL     1       1.250   8.999  19.032  0.00  0.00    +0.000 A 
ATOM     10  C   UNL     1       0.504   9.742  18.138  0.00  0.00    +0.000 A 
ATOM     11  C   UNL     1      -0.412  10.505  18.903  0.00  0.00    +0.000 A 
ATOM     12  C   UNL     1      -0.169  10.185  20.217  0.00  0.00    +0.000 A 
ATOM     13  O   UNL     1       0.831   9.272  20.311  0.00  0.00    +0.000 OA
ENDBRANCH   6   9
ENDBRANCH   3   5
BRANCH   1  14
ATOM     14  C   UNL     1       4.499   4.099  18.919  0.00  0.00    +0.000 C 
BRANCH  14  15
ATOM     15  S   UNL     1       6.006   5.086  18.745  0.00  0.00    +0.000 S 
BRANCH  15  20
ATOM     16  C   UNL     1       6.263   3.884  13.353  0.00  0.00    +0.000 C 
ATOM     17  C   UNL     1       6.493   4.375  14.738  0.00  0.00    +0.000 A 
ATOM     18  N   UNL     1       7.517   5.109  15.131  0.00  0.00    +0.000 NA
ATOM     19  N   UNL     1       7.447   5.420  16.481  0.00  0.00    +0.000 NA
ATOM     20  C   UNL     1       6.385   4.898  17.050  0.00  0.00    +0.000 A 
ATOM     21  S   UNL     1       5.384   3.997  15.988  0.00  0.00    +0.000 S 
ENDBRANCH  15  20
ENDBRANCH  14  15
ENDBRANCH   1  14
TORSDOF 5
ENDMDL
MODEL 5
REMARK VINA RESULT:      -6.1      1.294      1.648
REMARK  Name = 
REMARK  6 active torsions:
REMARK  status: ('A' for Active; 'I' for Inactive)
REMARK    1  A    between atoms: C_1  and  C_2
REMARK    2  A    between atoms: C_5  and  S_6
REMARK    3  A    between atoms: S_6  and  C_7
REMARK    4  A    between atoms: C_7  and  C_8
REMARK    5  A    between atoms: N_10  and  N_11
REMARK    6  A    between atoms: C_12  and  C_14
REMARK                            x       y       z     vdW  Elec       q    Type
REMARK                         _______ _______ _______ _____ _____    ______ ____
ROOT
ATOM      1  C   UNL     1       2.697   4.378  19.717  0.00  0.00    +0.000 C 
ATOM      2  O   UNL     1       1.492   4.144  19.664  0.00  0.00    +0.000 OA
ATOM      3  N   UNL     1       3.210   5.542  20.256  0.00  0.00    +0.000 N 
ATOM      4  H   UNL     1       4.180   5.839  20.120  0.00  0.00    +0.000 HD
ENDROOT
BRANCH   3   5
ATOM      5  N   UNL     1       2.303   6.535  20.637  0.00  0.00    +0.000 N 
ATOM      6  C   UNL     1       2.064   7.613  19.806  0.00  0.00    +0.000 C 
ATOM      7  O   UNL     1       2.573   7.707  18.690  0.00  0.00    +0.000 OA
ATOM      8  H   UNL     1       1.853   6.452  21.549  0.00  0.00    +0.000 HD
BRANCH   6   9
ATOM      9  C   UNL     1       1.179   8.606  20.375  0.00  0.00    +0.000 A 
ATOM     10  C   UNL     1       0.454   8.616  21.551  0.00  0.00    +0.000 A 
ATOM     11  C   UNL     1      -0.257   9.840  21.584  0.00  0.00    +0.000 A 
ATOM     12  C   UNL     1       0.073  10.504  20.426  0.00  0.00    +0.000 A 
ATOM     13  O   UNL     1       0.944   9.771  19.687  0.00  0.00    +0.000 OA
ENDBRANCH   6   9
ENDBRANCH   3   5
BRANCH   1  14
ATOM     14  C   UNL     1       3.748   3.410  19.203  0.00  0.00    +0.000 C 
BRANCH  14  15
ATOM     15  S   UNL     1       4.226   3.801  17.502  0.00  0.00    +0.000 S 
BRANCH  15  20
ATOM     16  C   UNL     1       7.873   7.956  17.646  0.00  0.00    +0.000 C 
ATOM     17  C   UNL     1       7.141   6.669  17.785  0.00  0.00    +0.000 A 
ATOM     18  N   UNL     1       7.594   5.590  18.396  0.00  0.00    +0.000 NA
ATOM     19  N   UNL     1       6.674   4.551  18.370  0.00  0.00    +0.000 NA
ATOM     20  C   UNL     1       5.577   4.884  17.731  0.00  0.00    +0.000 A 
ATOM     21  S   UNL     1       5.572   6.487  17.120  0.00  0.00    +0.000 S 
ENDBRANCH  15  20
ENDBRANCH  14  15
ENDBRANCH   1  14
TORSDOF 5
ENDMDL
MODEL 6
REMARK VINA RESULT:      -6.1      2.683      5.067
REMARK  Name = 
REMARK  6 active torsions:
REMARK  status: ('A' for Active; 'I' for Inactive)
REMARK    1  A    between atoms: C_1  and  C_2
REMARK    2  A    between atoms: C_5  and  S_6
REMARK    3  A    between atoms: S_6  and  C_7
REMARK    4  A    between atoms: C_7  and  C_8
REMARK    5  A    between atoms: N_10  and  N_11
REMARK    6  A    between atoms: C_12  and  C_14
REMARK                            x       y       z     vdW  Elec       q    Type
REMARK                         _______ _______ _______ _____ _____    ______ ____
ROOT
ATOM      1  C   UNL     1       4.146   2.589  18.981  0.00  0.00    +0.000 C 
ATOM      2  O   UNL     1       4.452   2.832  20.146  0.00  0.00    +0.000 OA
ATOM      3  N   UNL     1       4.714   3.246  17.907  0.00  0.00    +0.000 N 
ATOM      4  H   UNL     1       4.326   3.204  16.960  0.00  0.00    +0.000 HD
ENDROOT
BRANCH   3   5
ATOM      5  N   UNL     1       5.576   4.311  18.180  0.00  0.00    +0.000 N 
ATOM      6  C   UNL     1       5.712   5.345  17.272  0.00  0.00    +0.000 C 
ATOM      7  O   UNL     1       5.041   5.406  16.243  0.00  0.00    +0.000 OA
ATOM      8  H   UNL     1       6.116   4.285  19.045  0.00  0.00    +0.000 HD
BRANCH   6   9
ATOM      9  C   UNL     1       6.710   6.324  17.644  0.00  0.00    +0.000 A 
ATOM     10  C   UNL     1       7.707   6.293  18.601  0.00  0.00    +0.000 A 
ATOM     11  C   UNL     1       8.374   7.541  18.538  0.00  0.00    +0.000 A 
ATOM     12  C   UNL     1       7.745   8.260  17.550  0.00  0.00    +0.000 A 
ATOM     13  O   UNL     1       6.739   7.535  16.998  0.00  0.00    +0.000 OA
ENDBRANCH   6   9
ENDBRANCH   3   5
BRANCH   1  14
ATOM     14  C   UNL     1       3.119   1.538  18.602  0.00  0.00    +0.000 C 
BRANCH  14  15
ATOM     15  S   UNL     1       1.439   2.209  18.660  0.00  0.00    +0.000 S 
BRANCH  15  20
ATOM     16  C   UNL     1       2.037   7.445  20.338  0.00  0.00    +0.000 C 
ATOM     17  C   UNL     1       1.974   6.168  19.578  0.00  0.00    +0.000 A 
ATOM     18  N   UNL     1       2.255   6.023  18.296  0.00  0.00    +0.000 NA
ATOM     19  N   UNL     1       2.116   4.708  17.878  0.00  0.00    +0.000 NA
ATOM     20  C   UNL     1       1.725   3.922  18.854  0.00  0.00    +0.000 A 
ATOM     21  S   UNL     1       1.504   4.716  20.358  0.00  0.00    +0.000 S 
ENDBRANCH  15  20
ENDBRANCH  14  15
ENDBRANCH   1  14
TORSDOF 5
ENDMDL
MODEL 7
REMARK VINA RESULT:      -6.1      5.777      7.655
REMARK  Name = 
REMARK  6 active torsions:
REMARK  status: ('A' for Active; 'I' for Inactive)
REMARK    1  A    between atoms: C_1  and  C_2
REMARK    2  A    between atoms: C_5  and  S_6
REMARK    3  A    between atoms: S_6  and  C_7
REMARK    4  A    between atoms: C_7  and  C_8
REMARK    5  A    between atoms: N_10  and  N_11
REMARK    6  A    between atoms: C_12  and  C_14
REMARK                            x       y       z     vdW  Elec       q    Type
REMARK                         _______ _______ _______ _____ _____    ______ ____
ROOT
ATOM      1  C   UNL     1       7.620   7.588  18.050  0.00  0.00    +0.000 C 
ATOM      2  O   UNL     1       8.384   6.948  18.767  0.00  0.00    +0.000 OA
ATOM      3  N   UNL     1       7.841   8.910  17.714  0.00  0.00    +0.000 N 
ATOM      4  H   UNL     1       7.121   9.507  17.297  0.00  0.00    +0.000 HD
ENDROOT
BRANCH   3   5
ATOM      5  N   UNL     1       8.915   9.563  18.325  0.00  0.00    +0.000 N 
ATOM      6  C   UNL     1       9.091  10.923  18.151  0.00  0.00    +0.000 C 
ATOM      7  O   UNL     1       8.288  11.613  17.525  0.00  0.00    +0.000 OA
ATOM      8  H   UNL     1       9.571   9.005  18.871  0.00  0.00    +0.000 HD
BRANCH   6   9
ATOM      9  C   UNL     1      10.296  11.441  18.760  0.00  0.00    +0.000 A 
ATOM     10  C   UNL     1      11.507  11.818  18.211  0.00  0.00    +0.000 A 
ATOM     11  C   UNL     1      12.333  12.231  19.286  0.00  0.00    +0.000 A 
ATOM     12  C   UNL     1      11.580  12.080  20.425  0.00  0.00    +0.000 A 
ATOM     13  O   UNL     1      10.344  11.607  20.123  0.00  0.00    +0.000 OA
ENDBRANCH   6   9
ENDBRANCH   3   5
BRANCH   1  14
ATOM     14  C   UNL     1       6.359   6.993  17.451  0.00  0.00    +0.000 C 
BRANCH  14  15
ATOM     15  S   UNL     1       6.455   5.187  17.376  0.00  0.00    +0.000 S 
BRANCH  15  20
ATOM     16  C   UNL     1       6.375   3.459  12.123  0.00  0.00    +0.000 C 
ATOM     17  C   UNL     1       6.640   4.144  13.416  0.00  0.00    +0.000 A 
ATOM     18  N   UNL     1       7.508   5.122  13.603  0.00  0.00    +0.000 NA
ATOM     19  N   UNL     1       7.520   5.563  14.919  0.00  0.00    +0.000 NA
ATOM     20  C   UNL     1       6.675   4.893  15.668  0.00  0.00    +0.000 A 
ATOM     21  S   UNL     1       5.794   3.682  14.833  0.00  0.00    +0.000 S 
ENDBRANCH  15  20
ENDBRANCH  14  15
ENDBRANCH   1  14
TORSDOF 5
ENDMDL
MODEL 8
REMARK VINA RESULT:      -6.1      2.538      3.250
REMARK  Name = 
REMARK  6 active torsions:
REMARK  status: ('A' for Active; 'I' for Inactive)
REMARK    1  A    between atoms: C_1  and  C_2
REMARK    2  A    between atoms: C_5  and  S_6
REMARK    3  A    between atoms: S_6  and  C_7
REMARK    4  A    between atoms: C_7  and  C_8
REMARK    5  A    between atoms: N_10  and  N_11
REMARK    6  A    between atoms: C_12  and  C_14
REMARK                            x       y       z     vdW  Elec       q    Type
REMARK                         _______ _______ _______ _____ _____    ______ ____
ROOT
ATOM      1  C   UNL     1       3.442   5.838  19.030  0.00  0.00    +0.000 C 
ATOM      2  O   UNL     1       2.955   5.482  20.100  0.00  0.00    +0.000 OA
ATOM      3  N   UNL     1       3.142   7.050  18.439  0.00  0.00    +0.000 N 
ATOM      4  H   UNL     1       3.372   7.267  17.465  0.00  0.00    +0.000 HD
ENDROOT
BRANCH   3   5
ATOM      5  N   UNL     1       2.149   7.834  19.034  0.00  0.00    +0.000 N 
ATOM      6  C   UNL     1       1.745   9.013  18.436  0.00  0.00    +0.000 C 
ATOM      7  O   UNL     1       2.179   9.378  17.345  0.00  0.00    +0.000 OA
ATOM      8  H   UNL     1       1.762   7.526  19.925  0.00  0.00    +0.000 HD
BRANCH   6   9
ATOM      9  C   UNL     1       0.784   9.765  19.214  0.00  0.00    +0.000 A 
ATOM     10  C   UNL     1      -0.050  10.812  18.870  0.00  0.00    +0.000 A 
ATOM     11  C   UNL     1      -0.760  11.171  20.042  0.00  0.00    +0.000 A 
ATOM     12  C   UNL     1      -0.318  10.325  21.030  0.00  0.00    +0.000 A 
ATOM     13  O   UNL     1       0.614   9.467  20.543  0.00  0.00    +0.000 OA
ENDBRANCH   6   9
ENDBRANCH   3   5
BRANCH   1  14
ATOM     14  C   UNL     1       4.428   4.988  18.250  0.00  0.00    +0.000 C 
BRANCH  14  15
ATOM     15  S   UNL     1       5.976   5.878  17.957  0.00  0.00    +0.000 S 
BRANCH  15  20
ATOM     16  C   UNL     1       6.374   3.688  12.895  0.00  0.00    +0.000 C 
ATOM     17  C   UNL     1       6.552   4.453  14.158  0.00  0.00    +0.000 A 
ATOM     18  N   UNL     1       7.510   5.329  14.395  0.00  0.00    +0.000 NA
ATOM     19  N   UNL     1       7.404   5.887  15.661  0.00  0.00    +0.000 NA
ATOM     20  C   UNL     1       6.383   5.399  16.327  0.00  0.00    +0.000 A 
ATOM     21  S   UNL     1       5.467   4.233  15.465  0.00  0.00    +0.000 S 
ENDBRANCH  15  20
ENDBRANCH  14  15
ENDBRANCH   1  14
TORSDOF 5
ENDMDL
MODEL 9
REMARK VINA RESULT:      -6.1      4.163      7.508
REMARK  Name = 
REMARK  6 active torsions:
REMARK  status: ('A' for Active; 'I' for Inactive)
REMARK    1  A    between atoms: C_1  and  C_2
REMARK    2  A    between atoms: C_5  and  S_6
REMARK    3  A    between atoms: S_6  and  C_7
REMARK    4  A    between atoms: C_7  and  C_8
REMARK    5  A    between atoms: N_10  and  N_11
REMARK    6  A    between atoms: C_12  and  C_14
REMARK                            x       y       z     vdW  Elec       q    Type
REMARK                         _______ _______ _______ _____ _____    ______ ____
ROOT
ATOM      1  C   UNL     1       6.252   5.923  16.520  0.00  0.00    +0.000 C 
ATOM      2  O   UNL     1       5.361   6.428  15.841  0.00  0.00    +0.000 OA
ATOM      3  N   UNL     1       6.862   4.729  16.183  0.00  0.00    +0.000 N 
ATOM      4  H   UNL     1       7.448   4.200  16.835  0.00  0.00    +0.000 HD
ENDROOT
BRANCH   3   5
ATOM      5  N   UNL     1       6.345   4.021  15.094  0.00  0.00    +0.000 N 
ATOM      6  C   UNL     1       6.727   4.352  13.807  0.00  0.00    +0.000 C 
ATOM      7  O   UNL     1       7.571   5.215  13.575  0.00  0.00    +0.000 OA
ATOM      8  H   UNL     1       5.665   3.284  15.278  0.00  0.00    +0.000 HD
BRANCH   6   9
ATOM      9  C   UNL     1       6.038   3.601  12.781  0.00  0.00    +0.000 A 
ATOM     10  C   UNL     1       6.466   2.577  11.957  0.00  0.00    +0.000 A 
ATOM     11  C   UNL     1       5.370   2.234  11.128  0.00  0.00    +0.000 A 
ATOM     12  C   UNL     1       4.340   3.068  11.491  0.00  0.00    +0.000 A 
ATOM     13  O   UNL     1       4.729   3.898  12.493  0.00  0.00    +0.000 OA
ENDBRANCH   6   9
ENDBRANCH   3   5
BRANCH   1  14
ATOM     14  C   UNL     1       6.781   6.560  17.791  0.00  0.00    +0.000 C 
BRANCH  14  15
ATOM     15  S   UNL     1       6.545   5.473  19.219  0.00  0.00    +0.000 S 
BRANCH  15  20
ATOM     16  C   UNL     1       1.581   3.119  18.589  0.00  0.00    +0.000 C 
ATOM     17  C   UNL     1       2.726   4.039  18.819  0.00  0.00    +0.000 A 
ATOM     18  N   UNL     1       2.632   5.323  19.112  0.00  0.00    +0.000 NA
ATOM     19  N   UNL     1       3.878   5.911  19.281  0.00  0.00    +0.000 NA
ATOM     20  C   UNL     1       4.854   5.053  19.096  0.00  0.00    +0.000 A 
ATOM     21  S   UNL     1       4.337   3.463  18.712  0.00  0.00    +0.000 S 
ENDBRANCH  15  20
ENDBRANCH  14  15
ENDBRANCH   1  14
TORSDOF 5
ENDMDL
