MODEL 1
REMARK VINA RESULT:      -8.4      0.000      0.000
REMARK  Name = 
REMARK  4 active torsions:
REMARK  status: ('A' for Active; 'I' for Inactive)
REMARK    1  A    between atoms: C_1  and  O_2
REMARK    2  A    between atoms: O_2  and  C_3
REMARK    3  A    between atoms: C_8  and  C_9
REMARK    4  A    between atoms: C_11  and  C_12
REMARK                            x       y       z     vdW  Elec       q    Type
REMARK                         _______ _______ _______ _____ _____    ______ ____
ROOT
ATOM      1  C   UNL     1       4.936   4.681  18.793  0.00  0.00    +0.000 A 
ATOM      2  C   UNL     1       5.074   4.551  17.425  0.00  0.00    +0.000 A 
ATOM      3  C   UNL     1       6.311   4.833  16.877  0.00  0.00    +0.000 A 
ATOM      4  N   UNL     1       7.360   5.193  17.646  0.00  0.00    +0.000 NA
ATOM      5  C   UNL     1       7.155   5.268  18.959  0.00  0.00    +0.000 A 
ATOM      6  N   UNL     1       8.229   5.596  19.758  0.00  0.00    +0.000 N 
ATOM      7  N   UNL     1       5.985   5.055  19.561  0.00  0.00    +0.000 NA
ATOM      8  H   UNL     1       8.920   6.103  19.224  0.00  0.00    +0.000 HD
ATOM      9  H   UNL     1       7.906   6.008  20.621  0.00  0.00    +0.000 HD
ENDROOT
BRANCH   1  15
ATOM     10  C   UNL     1       3.342   3.016  19.939  0.00  0.00    +0.000 A 
ATOM     11  C   UNL     1       2.190   2.802  20.714  0.00  0.00    +0.000 A 
ATOM     12  C   UNL     1       1.342   3.857  21.047  0.00  0.00    +0.000 A 
ATOM     13  C   UNL     1       1.641   5.141  20.616  0.00  0.00    +0.000 A 
ATOM     14  C   UNL     1       2.802   5.369  19.877  0.00  0.00    +0.000 A 
ATOM     15  C   UNL     1       3.696   4.326  19.534  0.00  0.00    +0.000 A 
BRANCH  10  17
ATOM     16  C   UNL     1       3.768   1.216  18.449  0.00  0.00    +0.000 C 
ATOM     17  O   UNL     1       4.173   1.979  19.583  0.00  0.00    +0.000 OA
ENDBRANCH  10  17
ENDBRANCH   1  15
BRANCH   3  18
ATOM     18  C   UNL     1       6.583   4.718  15.433  0.00  0.00    +0.000 A 
ATOM     19  C   UNL     1       5.882   3.837  14.592  0.00  0.00    +0.000 A 
ATOM     20  C   UNL     1       6.199   3.744  13.237  0.00  0.00    +0.000 A 
ATOM     21  C   UNL     1       7.214   4.544  12.744  0.00  0.00    +0.000 A 
ATOM     22  N   UNL     1       7.910   5.414  13.500  0.00  0.00    +0.000 NA
ATOM     23  C   UNL     1       7.575   5.482  14.815  0.00  0.00    +0.000 A 
ENDBRANCH   3  18
TORSDOF 3
ENDMDL
MODEL 2
REMARK VINA RESULT:      -8.3      1.402      2.136
REMARK  Name = 
REMARK  4 active torsions:
REMARK  status: ('A' for Active; 'I' for Inactive)
REMARK    1  A    between atoms: C_1  and  O_2
REMARK    2  A    between atoms: O_2  and  C_3
REMARK    3  A    between atoms: C_8  and  C_9
REMARK    4  A    between atoms: C_11  and  C_12
REMARK                            x       y       z     vdW  Elec       q    Type
REMARK                         _______ _______ _______ _____ _____    ______ ____
ROOT
ATOM      1  C   UNL     1       4.844   4.213  17.915  0.00  0.00    +0.000 A 
ATOM      2  C   UNL     1       5.015   4.186  16.545  0.00  0.00    +0.000 A 
ATOM      3  C   UNL     1       6.275   4.471  16.052  0.00  0.00    +0.000 A 
ATOM      4  N   UNL     1       7.312   4.737  16.874  0.00  0.00    +0.000 NA
ATOM      5  C   UNL     1       7.073   4.716  18.183  0.00  0.00    +0.000 A 
ATOM      6  N   UNL     1       8.134   4.947  19.032  0.00  0.00    +0.000 N 
ATOM      7  N   UNL     1       5.882   4.493  18.736  0.00  0.00    +0.000 NA
ATOM      8  H   UNL     1       8.854   5.472  18.557  0.00  0.00    +0.000 HD
ATOM      9  H   UNL     1       7.800   5.300  19.916  0.00  0.00    +0.000 HD
ENDROOT
BRANCH   1  15
ATOM     10  C   UNL     1       2.772   4.725  19.354  0.00  0.00    +0.000 A 
ATOM     11  C   UNL     1       1.544   4.293  19.880  0.00  0.00    +0.000 A 
ATOM     12  C   UNL     1       1.119   2.975  19.722  0.00  0.00    +0.000 A 
ATOM     13  C   UNL     1       1.914   2.075  19.027  0.00  0.00    +0.000 A 
ATOM     14  C   UNL     1       3.118   2.505  18.470  0.00  0.00    +0.000 A 
ATOM     15  C   UNL     1       3.575   3.839  18.595  0.00  0.00    +0.000 A 
BRANCH  10  17
ATOM     16  C   UNL     1       2.575   7.006  18.722  0.00  0.00    +0.000 C 
ATOM     17  O   UNL     1       3.214   6.017  19.525  0.00  0.00    +0.000 OA
ENDBRANCH  10  17
ENDBRANCH   1  15
BRANCH   3  18
ATOM     18  C   UNL     1       6.583   4.460  14.611  0.00  0.00    +0.000 A 
ATOM     19  C   UNL     1       5.966   3.581  13.705  0.00  0.00    +0.000 A 
ATOM     20  C   UNL     1       6.316   3.590  12.355  0.00  0.00    +0.000 A 
ATOM     21  C   UNL     1       7.277   4.490  11.932  0.00  0.00    +0.000 A 
ATOM     22  N   UNL     1       7.892   5.363  12.753  0.00  0.00    +0.000 NA
ATOM     23  C   UNL     1       7.527   5.329  14.061  0.00  0.00    +0.000 A 
ENDBRANCH   3  18
TORSDOF 3
ENDMDL
MODEL 3
REMARK VINA RESULT:      -8.0      1.545      2.390
REMARK  Name = 
REMARK  4 active torsions:
REMARK  status: ('A' for Active; 'I' for Inactive)
REMARK    1  A    between atoms: C_1  and  O_2
REMARK    2  A    between atoms: O_2  and  C_3
REMARK    3  A    between atoms: C_8  and  C_9
REMARK    4  A    between atoms: C_11  and  C_12
REMARK                            x       y       z     vdW  Elec       q    Type
REMARK                         _______ _______ _______ _____ _____    ______ ____
ROOT
ATOM      1  C   UNL     1       4.857   4.200  17.884  0.00  0.00    +0.000 A 
ATOM      2  C   UNL     1       5.039   4.153  16.516  0.00  0.00    +0.000 A 
ATOM      3  C   UNL     1       6.301   4.439  16.028  0.00  0.00    +0.000 A 
ATOM      4  N   UNL     1       7.329   4.726  16.854  0.00  0.00    +0.000 NA
ATOM      5  C   UNL     1       7.080   4.725  18.162  0.00  0.00    +0.000 A 
ATOM      6  N   UNL     1       8.132   4.977  19.014  0.00  0.00    +0.000 N 
ATOM      7  N   UNL     1       5.885   4.502  18.709  0.00  0.00    +0.000 NA
ATOM      8  H   UNL     1       8.851   5.500  18.537  0.00  0.00    +0.000 HD
ATOM      9  H   UNL     1       7.788   5.342  19.890  0.00  0.00    +0.000 HD
ENDROOT
BRANCH   1  15
ATOM     10  C   UNL     1       2.758   4.725  19.279  0.00  0.00    +0.000 A 
ATOM     11  C   UNL     1       1.530   4.289  19.804  0.00  0.00    +0.000 A 
ATOM     12  C   UNL     1       1.128   2.960  19.683  0.00  0.00    +0.000 A 
ATOM     13  C   UNL     1       1.946   2.052  19.028  0.00  0.00    +0.000 A 
ATOM     14  C   UNL     1       3.151   2.484  18.472  0.00  0.00    +0.000 A 
ATOM     15  C   UNL     1       3.585   3.828  18.559  0.00  0.00    +0.000 A 
BRANCH  10  17
ATOM     16  C   UNL     1       2.579   6.970  18.527  0.00  0.00    +0.000 C 
ATOM     17  O   UNL     1       3.177   6.028  19.414  0.00  0.00    +0.000 OA
ENDBRANCH  10  17
ENDBRANCH   1  15
BRANCH   3  18
ATOM     18  C   UNL     1       6.620   4.408  14.590  0.00  0.00    +0.000 A 
ATOM     19  C   UNL     1       7.575   5.252  14.001  0.00  0.00    +0.000 A 
ATOM     20  C   UNL     1       7.818   5.204  12.628  0.00  0.00    +0.000 A 
ATOM     21  C   UNL     1       7.100   4.301  11.867  0.00  0.00    +0.000 A 
ATOM     22  N   UNL     1       6.181   3.459  12.379  0.00  0.00    +0.000 NA
ATOM     23  C   UNL     1       5.970   3.531  13.719  0.00  0.00    +0.000 A 
ENDBRANCH   3  18
TORSDOF 3
ENDMDL
MODEL 4
REMARK VINA RESULT:      -8.0      0.725      1.097
REMARK  Name = 
REMARK  4 active torsions:
REMARK  status: ('A' for Active; 'I' for Inactive)
REMARK    1  A    between atoms: C_1  and  O_2
REMARK    2  A    between atoms: O_2  and  C_3
REMARK    3  A    between atoms: C_8  and  C_9
REMARK    4  A    between atoms: C_11  and  C_12
REMARK                            x       y       z     vdW  Elec       q    Type
REMARK                         _______ _______ _______ _____ _____    ______ ____
ROOT
ATOM      1  C   UNL     1       5.044   4.755  18.550  0.00  0.00    +0.000 A 
ATOM      2  C   UNL     1       5.145   4.587  17.184  0.00  0.00    +0.000 A 
ATOM      3  C   UNL     1       6.389   4.767  16.607  0.00  0.00    +0.000 A 
ATOM      4  N   UNL     1       7.475   5.067  17.350  0.00  0.00    +0.000 NA
ATOM      5  C   UNL     1       7.301   5.185  18.664  0.00  0.00    +0.000 A 
ATOM      6  N   UNL     1       8.412   5.451  19.436  0.00  0.00    +0.000 N 
ATOM      7  N   UNL     1       6.131   5.069  19.291  0.00  0.00    +0.000 NA
ATOM      8  H   UNL     1       9.126   5.896  18.879  0.00  0.00    +0.000 HD
ATOM      9  H   UNL     1       8.136   5.904  20.295  0.00  0.00    +0.000 HD
ENDROOT
BRANCH   1  15
ATOM     10  C   UNL     1       3.364   3.235  19.772  0.00  0.00    +0.000 A 
ATOM     11  C   UNL     1       2.214   3.122  20.572  0.00  0.00    +0.000 A 
ATOM     12  C   UNL     1       1.444   4.240  20.885  0.00  0.00    +0.000 A 
ATOM     13  C   UNL     1       1.819   5.488  20.409  0.00  0.00    +0.000 A 
ATOM     14  C   UNL     1       2.980   5.615  19.646  0.00  0.00    +0.000 A 
ATOM     15  C   UNL     1       3.797   4.506  19.321  0.00  0.00    +0.000 A 
BRANCH  10  17
ATOM     16  C   UNL     1       3.617   1.338  18.366  0.00  0.00    +0.000 C 
ATOM     17  O   UNL     1       4.118   2.135  19.436  0.00  0.00    +0.000 OA
ENDBRANCH  10  17
ENDBRANCH   1  15
BRANCH   3  18
ATOM     18  C   UNL     1       6.623   4.602  15.162  0.00  0.00    +0.000 A 
ATOM     19  C   UNL     1       7.617   5.307  14.464  0.00  0.00    +0.000 A 
ATOM     20  C   UNL     1       7.778   5.138  13.089  0.00  0.00    +0.000 A 
ATOM     21  C   UNL     1       6.940   4.254  12.435  0.00  0.00    +0.000 A 
ATOM     22  N   UNL     1       5.979   3.541  13.054  0.00  0.00    +0.000 NA
ATOM     23  C   UNL     1       5.850   3.729  14.394  0.00  0.00    +0.000 A 
ENDBRANCH   3  18
TORSDOF 3
ENDMDL
MODEL 5
REMARK VINA RESULT:      -7.7      1.555      2.253
REMARK  Name = 
REMARK  4 active torsions:
REMARK  status: ('A' for Active; 'I' for Inactive)
REMARK    1  A    between atoms: C_1  and  O_2
REMARK    2  A    between atoms: O_2  and  C_3
REMARK    3  A    between atoms: C_8  and  C_9
REMARK    4  A    between atoms: C_11  and  C_12
REMARK                            x       y       z     vdW  Elec       q    Type
REMARK                         _______ _______ _______ _____ _____    ______ ____
ROOT
ATOM      1  C   UNL     1       4.998   4.899  17.864  0.00  0.00    +0.000 A 
ATOM      2  C   UNL     1       5.118   4.509  16.546  0.00  0.00    +0.000 A 
ATOM      3  C   UNL     1       6.198   4.994  15.831  0.00  0.00    +0.000 A 
ATOM      4  N   UNL     1       7.121   5.794  16.403  0.00  0.00    +0.000 NA
ATOM      5  C   UNL     1       6.950   6.102  17.687  0.00  0.00    +0.000 A 
ATOM      6  N   UNL     1       7.909   6.886  18.291  0.00  0.00    +0.000 N 
ATOM      7  N   UNL     1       5.917   5.713  18.432  0.00  0.00    +0.000 NA
ATOM      8  H   UNL     1       8.401   7.432  17.599  0.00  0.00    +0.000 HD
ATOM      9  H   UNL     1       7.511   7.375  19.079  0.00  0.00    +0.000 HD
ENDROOT
BRANCH   1  15
ATOM     10  C   UNL     1       2.646   4.941  18.911  0.00  0.00    +0.000 A 
ATOM     11  C   UNL     1       1.695   4.326  19.743  0.00  0.00    +0.000 A 
ATOM     12  C   UNL     1       2.023   3.204  20.502  0.00  0.00    +0.000 A 
ATOM     13  C   UNL     1       3.304   2.678  20.432  0.00  0.00    +0.000 A 
ATOM     14  C   UNL     1       4.244   3.259  19.581  0.00  0.00    +0.000 A 
ATOM     15  C   UNL     1       3.944   4.388  18.782  0.00  0.00    +0.000 A 
BRANCH  10  17
ATOM     16  C   UNL     1       2.466   7.308  18.859  0.00  0.00    +0.000 C 
ATOM     17  O   UNL     1       2.342   6.063  18.176  0.00  0.00    +0.000 OA
ENDBRANCH  10  17
ENDBRANCH   1  15
BRANCH   3  18
ATOM     18  C   UNL     1       6.439   4.638  14.422  0.00  0.00    +0.000 A 
ATOM     19  C   UNL     1       5.641   3.721  13.718  0.00  0.00    +0.000 A 
ATOM     20  C   UNL     1       5.931   3.395  12.393  0.00  0.00    +0.000 A 
ATOM     21  C   UNL     1       7.018   4.001  11.791  0.00  0.00    +0.000 A 
ATOM     22  N   UNL     1       7.810   4.896  12.412  0.00  0.00    +0.000 NA
ATOM     23  C   UNL     1       7.499   5.193  13.701  0.00  0.00    +0.000 A 
ENDBRANCH   3  18
TORSDOF 3
ENDMDL
MODEL 6
REMARK VINA RESULT:      -7.7      1.235      1.254
REMARK  Name = 
REMARK  4 active torsions:
REMARK  status: ('A' for Active; 'I' for Inactive)
REMARK    1  A    between atoms: C_1  and  O_2
REMARK    2  A    between atoms: O_2  and  C_3
REMARK    3  A    between atoms: C_8  and  C_9
REMARK    4  A    between atoms: C_11  and  C_12
REMARK                            x       y       z     vdW  Elec       q    Type
REMARK                         _______ _______ _______ _____ _____    ______ ____
ROOT
ATOM      1  C   UNL     1       4.754   5.330  17.770  0.00  0.00    +0.000 A 
ATOM      2  C   UNL     1       4.902   4.889  16.471  0.00  0.00    +0.000 A 
ATOM      3  C   UNL     1       6.092   5.177  15.828  0.00  0.00    +0.000 A 
ATOM      4  N   UNL     1       7.089   5.838  16.452  0.00  0.00    +0.000 NA
ATOM      5  C   UNL     1       6.881   6.206  17.714  0.00  0.00    +0.000 A 
ATOM      6  N   UNL     1       7.908   6.846  18.373  0.00  0.00    +0.000 N 
ATOM      7  N   UNL     1       5.749   6.005  18.389  0.00  0.00    +0.000 NA
ATOM      8  H   UNL     1       8.527   7.288  17.709  0.00  0.00    +0.000 HD
ATOM      9  H   UNL     1       7.538   7.414  19.121  0.00  0.00    +0.000 HD
ENDROOT
BRANCH   1  15
ATOM     10  C   UNL     1       2.910   3.767  18.655  0.00  0.00    +0.000 A 
ATOM     11  C   UNL     1       1.856   3.550  19.559  0.00  0.00    +0.000 A 
ATOM     12  C   UNL     1       1.399   4.573  20.387  0.00  0.00    +0.000 A 
ATOM     13  C   UNL     1       1.997   5.823  20.329  0.00  0.00    +0.000 A 
ATOM     14  C   UNL     1       3.068   6.037  19.461  0.00  0.00    +0.000 A 
ATOM     15  C   UNL     1       3.571   5.018  18.617  0.00  0.00    +0.000 A 
BRANCH  10  17
ATOM     16  C   UNL     1       3.575   1.499  18.417  0.00  0.00    +0.000 C 
ATOM     17  O   UNL     1       3.354   2.772  17.815  0.00  0.00    +0.000 OA
ENDBRANCH  10  17
ENDBRANCH   1  15
BRANCH   3  18
ATOM     18  C   UNL     1       6.371   4.747  14.447  0.00  0.00    +0.000 A 
ATOM     19  C   UNL     1       5.580   3.807  13.765  0.00  0.00    +0.000 A 
ATOM     20  C   UNL     1       5.905   3.410  12.468  0.00  0.00    +0.000 A 
ATOM     21  C   UNL     1       7.020   3.970  11.871  0.00  0.00    +0.000 A 
ATOM     22  N   UNL     1       7.806   4.884  12.471  0.00  0.00    +0.000 NA
ATOM     23  C   UNL     1       7.461   5.250  13.733  0.00  0.00    +0.000 A 
ENDBRANCH   3  18
TORSDOF 3
ENDMDL
MODEL 7
REMARK VINA RESULT:      -7.6      1.665      2.499
REMARK  Name = 
REMARK  4 active torsions:
REMARK  status: ('A' for Active; 'I' for Inactive)
REMARK    1  A    between atoms: C_1  and  O_2
REMARK    2  A    between atoms: O_2  and  C_3
REMARK    3  A    between atoms: C_8  and  C_9
REMARK    4  A    between atoms: C_11  and  C_12
REMARK                            x       y       z     vdW  Elec       q    Type
REMARK                         _______ _______ _______ _____ _____    ______ ____
ROOT
ATOM      1  C   UNL     1       5.069   4.981  17.853  0.00  0.00    +0.000 A 
ATOM      2  C   UNL     1       5.228   4.595  16.537  0.00  0.00    +0.000 A 
ATOM      3  C   UNL     1       6.326   5.087  15.854  0.00  0.00    +0.000 A 
ATOM      4  N   UNL     1       7.229   5.889  16.454  0.00  0.00    +0.000 NA
ATOM      5  C   UNL     1       7.021   6.193  17.733  0.00  0.00    +0.000 A 
ATOM      6  N   UNL     1       7.959   6.979  18.366  0.00  0.00    +0.000 N 
ATOM      7  N   UNL     1       5.969   5.797  18.448  0.00  0.00    +0.000 NA
ATOM      8  H   UNL     1       8.468   7.530  17.690  0.00  0.00    +0.000 HD
ATOM      9  H   UNL     1       7.537   7.464  19.144  0.00  0.00    +0.000 HD
ENDROOT
BRANCH   1  15
ATOM     10  C   UNL     1       2.698   5.025  18.853  0.00  0.00    +0.000 A 
ATOM     11  C   UNL     1       1.725   4.404  19.654  0.00  0.00    +0.000 A 
ATOM     12  C   UNL     1       2.027   3.265  20.398  0.00  0.00    +0.000 A 
ATOM     13  C   UNL     1       3.304   2.727  20.343  0.00  0.00    +0.000 A 
ATOM     14  C   UNL     1       4.266   3.316  19.522  0.00  0.00    +0.000 A 
ATOM     15  C   UNL     1       3.993   4.463  18.739  0.00  0.00    +0.000 A 
BRANCH  10  17
ATOM     16  C   UNL     1       2.434   7.386  18.869  0.00  0.00    +0.000 C 
ATOM     17  O   UNL     1       2.419   6.165  18.134  0.00  0.00    +0.000 OA
ENDBRANCH  10  17
ENDBRANCH   1  15
BRANCH   3  18
ATOM     18  C   UNL     1       6.608   4.736  14.452  0.00  0.00    +0.000 A 
ATOM     19  C   UNL     1       7.599   5.375  13.689  0.00  0.00    +0.000 A 
ATOM     20  C   UNL     1       7.806   5.027  12.354  0.00  0.00    +0.000 A 
ATOM     21  C   UNL     1       7.016   4.033  11.805  0.00  0.00    +0.000 A 
ATOM     22  N   UNL     1       6.060   3.377  12.492  0.00  0.00    +0.000 NA
ATOM     23  C   UNL     1       5.886   3.740  13.790  0.00  0.00    +0.000 A 
ENDBRANCH   3  18
TORSDOF 3
ENDMDL
MODEL 8
REMARK VINA RESULT:      -7.5      1.299      1.405
REMARK  Name = 
REMARK  4 active torsions:
REMARK  status: ('A' for Active; 'I' for Inactive)
REMARK    1  A    between atoms: C_1  and  O_2
REMARK    2  A    between atoms: O_2  and  C_3
REMARK    3  A    between atoms: C_8  and  C_9
REMARK    4  A    between atoms: C_11  and  C_12
REMARK                            x       y       z     vdW  Elec       q    Type
REMARK                         _______ _______ _______ _____ _____    ______ ____
ROOT
ATOM      1  C   UNL     1       4.648   4.485  17.682  0.00  0.00    +0.000 A 
ATOM      2  C   UNL     1       4.877   4.226  16.345  0.00  0.00    +0.000 A 
ATOM      3  C   UNL     1       6.017   4.764  15.775  0.00  0.00    +0.000 A 
ATOM      4  N   UNL     1       6.893   5.490  16.500  0.00  0.00    +0.000 NA
ATOM      5  C   UNL     1       6.616   5.672  17.789  0.00  0.00    +0.000 A 
ATOM      6  N   UNL     1       7.525   6.378  18.547  0.00  0.00    +0.000 N 
ATOM      7  N   UNL     1       5.521   5.225  18.402  0.00  0.00    +0.000 NA
ATOM      8  H   UNL     1       8.077   6.982  17.956  0.00  0.00    +0.000 HD
ATOM      9  H   UNL     1       7.065   6.791  19.343  0.00  0.00    +0.000 HD
ENDROOT
BRANCH   1  15
ATOM     10  C   UNL     1       3.656   3.031  19.560  0.00  0.00    +0.000 A 
ATOM     11  C   UNL     1       2.522   2.607  20.274  0.00  0.00    +0.000 A 
ATOM     12  C   UNL     1       1.241   2.981  19.874  0.00  0.00    +0.000 A 
ATOM     13  C   UNL     1       1.077   3.791  18.760  0.00  0.00    +0.000 A 
ATOM     14  C   UNL     1       2.199   4.246  18.066  0.00  0.00    +0.000 A 
ATOM     15  C   UNL     1       3.517   3.902  18.452  0.00  0.00    +0.000 A 
BRANCH  10  17
ATOM     16  C   UNL     1       5.009   1.509  20.783  0.00  0.00    +0.000 C 
ATOM     17  O   UNL     1       4.924   2.648  19.930  0.00  0.00    +0.000 OA
ENDBRANCH  10  17
ENDBRANCH   1  15
BRANCH   3  18
ATOM     18  C   UNL     1       6.374   4.545  14.363  0.00  0.00    +0.000 A 
ATOM     19  C   UNL     1       5.685   3.648  13.530  0.00  0.00    +0.000 A 
ATOM     20  C   UNL     1       6.084   3.455  12.207  0.00  0.00    +0.000 A 
ATOM     21  C   UNL     1       7.168   4.173  11.737  0.00  0.00    +0.000 A 
ATOM     22  N   UNL     1       7.858   5.056  12.486  0.00  0.00    +0.000 NA
ATOM     23  C   UNL     1       7.442   5.221  13.769  0.00  0.00    +0.000 A 
ENDBRANCH   3  18
TORSDOF 3
ENDMDL
MODEL 9
REMARK VINA RESULT:      -7.5      3.022      6.749
REMARK  Name = 
REMARK  4 active torsions:
REMARK  status: ('A' for Active; 'I' for Inactive)
REMARK    1  A    between atoms: C_1  and  O_2
REMARK    2  A    between atoms: O_2  and  C_3
REMARK    3  A    between atoms: C_8  and  C_9
REMARK    4  A    between atoms: C_11  and  C_12
REMARK                            x       y       z     vdW  Elec       q    Type
REMARK                         _______ _______ _______ _____ _____    ______ ____
ROOT
ATOM      1  C   UNL     1       3.954   5.136  18.442  0.00  0.00    +0.000 A 
ATOM      2  C   UNL     1       3.369   6.371  18.641  0.00  0.00    +0.000 A 
ATOM      3  C   UNL     1       2.449   6.485  19.667  0.00  0.00    +0.000 A 
ATOM      4  N   UNL     1       2.151   5.441  20.467  0.00  0.00    +0.000 NA
ATOM      5  C   UNL     1       2.778   4.291  20.229  0.00  0.00    +0.000 A 
ATOM      6  N   UNL     1       2.510   3.230  21.067  0.00  0.00    +0.000 N 
ATOM      7  N   UNL     1       3.643   4.087  19.237  0.00  0.00    +0.000 NA
ATOM      8  H   UNL     1       1.606   3.346  21.501  0.00  0.00    +0.000 HD
ATOM      9  H   UNL     1       2.695   2.359  20.592  0.00  0.00    +0.000 HD
ENDROOT
BRANCH   1  15
ATOM     10  C   UNL     1       6.402   4.751  17.744  0.00  0.00    +0.000 A 
ATOM     11  C   UNL     1       7.321   4.423  16.733  0.00  0.00    +0.000 A 
ATOM     12  C   UNL     1       6.911   4.283  15.408  0.00  0.00    +0.000 A 
ATOM     13  C   UNL     1       5.576   4.461  15.079  0.00  0.00    +0.000 A 
ATOM     14  C   UNL     1       4.650   4.750  16.082  0.00  0.00    +0.000 A 
ATOM     15  C   UNL     1       5.025   4.883  17.441  0.00  0.00    +0.000 A 
BRANCH  10  17
ATOM     16  C   UNL     1       7.848   5.854  19.271  0.00  0.00    +0.000 C 
ATOM     17  O   UNL     1       6.798   4.917  19.051  0.00  0.00    +0.000 OA
ENDBRANCH  10  17
ENDBRANCH   1  15
BRANCH   3  18
ATOM     18  C   UNL     1       1.769   7.753  19.983  0.00  0.00    +0.000 A 
ATOM     19  C   UNL     1       1.190   8.018  21.236  0.00  0.00    +0.000 A 
ATOM     20  C   UNL     1       0.531   9.223  21.475  0.00  0.00    +0.000 A 
ATOM     21  C   UNL     1       0.468  10.151  20.452  0.00  0.00    +0.000 A 
ATOM     22  N   UNL     1       1.016   9.957  19.236  0.00  0.00    +0.000 NA
ATOM     23  C   UNL     1       1.652   8.773  19.037  0.00  0.00    +0.000 A 
ENDBRANCH   3  18
TORSDOF 3
ENDMDL
