MODEL 1
REMARK VINA RESULT:      -7.5      0.000      0.000
REMARK  Name = 
REMARK  2 active torsions:
REMARK  status: ('A' for Active; 'I' for Inactive)
REMARK    1  A    between atoms: N_10  and  C_11
REMARK    2  A    between atoms: N_20  and  C_21
REMARK                            x       y       z     vdW  Elec       q    Type
REMARK                         _______ _______ _______ _____ _____    ______ ____
ROOT
ATOM      1  N   UNL     1       4.064   0.628  18.566  0.00  0.00    +0.000 N 
ATOM      2  C   UNL     1       3.904   1.957  18.361  0.00  0.00    +0.000 C 
ATOM      3  N   UNL     1       4.894   2.737  18.544  0.00  0.00    +0.000 NA
ATOM      4  C   UNL     1       4.739   4.191  18.318  0.00  0.00    +0.000 C 
ATOM      5  C   UNL     1       5.624   4.772  19.439  0.00  0.00    +0.000 C 
ATOM      6  C   UNL     1       6.216   6.153  19.207  0.00  0.00    +0.000 C 
ATOM      7  N   UNL     1       6.744   6.391  17.880  0.00  0.00    +0.000 N 
ATOM      8  C   UNL     1       7.501   7.533  17.563  0.00  0.00    +0.000 C 
ATOM      9  O   UNL     1       7.812   7.772  16.400  0.00  0.00    +0.000 OA
ATOM     10  N   UNL     1       7.825   8.351  18.633  0.00  0.00    +0.000 N 
ATOM     11  C   UNL     1       5.975   5.842  16.761  0.00  0.00    +0.000 C 
ATOM     12  C   UNL     1       5.460   4.431  16.972  0.00  0.00    +0.000 C 
ATOM     13  N   UNL     1       3.297   4.630  18.304  0.00  0.00    +0.000 N 
ATOM     14  C   UNL     1       2.410   3.614  17.992  0.00  0.00    +0.000 C 
ATOM     15  N   UNL     1       1.108   3.927  17.738  0.00  0.00    +0.000 N 
ATOM     16  N   UNL     1       2.673   2.355  17.968  0.00  0.00    +0.000 NA
ATOM     17  H   UNL     1       5.028   0.335  18.470  0.00  0.00    +0.000 HD
ATOM     18  H   UNL     1       3.398   0.070  18.049  0.00  0.00    +0.000 HD
ATOM     19  H   UNL     1       7.601   8.030  19.557  0.00  0.00    +0.000 HD
ATOM     20  H   UNL     1       0.716   4.596  18.393  0.00  0.00    +0.000 HD
ATOM     21  H   UNL     1       0.550   3.080  17.718  0.00  0.00    +0.000 HD
ENDROOT
BRANCH  10  22
ATOM     22  C   UNL     1       8.560   9.554  18.592  0.00  0.00    +0.000 A 
ATOM     23  C   UNL     1       9.667   9.822  19.404  0.00  0.00    +0.000 A 
ATOM     24  C   UNL     1      10.279  11.077  19.385  0.00  0.00    +0.000 A 
ATOM     25  C   UNL     1       9.791  12.056  18.532  0.00  0.00    +0.000 A 
ATOM     26  F   UNL     1      10.337  13.279  18.553  0.00  0.00    +0.000 F 
ATOM     27  C   UNL     1       8.734  11.794  17.671  0.00  0.00    +0.000 A 
ATOM     28  C   UNL     1       8.124  10.539  17.691  0.00  0.00    +0.000 A 
ENDBRANCH  10  22
BRANCH  13  29
ATOM     29  C   UNL     1       2.901   5.977  18.457  0.00  0.00    +0.000 A 
ATOM     30  C   UNL     1       3.051   6.938  17.438  0.00  0.00    +0.000 A 
ATOM     31  C   UNL     1       2.651   8.275  17.606  0.00  0.00    +0.000 A 
ATOM     32  C   UNL     1       2.165   8.706  18.834  0.00  0.00    +0.000 A 
ATOM     33  C   UNL     1       1.961   7.769  19.834  0.00  0.00    +0.000 A 
ATOM     34 CL   UNL     1       1.431   8.269  21.393  0.00  0.00    +0.000 Cl
ATOM     35  C   UNL     1       2.233   6.417  19.605  0.00  0.00    +0.000 A 
ENDBRANCH  13  29
TORSDOF 2
ENDMDL
MODEL 2
REMARK VINA RESULT:      -7.4      5.955      9.064
REMARK  Name = 
REMARK  2 active torsions:
REMARK  status: ('A' for Active; 'I' for Inactive)
REMARK    1  A    between atoms: N_10  and  C_11
REMARK    2  A    between atoms: N_20  and  C_21
REMARK                            x       y       z     vdW  Elec       q    Type
REMARK                         _______ _______ _______ _____ _____    ______ ____
ROOT
ATOM      1  N   UNL     1       1.584  15.634  20.444  0.00  0.00    +0.000 N 
ATOM      2  C   UNL     1       0.914  14.489  20.173  0.00  0.00    +0.000 C 
ATOM      3  N   UNL     1       1.571  13.448  19.844  0.00  0.00    +0.000 NA
ATOM      4  C   UNL     1       0.857  12.186  19.551  0.00  0.00    +0.000 C 
ATOM      5  C   UNL     1       1.707  11.612  18.401  0.00  0.00    +0.000 C 
ATOM      6  C   UNL     1       1.692  10.102  18.217  0.00  0.00    +0.000 C 
ATOM      7  N   UNL     1       1.778   9.325  19.435  0.00  0.00    +0.000 N 
ATOM      8  C   UNL     1       1.979   7.932  19.428  0.00  0.00    +0.000 C 
ATOM      9  O   UNL     1       1.906   7.287  20.470  0.00  0.00    +0.000 OA
ATOM     10  N   UNL     1       2.225   7.371  18.186  0.00  0.00    +0.000 N 
ATOM     11  C   UNL     1       1.022   9.823  20.585  0.00  0.00    +0.000 C 
ATOM     12  C   UNL     1       1.111  11.321  20.807  0.00  0.00    +0.000 C 
ATOM     13  N   UNL     1      -0.608  12.397  19.266  0.00  0.00    +0.000 N 
ATOM     14  C   UNL     1      -1.117  13.566  19.805  0.00  0.00    +0.000 C 
ATOM     15  N   UNL     1      -2.466  13.765  19.800  0.00  0.00    +0.000 N 
ATOM     16  N   UNL     1      -0.433  14.547  20.277  0.00  0.00    +0.000 NA
ATOM     17  H   UNL     1       2.539  15.465  20.734  0.00  0.00    +0.000 HD
ATOM     18  H   UNL     1       1.063  16.258  21.045  0.00  0.00    +0.000 HD
ATOM     19  H   UNL     1       2.350   7.988  17.405  0.00  0.00    +0.000 HD
ATOM     20  H   UNL     1      -2.909  13.518  18.921  0.00  0.00    +0.000 HD
ATOM     21  H   UNL     1      -2.670  14.728  20.044  0.00  0.00    +0.000 HD
ENDROOT
BRANCH  10  22
ATOM     22  C   UNL     1       2.448   6.007  17.899  0.00  0.00    +0.000 A 
ATOM     23  C   UNL     1       1.458   5.021  17.975  0.00  0.00    +0.000 A 
ATOM     24  C   UNL     1       1.777   3.676  17.782  0.00  0.00    +0.000 A 
ATOM     25  C   UNL     1       3.086   3.323  17.490  0.00  0.00    +0.000 A 
ATOM     26  F   UNL     1       3.407   2.030  17.362  0.00  0.00    +0.000 F 
ATOM     27  C   UNL     1       4.072   4.290  17.346  0.00  0.00    +0.000 A 
ATOM     28  C   UNL     1       3.752   5.635  17.539  0.00  0.00    +0.000 A 
ENDBRANCH  10  22
BRANCH  13  29
ATOM     29  C   UNL     1      -1.415  11.428  18.628  0.00  0.00    +0.000 A 
ATOM     30  C   UNL     1      -1.875  10.268  19.282  0.00  0.00    +0.000 A 
ATOM     31  C   UNL     1      -2.678   9.314  18.633  0.00  0.00    +0.000 A 
ATOM     32  C   UNL     1      -2.974   9.456  17.283  0.00  0.00    +0.000 A 
ATOM     33  C   UNL     1      -2.576  10.613  16.634  0.00  0.00    +0.000 A 
ATOM     34 CL   UNL     1      -2.856  10.798  14.945  0.00  0.00    +0.000 Cl
ATOM     35  C   UNL     1      -1.897  11.619  17.329  0.00  0.00    +0.000 A 
ENDBRANCH  13  29
TORSDOF 2
ENDMDL
MODEL 3
REMARK VINA RESULT:      -7.3      7.818     10.602
REMARK  Name = 
REMARK  2 active torsions:
REMARK  status: ('A' for Active; 'I' for Inactive)
REMARK    1  A    between atoms: N_10  and  C_11
REMARK    2  A    between atoms: N_20  and  C_21
REMARK                            x       y       z     vdW  Elec       q    Type
REMARK                         _______ _______ _______ _____ _____    ______ ____
ROOT
ATOM      1  N   UNL     1      -4.777  14.662  24.329  0.00  0.00    +0.000 N 
ATOM      2  C   UNL     1      -3.785  14.613  23.409  0.00  0.00    +0.000 C 
ATOM      3  N   UNL     1      -3.240  13.492  23.143  0.00  0.00    +0.000 NA
ATOM      4  C   UNL     1      -2.159  13.418  22.135  0.00  0.00    +0.000 C 
ATOM      5  C   UNL     1      -1.235  12.351  22.755  0.00  0.00    +0.000 C 
ATOM      6  C   UNL     1      -0.359  11.557  21.798  0.00  0.00    +0.000 C 
ATOM      7  N   UNL     1      -1.005  11.117  20.579  0.00  0.00    +0.000 N 
ATOM      8  C   UNL     1      -0.400  10.209  19.691  0.00  0.00    +0.000 C 
ATOM      9  O   UNL     1      -0.912   9.967  18.602  0.00  0.00    +0.000 OA
ATOM     10  N   UNL     1       0.795   9.657  20.124  0.00  0.00    +0.000 N 
ATOM     11  C   UNL     1      -1.923  12.065  19.946  0.00  0.00    +0.000 C 
ATOM     12  C   UNL     1      -2.851  12.791  20.903  0.00  0.00    +0.000 C 
ATOM     13  N   UNL     1      -1.538  14.761  21.845  0.00  0.00    +0.000 N 
ATOM     14  C   UNL     1      -2.365  15.831  22.140  0.00  0.00    +0.000 C 
ATOM     15  N   UNL     1      -2.004  17.079  21.726  0.00  0.00    +0.000 N 
ATOM     16  N   UNL     1      -3.447  15.789  22.834  0.00  0.00    +0.000 NA
ATOM     17  H   UNL     1      -5.251  13.774  24.436  0.00  0.00    +0.000 HD
ATOM     18  H   UNL     1      -5.389  15.456  24.201  0.00  0.00    +0.000 HD
ATOM     19  H   UNL     1       1.091   9.849  21.063  0.00  0.00    +0.000 HD
ATOM     20  H   UNL     1      -1.024  17.291  21.883  0.00  0.00    +0.000 HD
ATOM     21  H   UNL     1      -2.595  17.771  22.173  0.00  0.00    +0.000 HD
ENDROOT
BRANCH  10  22
ATOM     22  C   UNL     1       1.606   8.735  19.428  0.00  0.00    +0.000 A 
ATOM     23  C   UNL     1       2.061   8.927  18.120  0.00  0.00    +0.000 A 
ATOM     24  C   UNL     1       2.770   7.923  17.457  0.00  0.00    +0.000 A 
ATOM     25  C   UNL     1       3.040   6.734  18.118  0.00  0.00    +0.000 A 
ATOM     26  F   UNL     1       3.668   5.746  17.467  0.00  0.00    +0.000 F 
ATOM     27  C   UNL     1       2.654   6.545  19.437  0.00  0.00    +0.000 A 
ATOM     28  C   UNL     1       1.946   7.550  20.099  0.00  0.00    +0.000 A 
ENDBRANCH  10  22
BRANCH  13  29
ATOM     29  C   UNL     1      -0.287  14.907  21.206  0.00  0.00    +0.000 A 
ATOM     30  C   UNL     1      -0.152  15.021  19.809  0.00  0.00    +0.000 A 
ATOM     31  C   UNL     1       1.100  15.167  19.188  0.00  0.00    +0.000 A 
ATOM     32  C   UNL     1       2.262  15.120  19.947  0.00  0.00    +0.000 A 
ATOM     33  C   UNL     1       2.153  15.060  21.327  0.00  0.00    +0.000 A 
ATOM     34 CL   UNL     1       3.565  14.925  22.302  0.00  0.00    +0.000 Cl
ATOM     35  C   UNL     1       0.895  15.056  21.939  0.00  0.00    +0.000 A 
ENDBRANCH  13  29
TORSDOF 2
ENDMDL
MODEL 4
REMARK VINA RESULT:      -7.0      7.103     10.007
REMARK  Name = 
REMARK  2 active torsions:
REMARK  status: ('A' for Active; 'I' for Inactive)
REMARK    1  A    between atoms: N_10  and  C_11
REMARK    2  A    between atoms: N_20  and  C_21
REMARK                            x       y       z     vdW  Elec       q    Type
REMARK                         _______ _______ _______ _____ _____    ______ ____
ROOT
ATOM      1  N   UNL     1      -0.282  16.370  23.560  0.00  0.00    +0.000 N 
ATOM      2  C   UNL     1      -0.691  15.374  22.739  0.00  0.00    +0.000 C 
ATOM      3  N   UNL     1       0.051  14.348  22.590  0.00  0.00    +0.000 NA
ATOM      4  C   UNL     1      -0.383  13.247  21.703  0.00  0.00    +0.000 C 
ATOM      5  C   UNL     1       0.958  12.809  21.081  0.00  0.00    +0.000 C 
ATOM      6  C   UNL     1       1.059  11.370  20.598  0.00  0.00    +0.000 C 
ATOM      7  N   UNL     1       0.485  10.375  21.479  0.00  0.00    +0.000 N 
ATOM      8  C   UNL     1       0.672   8.995  21.280  0.00  0.00    +0.000 C 
ATOM      9  O   UNL     1       0.057   8.179  21.960  0.00  0.00    +0.000 OA
ATOM     10  N   UNL     1       1.552   8.651  20.267  0.00  0.00    +0.000 N 
ATOM     11  C   UNL     1      -0.775  10.729  22.134  0.00  0.00    +0.000 C 
ATOM     12  C   UNL     1      -0.834  12.141  22.685  0.00  0.00    +0.000 C 
ATOM     13  N   UNL     1      -1.467  13.663  20.742  0.00  0.00    +0.000 N 
ATOM     14  C   UNL     1      -2.197  14.759  21.169  0.00  0.00    +0.000 C 
ATOM     15  N   UNL     1      -3.334  15.099  20.497  0.00  0.00    +0.000 N 
ATOM     16  N   UNL     1      -1.883  15.556  22.128  0.00  0.00    +0.000 NA
ATOM     17  H   UNL     1       0.369  16.048  24.265  0.00  0.00    +0.000 HD
ATOM     18  H   UNL     1      -1.051  16.923  23.914  0.00  0.00    +0.000 HD
ATOM     19  H   UNL     1       2.071   9.386  19.823  0.00  0.00    +0.000 HD
ATOM     20  H   UNL     1      -3.233  15.069  19.488  0.00  0.00    +0.000 HD
ATOM     21  H   UNL     1      -3.647  16.015  20.797  0.00  0.00    +0.000 HD
ENDROOT
BRANCH  10  22
ATOM     22  C   UNL     1       1.908   7.349  19.855  0.00  0.00    +0.000 A 
ATOM     23  C   UNL     1       1.773   6.212  20.658  0.00  0.00    +0.000 A 
ATOM     24  C   UNL     1       2.247   4.973  20.224  0.00  0.00    +0.000 A 
ATOM     25  C   UNL     1       2.836   4.872  18.972  0.00  0.00    +0.000 A 
ATOM     26  F   UNL     1       3.345   3.699  18.575  0.00  0.00    +0.000 F 
ATOM     27  C   UNL     1       2.924   5.974  18.132  0.00  0.00    +0.000 A 
ATOM     28  C   UNL     1       2.449   7.212  18.567  0.00  0.00    +0.000 A 
ENDBRANCH  10  22
BRANCH  13  29
ATOM     29  C   UNL     1      -1.795  12.922  19.585  0.00  0.00    +0.000 A 
ATOM     30  C   UNL     1      -0.954  12.855  18.457  0.00  0.00    +0.000 A 
ATOM     31  C   UNL     1      -1.295  12.112  17.314  0.00  0.00    +0.000 A 
ATOM     32  C   UNL     1      -2.530  11.481  17.237  0.00  0.00    +0.000 A 
ATOM     33  C   UNL     1      -3.351  11.490  18.353  0.00  0.00    +0.000 A 
ATOM     34 CL   UNL     1      -4.920  10.786  18.278  0.00  0.00    +0.000 Cl
ATOM     35  C   UNL     1      -2.938  12.117  19.532  0.00  0.00    +0.000 A 
ENDBRANCH  13  29
TORSDOF 2
ENDMDL
MODEL 5
REMARK VINA RESULT:      -7.0      7.057      9.898
REMARK  Name = 
REMARK  2 active torsions:
REMARK  status: ('A' for Active; 'I' for Inactive)
REMARK    1  A    between atoms: N_10  and  C_11
REMARK    2  A    between atoms: N_20  and  C_21
REMARK                            x       y       z     vdW  Elec       q    Type
REMARK                         _______ _______ _______ _____ _____    ______ ____
ROOT
ATOM      1  N   UNL     1      -4.071  14.741  22.852  0.00  0.00    +0.000 N 
ATOM      2  C   UNL     1      -2.981  14.551  22.071  0.00  0.00    +0.000 C 
ATOM      3  N   UNL     1      -2.530  13.370  21.911  0.00  0.00    +0.000 NA
ATOM      4  C   UNL     1      -1.345  13.143  21.056  0.00  0.00    +0.000 C 
ATOM      5  C   UNL     1      -0.628  12.012  21.820  0.00  0.00    +0.000 C 
ATOM      6  C   UNL     1       0.273  11.093  21.010  0.00  0.00    +0.000 C 
ATOM      7  N   UNL     1      -0.256  10.672  19.729  0.00  0.00    +0.000 N 
ATOM      8  C   UNL     1       0.356   9.670  18.954  0.00  0.00    +0.000 C 
ATOM      9  O   UNL     1      -0.037   9.438  17.814  0.00  0.00    +0.000 OA
ATOM     10  N   UNL     1       1.419   9.016  19.554  0.00  0.00    +0.000 N 
ATOM     11  C   UNL     1      -0.979  11.682  18.955  0.00  0.00    +0.000 C 
ATOM     12  C   UNL     1      -1.937  12.540  19.761  0.00  0.00    +0.000 C 
ATOM     13  N   UNL     1      -0.550  14.401  20.813  0.00  0.00    +0.000 N 
ATOM     14  C   UNL     1      -1.288  15.562  20.966  0.00  0.00    +0.000 C 
ATOM     15  N   UNL     1      -0.745  16.748  20.568  0.00  0.00    +0.000 N 
ATOM     16  N   UNL     1      -2.448  15.661  21.513  0.00  0.00    +0.000 NA
ATOM     17  H   UNL     1      -4.648  13.911  22.920  0.00  0.00    +0.000 HD
ATOM     18  H   UNL     1      -4.573  15.588  22.622  0.00  0.00    +0.000 HD
ATOM     19  H   UNL     1       1.612   9.215  20.519  0.00  0.00    +0.000 HD
ATOM     20  H   UNL     1       0.224  16.864  20.846  0.00  0.00    +0.000 HD
ATOM     21  H   UNL     1      -1.310  17.515  20.915  0.00  0.00    +0.000 HD
ENDROOT
BRANCH  10  22
ATOM     22  C   UNL     1       2.208   7.987  18.998  0.00  0.00    +0.000 A 
ATOM     23  C   UNL     1       2.959   8.126  17.825  0.00  0.00    +0.000 A 
ATOM     24  C   UNL     1       3.629   7.033  17.274  0.00  0.00    +0.000 A 
ATOM     25  C   UNL     1       3.563   5.803  17.914  0.00  0.00    +0.000 A 
ATOM     26  F   UNL     1       4.156   4.739  17.359  0.00  0.00    +0.000 F 
ATOM     27  C   UNL     1       2.878   5.656  19.112  0.00  0.00    +0.000 A 
ATOM     28  C   UNL     1       2.208   6.751  19.662  0.00  0.00    +0.000 A 
ENDBRANCH  10  22
BRANCH  13  29
ATOM     29  C   UNL     1       0.781  14.390  20.339  0.00  0.00    +0.000 A 
ATOM     30  C   UNL     1       1.103  14.400  18.968  0.00  0.00    +0.000 A 
ATOM     31  C   UNL     1       2.433  14.390  18.513  0.00  0.00    +0.000 A 
ATOM     32  C   UNL     1       3.478  14.288  19.422  0.00  0.00    +0.000 A 
ATOM     33  C   UNL     1       3.188  14.329  20.776  0.00  0.00    +0.000 A 
ATOM     34 CL   UNL     1       4.443  14.131  21.937  0.00  0.00    +0.000 Cl
ATOM     35  C   UNL     1       1.869  14.479  21.214  0.00  0.00    +0.000 A 
ENDBRANCH  13  29
TORSDOF 2
ENDMDL
MODEL 6
REMARK VINA RESULT:      -6.9      8.106     10.909
REMARK  Name = 
REMARK  2 active torsions:
REMARK  status: ('A' for Active; 'I' for Inactive)
REMARK    1  A    between atoms: N_10  and  C_11
REMARK    2  A    between atoms: N_20  and  C_21
REMARK                            x       y       z     vdW  Elec       q    Type
REMARK                         _______ _______ _______ _____ _____    ______ ____
ROOT
ATOM      1  N   UNL     1      -5.238  14.803  24.232  0.00  0.00    +0.000 N 
ATOM      2  C   UNL     1      -4.167  14.779  23.404  0.00  0.00    +0.000 C 
ATOM      3  N   UNL     1      -3.630  13.660  23.115  0.00  0.00    +0.000 NA
ATOM      4  C   UNL     1      -2.464  13.614  22.207  0.00  0.00    +0.000 C 
ATOM      5  C   UNL     1      -1.631  12.479  22.835  0.00  0.00    +0.000 C 
ATOM      6  C   UNL     1      -0.692  11.718  21.912  0.00  0.00    +0.000 C 
ATOM      7  N   UNL     1      -1.234  11.379  20.613  0.00  0.00    +0.000 N 
ATOM      8  C   UNL     1      -0.574  10.509  19.725  0.00  0.00    +0.000 C 
ATOM      9  O   UNL     1      -0.990  10.354  18.581  0.00  0.00    +0.000 OA
ATOM     10  N   UNL     1       0.559   9.890  20.227  0.00  0.00    +0.000 N 
ATOM     11  C   UNL     1      -2.063  12.395  19.964  0.00  0.00    +0.000 C 
ATOM     12  C   UNL     1      -3.055  13.090  20.878  0.00  0.00    +0.000 C 
ATOM     13  N   UNL     1      -1.781  14.950  22.064  0.00  0.00    +0.000 N 
ATOM     14  C   UNL     1      -2.602  16.027  22.353  0.00  0.00    +0.000 C 
ATOM     15  N   UNL     1      -2.170  17.286  22.056  0.00  0.00    +0.000 N 
ATOM     16  N   UNL     1      -3.744  15.977  22.941  0.00  0.00    +0.000 NA
ATOM     17  H   UNL     1      -5.744  13.927  24.236  0.00  0.00    +0.000 HD
ATOM     18  H   UNL     1      -5.813  15.624  24.102  0.00  0.00    +0.000 HD
ATOM     19  H   UNL     1       0.772  10.012  21.200  0.00  0.00    +0.000 HD
ATOM     20  H   UNL     1      -1.203  17.455  22.316  0.00  0.00    +0.000 HD
ATOM     21  H   UNL     1      -2.780  17.968  22.493  0.00  0.00    +0.000 HD
ENDROOT
BRANCH  10  22
ATOM     22  C   UNL     1       1.406   8.988  19.548  0.00  0.00    +0.000 A 
ATOM     23  C   UNL     1       1.923   9.214  18.269  0.00  0.00    +0.000 A 
ATOM     24  C   UNL     1       2.666   8.228  17.616  0.00  0.00    +0.000 A 
ATOM     25  C   UNL     1       2.907   7.023  18.259  0.00  0.00    +0.000 A 
ATOM     26  F   UNL     1       3.568   6.053  17.614  0.00  0.00    +0.000 F 
ATOM     27  C   UNL     1       2.457   6.800  19.553  0.00  0.00    +0.000 A 
ATOM     28  C   UNL     1       1.716   7.786  20.205  0.00  0.00    +0.000 A 
ENDBRANCH  10  22
BRANCH  13  29
ATOM     29  C   UNL     1      -0.472  15.095  21.552  0.00  0.00    +0.000 A 
ATOM     30  C   UNL     1       0.681  14.866  22.328  0.00  0.00    +0.000 A 
ATOM     31  C   UNL     1       1.976  15.013  21.803  0.00  0.00    +0.000 A 
ATOM     32  C   UNL     1       2.152  15.475  20.505  0.00  0.00    +0.000 A 
ATOM     33  C   UNL     1       1.034  15.657  19.708  0.00  0.00    +0.000 A 
ATOM     34 CL   UNL     1       1.200  16.298  18.118  0.00  0.00    +0.000 Cl
ATOM     35  C   UNL     1      -0.243  15.373  20.201  0.00  0.00    +0.000 A 
ENDBRANCH  13  29
TORSDOF 2
ENDMDL
MODEL 7
REMARK VINA RESULT:      -6.8      9.203     11.509
REMARK  Name = 
REMARK  2 active torsions:
REMARK  status: ('A' for Active; 'I' for Inactive)
REMARK    1  A    between atoms: N_10  and  C_11
REMARK    2  A    between atoms: N_20  and  C_21
REMARK                            x       y       z     vdW  Elec       q    Type
REMARK                         _______ _______ _______ _____ _____    ______ ____
ROOT
ATOM      1  N   UNL     1      -7.550  13.887  24.575  0.00  0.00    +0.000 N 
ATOM      2  C   UNL     1      -6.888  13.423  23.488  0.00  0.00    +0.000 C 
ATOM      3  N   UNL     1      -5.773  13.950  23.169  0.00  0.00    +0.000 NA
ATOM      4  C   UNL     1      -5.032  13.451  21.988  0.00  0.00    +0.000 C 
ATOM      5  C   UNL     1      -4.432  14.757  21.430  0.00  0.00    +0.000 C 
ATOM      6  C   UNL     1      -3.155  14.636  20.613  0.00  0.00    +0.000 C 
ATOM      7  N   UNL     1      -2.159  13.729  21.143  0.00  0.00    +0.000 N 
ATOM      8  C   UNL     1      -0.853  13.655  20.624  0.00  0.00    +0.000 C 
ATOM      9  O   UNL     1      -0.081  12.780  21.002  0.00  0.00    +0.000 OA
ATOM     10  N   UNL     1      -0.539  14.602  19.662  0.00  0.00    +0.000 N 
ATOM     11  C   UNL     1      -2.653  12.478  21.721  0.00  0.00    +0.000 C 
ATOM     12  C   UNL     1      -3.880  12.623  22.602  0.00  0.00    +0.000 C 
ATOM     13  N   UNL     1      -5.900  12.653  21.049  0.00  0.00    +0.000 N 
ATOM     14  C   UNL     1      -7.018  12.105  21.655  0.00  0.00    +0.000 C 
ATOM     15  N   UNL     1      -7.762  11.192  20.968  0.00  0.00    +0.000 N 
ATOM     16  N   UNL     1      -7.483  12.413  22.814  0.00  0.00    +0.000 NA
ATOM     17  H   UNL     1      -6.932  14.330  25.244  0.00  0.00    +0.000 HD
ATOM     18  H   UNL     1      -8.180  13.202  24.969  0.00  0.00    +0.000 HD
ATOM     19  H   UNL     1      -1.206  15.329  19.479  0.00  0.00    +0.000 HD
ATOM     20  H   UNL     1      -7.932  11.452  20.002  0.00  0.00    +0.000 HD
ATOM     21  H   UNL     1      -8.637  11.031  21.454  0.00  0.00    +0.000 HD
ENDROOT
BRANCH  10  22
ATOM     22  C   UNL     1       0.686  14.743  18.976  0.00  0.00    +0.000 A 
ATOM     23  C   UNL     1       1.381  13.679  18.393  0.00  0.00    +0.000 A 
ATOM     24  C   UNL     1       2.641  13.877  17.825  0.00  0.00    +0.000 A 
ATOM     25  C   UNL     1       3.193  15.149  17.824  0.00  0.00    +0.000 A 
ATOM     26  F   UNL     1       4.426  15.333  17.334  0.00  0.00    +0.000 F 
ATOM     27  C   UNL     1       2.495  16.232  18.341  0.00  0.00    +0.000 A 
ATOM     28  C   UNL     1       1.235  16.033  18.908  0.00  0.00    +0.000 A 
ENDBRANCH  10  22
BRANCH  13  29
ATOM     29  C   UNL     1      -5.535  12.376  19.713  0.00  0.00    +0.000 A 
ATOM     30  C   UNL     1      -6.121  13.027  18.610  0.00  0.00    +0.000 A 
ATOM     31  C   UNL     1      -5.746  12.741  17.287  0.00  0.00    +0.000 A 
ATOM     32  C   UNL     1      -4.827  11.731  17.028  0.00  0.00    +0.000 A 
ATOM     33  C   UNL     1      -4.200  11.113  18.097  0.00  0.00    +0.000 A 
ATOM     34 CL   UNL     1      -3.112   9.807  17.825  0.00  0.00    +0.000 Cl
ATOM     35  C   UNL     1      -4.482  11.506  19.408  0.00  0.00    +0.000 A 
ENDBRANCH  13  29
TORSDOF 2
ENDMDL
MODEL 8
REMARK VINA RESULT:      -6.8      3.739      5.554
REMARK  Name = 
REMARK  2 active torsions:
REMARK  status: ('A' for Active; 'I' for Inactive)
REMARK    1  A    between atoms: N_10  and  C_11
REMARK    2  A    between atoms: N_20  and  C_21
REMARK                            x       y       z     vdW  Elec       q    Type
REMARK                         _______ _______ _______ _____ _____    ______ ____
ROOT
ATOM      1  N   UNL     1       0.892   1.166  18.954  0.00  0.00    +0.000 N 
ATOM      2  C   UNL     1       1.733   2.228  18.965  0.00  0.00    +0.000 C 
ATOM      3  N   UNL     1       1.253   3.400  18.822  0.00  0.00    +0.000 NA
ATOM      4  C   UNL     1       2.155   4.573  18.838  0.00  0.00    +0.000 C 
ATOM      5  C   UNL     1       1.491   5.484  17.786  0.00  0.00    +0.000 C 
ATOM      6  C   UNL     1       1.728   6.980  17.920  0.00  0.00    +0.000 C 
ATOM      7  N   UNL     1       1.645   7.506  19.266  0.00  0.00    +0.000 N 
ATOM      8  C   UNL     1       1.637   8.887  19.537  0.00  0.00    +0.000 C 
ATOM      9  O   UNL     1       1.708   9.296  20.692  0.00  0.00    +0.000 OA
ATOM     10  N   UNL     1       1.575   9.713  18.426  0.00  0.00    +0.000 N 
ATOM     11  C   UNL     1       2.226   6.683  20.328  0.00  0.00    +0.000 C 
ATOM     12  C   UNL     1       1.915   5.201  20.229  0.00  0.00    +0.000 C 
ATOM     13  N   UNL     1       3.597   4.204  18.596  0.00  0.00    +0.000 N 
ATOM     14  C   UNL     1       3.894   2.889  18.909  0.00  0.00    +0.000 C 
ATOM     15  N   UNL     1       5.199   2.494  18.937  0.00  0.00    +0.000 N 
ATOM     16  N   UNL     1       3.045   1.948  19.129  0.00  0.00    +0.000 NA
ATOM     17  H   UNL     1      -0.052   1.417  19.220  0.00  0.00    +0.000 HD
ATOM     18  H   UNL     1       1.271   0.365  19.441  0.00  0.00    +0.000 HD
ATOM     19  H   UNL     1       1.434   9.287  17.528  0.00  0.00    +0.000 HD
ATOM     20  H   UNL     1       5.744   2.840  18.154  0.00  0.00    +0.000 HD
ATOM     21  H   UNL     1       5.249   1.483  18.988  0.00  0.00    +0.000 HD
ENDROOT
BRANCH  10  22
ATOM     22  C   UNL     1       1.566  11.124  18.415  0.00  0.00    +0.000 A 
ATOM     23  C   UNL     1       2.653  11.909  18.020  0.00  0.00    +0.000 A 
ATOM     24  C   UNL     1       2.609  13.300  18.139  0.00  0.00    +0.000 A 
ATOM     25  C   UNL     1       1.462  13.902  18.634  0.00  0.00    +0.000 A 
ATOM     26  F   UNL     1       1.436  15.230  18.805  0.00  0.00    +0.000 F 
ATOM     27  C   UNL     1       0.347  13.148  18.973  0.00  0.00    +0.000 A 
ATOM     28  C   UNL     1       0.392  11.758  18.854  0.00  0.00    +0.000 A 
ENDBRANCH  10  22
BRANCH  13  29
ATOM     29  C   UNL     1       4.579   5.147  18.219  0.00  0.00    +0.000 A 
ATOM     30  C   UNL     1       4.447   5.975  17.087  0.00  0.00    +0.000 A 
ATOM     31  C   UNL     1       5.433   6.909  16.725  0.00  0.00    +0.000 A 
ATOM     32  C   UNL     1       6.619   6.981  17.444  0.00  0.00    +0.000 A 
ATOM     33  C   UNL     1       6.749   6.214  18.590  0.00  0.00    +0.000 A 
ATOM     34 CL   UNL     1       8.229   6.217  19.470  0.00  0.00    +0.000 Cl
ATOM     35  C   UNL     1       5.702   5.392  19.016  0.00  0.00    +0.000 A 
ENDBRANCH  13  29
TORSDOF 2
ENDMDL
MODEL 9
REMARK VINA RESULT:      -6.7      7.179     10.042
REMARK  Name = 
REMARK  2 active torsions:
REMARK  status: ('A' for Active; 'I' for Inactive)
REMARK    1  A    between atoms: N_10  and  C_11
REMARK    2  A    between atoms: N_20  and  C_21
REMARK                            x       y       z     vdW  Elec       q    Type
REMARK                         _______ _______ _______ _____ _____    ______ ____
ROOT
ATOM      1  N   UNL     1      -4.325  14.866  22.526  0.00  0.00    +0.000 N 
ATOM      2  C   UNL     1      -3.154  14.675  21.872  0.00  0.00    +0.000 C 
ATOM      3  N   UNL     1      -2.724  13.487  21.705  0.00  0.00    +0.000 NA
ATOM      4  C   UNL     1      -1.451  13.258  20.986  0.00  0.00    +0.000 C 
ATOM      5  C   UNL     1      -0.867  12.066  21.771  0.00  0.00    +0.000 C 
ATOM      6  C   UNL     1       0.096  11.155  21.026  0.00  0.00    +0.000 C 
ATOM      7  N   UNL     1      -0.286  10.817  19.671  0.00  0.00    +0.000 N 
ATOM      8  C   UNL     1       0.384   9.832  18.923  0.00  0.00    +0.000 C 
ATOM      9  O   UNL     1       0.125   9.669  17.734  0.00  0.00    +0.000 OA
ATOM     10  N   UNL     1       1.346   9.110  19.610  0.00  0.00    +0.000 N 
ATOM     11  C   UNL     1      -0.879  11.889  18.871  0.00  0.00    +0.000 C 
ATOM     12  C   UNL     1      -1.900  12.741  19.601  0.00  0.00    +0.000 C 
ATOM     13  N   UNL     1      -0.595  14.496  20.907  0.00  0.00    +0.000 N 
ATOM     14  C   UNL     1      -1.309  15.675  21.032  0.00  0.00    +0.000 C 
ATOM     15  N   UNL     1      -0.686  16.858  20.765  0.00  0.00    +0.000 N 
ATOM     16  N   UNL     1      -2.523  15.790  21.441  0.00  0.00    +0.000 NA
ATOM     17  H   UNL     1      -4.931  14.057  22.481  0.00  0.00    +0.000 HD
ATOM     18  H   UNL     1      -4.769  15.742  22.283  0.00  0.00    +0.000 HD
ATOM     19  H   UNL     1       1.427   9.255  20.600  0.00  0.00    +0.000 HD
ATOM     20  H   UNL     1       0.245  16.925  21.162  0.00  0.00    +0.000 HD
ATOM     21  H   UNL     1      -1.265  17.628  21.081  0.00  0.00    +0.000 HD
ENDROOT
BRANCH  10  22
ATOM     22  C   UNL     1       2.164   8.081  19.098  0.00  0.00    +0.000 A 
ATOM     23  C   UNL     1       2.877   8.175  17.898  0.00  0.00    +0.000 A 
ATOM     24  C   UNL     1       3.581   7.077  17.400  0.00  0.00    +0.000 A 
ATOM     25  C   UNL     1       3.585   5.890  18.119  0.00  0.00    +0.000 A 
ATOM     26  F   UNL     1       4.209   4.817  17.616  0.00  0.00    +0.000 F 
ATOM     27  C   UNL     1       2.937   5.793  19.342  0.00  0.00    +0.000 A 
ATOM     28  C   UNL     1       2.235   6.892  19.840  0.00  0.00    +0.000 A 
ENDBRANCH  10  22
BRANCH  13  29
ATOM     29  C   UNL     1       0.783  14.460  20.595  0.00  0.00    +0.000 A 
ATOM     30  C   UNL     1       1.774  14.169  21.553  0.00  0.00    +0.000 A 
ATOM     31  C   UNL     1       3.141  14.136  21.227  0.00  0.00    +0.000 A 
ATOM     32  C   UNL     1       3.558  14.475  19.946  0.00  0.00    +0.000 A 
ATOM     33  C   UNL     1       2.599  14.714  18.976  0.00  0.00    +0.000 A 
ATOM     34 CL   UNL     1       3.071  15.209  17.396  0.00  0.00    +0.000 Cl
ATOM     35  C   UNL     1       1.239  14.607  19.281  0.00  0.00    +0.000 A 
ENDBRANCH  13  29
TORSDOF 2
ENDMDL
