MODEL 1
REMARK VINA RESULT:      -7.3      0.000      0.000
REMARK  Name = 
REMARK  8 active torsions:
REMARK  status: ('A' for Active; 'I' for Inactive)
REMARK    1  A    between atoms: C_1  and  C_2
REMARK    2  A    between atoms: C_5  and  C_6
REMARK    3  A    between atoms: C_6  and  N_7
REMARK    4  A    between atoms: N_7  and  C_8
REMARK    5  A    between atoms: N_7  and  C_16
REMARK    6  A    between atoms: C_8  and  C_9
REMARK    7  A    between atoms: C_16  and  C_17
REMARK    8  A    between atoms: C_16  and  C_18
REMARK                            x       y       z     vdW  Elec       q    Type
REMARK                         _______ _______ _______ _____ _____    ______ ____
ROOT
ATOM      1  N   UNL     1       6.041   5.899  17.622  0.00  0.00    +0.000 NA
ENDROOT
BRANCH   1   2
ATOM      2  C   UNL     1       7.457   6.317  17.789  0.00  0.00    +0.000 C 
ATOM      3  C   UNL     1       7.666   7.836  17.621  0.00  0.00    +0.000 C 
ATOM      4  C   UNL     1       8.022   5.974  19.182  0.00  0.00    +0.000 C 
ENDBRANCH   1   2
BRANCH   1   5
ATOM      5  C   UNL     1       5.515   6.185  16.262  0.00  0.00    +0.000 C 
BRANCH   5  10
ATOM      6  C   UNL     1       5.673   3.203  12.426  0.00  0.00    +0.000 C 
ATOM      7  C   UNL     1       6.197   4.132  13.441  0.00  0.00    +0.000 A 
ATOM      8  N   UNL     1       7.394   4.662  13.546  0.00  0.00    +0.000 NA
ATOM      9  N   UNL     1       7.353   5.503  14.638  0.00  0.00    +0.000 NA
ATOM     10  C   UNL     1       6.133   5.414  15.135  0.00  0.00    +0.000 A 
ATOM     11  O   UNL     1       5.336   4.555  14.421  0.00  0.00    +0.000 OA
ENDBRANCH   5  10
ENDBRANCH   1   5
BRANCH   1  12
ATOM     12  C   UNL     1       5.768   4.506  18.044  0.00  0.00    +0.000 C 
BRANCH  12  13
ATOM     13  C   UNL     1       4.319   4.084  18.219  0.00  0.00    +0.000 A 
ATOM     14  C   UNL     1       3.713   3.228  17.288  0.00  0.00    +0.000 A 
ATOM     15  C   UNL     1       2.361   2.887  17.394  0.00  0.00    +0.000 A 
ATOM     16  C   UNL     1       1.590   3.398  18.433  0.00  0.00    +0.000 A 
ATOM     17  C   UNL     1       2.178   4.240  19.369  0.00  0.00    +0.000 A 
ATOM     18 CL   UNL     1       1.233   4.876  20.660  0.00  0.00    +0.000 Cl
ATOM     19  C   UNL     1       3.527   4.586  19.263  0.00  0.00    +0.000 A 
ENDBRANCH  12  13
ENDBRANCH   1  12
TORSDOF 5
ENDMDL
MODEL 2
REMARK VINA RESULT:      -7.2      1.484      2.299
REMARK  Name = 
REMARK  8 active torsions:
REMARK  status: ('A' for Active; 'I' for Inactive)
REMARK    1  A    between atoms: C_1  and  C_2
REMARK    2  A    between atoms: C_5  and  C_6
REMARK    3  A    between atoms: C_6  and  N_7
REMARK    4  A    between atoms: N_7  and  C_8
REMARK    5  A    between atoms: N_7  and  C_16
REMARK    6  A    between atoms: C_8  and  C_9
REMARK    7  A    between atoms: C_16  and  C_17
REMARK    8  A    between atoms: C_16  and  C_18
REMARK                            x       y       z     vdW  Elec       q    Type
REMARK                         _______ _______ _______ _____ _____    ______ ____
ROOT
ATOM      1  N   UNL     1       5.127   5.912  17.371  0.00  0.00    +0.000 NA
ENDROOT
BRANCH   1   2
ATOM      2  C   UNL     1       5.824   5.623  18.652  0.00  0.00    +0.000 C 
ATOM      3  C   UNL     1       5.789   4.131  19.040  0.00  0.00    +0.000 C 
ATOM      4  C   UNL     1       7.317   6.007  18.619  0.00  0.00    +0.000 C 
ENDBRANCH   1   2
BRANCH   1   5
ATOM      5  C   UNL     1       5.149   4.759  16.434  0.00  0.00    +0.000 C 
BRANCH   5  10
ATOM      6  C   UNL     1       7.007   3.906  12.023  0.00  0.00    +0.000 C 
ATOM      7  C   UNL     1       6.944   4.481  13.378  0.00  0.00    +0.000 A 
ATOM      8  N   UNL     1       7.730   5.366  13.945  0.00  0.00    +0.000 NA
ATOM      9  N   UNL     1       7.209   5.604  15.199  0.00  0.00    +0.000 NA
ATOM     10  C   UNL     1       6.145   4.830  15.316  0.00  0.00    +0.000 A 
ATOM     11  O   UNL     1       5.913   4.081  14.190  0.00  0.00    +0.000 OA
ENDBRANCH   5  10
ENDBRANCH   1   5
BRANCH   1  12
ATOM     12  C   UNL     1       3.766   6.472  17.536  0.00  0.00    +0.000 C 
BRANCH  12  13
ATOM     13  C   UNL     1       2.817   5.769  18.490  0.00  0.00    +0.000 A 
ATOM     14  C   UNL     1       2.558   6.307  19.759  0.00  0.00    +0.000 A 
ATOM     15  C   UNL     1       1.743   5.637  20.676  0.00  0.00    +0.000 A 
ATOM     16  C   UNL     1       1.173   4.413  20.341  0.00  0.00    +0.000 A 
ATOM     17  C   UNL     1       1.411   3.870  19.084  0.00  0.00    +0.000 A 
ATOM     18 CL   UNL     1       0.708   2.358  18.657  0.00  0.00    +0.000 Cl
ATOM     19  C   UNL     1       2.228   4.535  18.168  0.00  0.00    +0.000 A 
ENDBRANCH  12  13
ENDBRANCH   1  12
TORSDOF 5
ENDMDL
MODEL 3
REMARK VINA RESULT:      -7.1      0.984      1.409
REMARK  Name = 
REMARK  8 active torsions:
REMARK  status: ('A' for Active; 'I' for Inactive)
REMARK    1  A    between atoms: C_1  and  C_2
REMARK    2  A    between atoms: C_5  and  C_6
REMARK    3  A    between atoms: C_6  and  N_7
REMARK    4  A    between atoms: N_7  and  C_8
REMARK    5  A    between atoms: N_7  and  C_16
REMARK    6  A    between atoms: C_8  and  C_9
REMARK    7  A    between atoms: C_16  and  C_17
REMARK    8  A    between atoms: C_16  and  C_18
REMARK                            x       y       z     vdW  Elec       q    Type
REMARK                         _______ _______ _______ _____ _____    ______ ____
ROOT
ATOM      1  N   UNL     1       5.820   4.957  17.369  0.00  0.00    +0.000 NA
ENDROOT
BRANCH   1   2
ATOM      2  C   UNL     1       5.751   6.418  17.630  0.00  0.00    +0.000 C 
ATOM      3  C   UNL     1       7.128   7.111  17.575  0.00  0.00    +0.000 C 
ATOM      4  C   UNL     1       4.870   7.167  16.610  0.00  0.00    +0.000 C 
ENDBRANCH   1   2
BRANCH   1   5
ATOM      5  C   UNL     1       7.098   4.548  16.731  0.00  0.00    +0.000 C 
BRANCH   5  10
ATOM      6  C   UNL     1       5.765   3.316  12.221  0.00  0.00    +0.000 C 
ATOM      7  C   UNL     1       6.522   4.034  13.261  0.00  0.00    +0.000 A 
ATOM      8  N   UNL     1       7.379   5.020  13.136  0.00  0.00    +0.000 NA
ATOM      9  N   UNL     1       7.763   5.366  14.414  0.00  0.00    +0.000 NA
ATOM     10  C   UNL     1       7.123   4.551  15.232  0.00  0.00    +0.000 A 
ATOM     11  O   UNL     1       6.310   3.669  14.566  0.00  0.00    +0.000 OA
ENDBRANCH   5  10
ENDBRANCH   1   5
BRANCH   1  12
ATOM     12  C   UNL     1       5.487   4.117  18.543  0.00  0.00    +0.000 C 
BRANCH  12  13
ATOM     13  C   UNL     1       4.084   3.543  18.634  0.00  0.00    +0.000 A 
ATOM     14  C   UNL     1       3.702   2.468  17.818  0.00  0.00    +0.000 A 
ATOM     15  C   UNL     1       2.395   1.974  17.839  0.00  0.00    +0.000 A 
ATOM     16  C   UNL     1       1.443   2.548  18.675  0.00  0.00    +0.000 A 
ATOM     17  C   UNL     1       1.807   3.608  19.498  0.00  0.00    +0.000 A 
ATOM     18 CL   UNL     1       0.638   4.324  20.538  0.00  0.00    +0.000 Cl
ATOM     19  C   UNL     1       3.111   4.106  19.476  0.00  0.00    +0.000 A 
ENDBRANCH  12  13
ENDBRANCH   1  12
TORSDOF 5
ENDMDL
MODEL 4
REMARK VINA RESULT:      -7.1      1.026      1.323
REMARK  Name = 
REMARK  8 active torsions:
REMARK  status: ('A' for Active; 'I' for Inactive)
REMARK    1  A    between atoms: C_1  and  C_2
REMARK    2  A    between atoms: C_5  and  C_6
REMARK    3  A    between atoms: C_6  and  N_7
REMARK    4  A    between atoms: N_7  and  C_8
REMARK    5  A    between atoms: N_7  and  C_16
REMARK    6  A    between atoms: C_8  and  C_9
REMARK    7  A    between atoms: C_16  and  C_17
REMARK    8  A    between atoms: C_16  and  C_18
REMARK                            x       y       z     vdW  Elec       q    Type
REMARK                         _______ _______ _______ _____ _____    ______ ____
ROOT
ATOM      1  N   UNL     1       5.438   5.571  17.408  0.00  0.00    +0.000 NA
ENDROOT
BRANCH   1   2
ATOM      2  C   UNL     1       6.689   5.889  18.145  0.00  0.00    +0.000 C 
ATOM      3  C   UNL     1       7.730   4.751  18.094  0.00  0.00    +0.000 C 
ATOM      4  C   UNL     1       7.410   7.134  17.590  0.00  0.00    +0.000 C 
ENDBRANCH   1   2
BRANCH   1   5
ATOM      5  C   UNL     1       5.424   6.135  16.034  0.00  0.00    +0.000 C 
BRANCH   5  10
ATOM      6  C   UNL     1       5.620   3.100  12.241  0.00  0.00    +0.000 C 
ATOM      7  C   UNL     1       6.143   3.993  13.289  0.00  0.00    +0.000 A 
ATOM      8  N   UNL     1       7.370   4.416  13.488  0.00  0.00    +0.000 NA
ATOM      9  N   UNL     1       7.317   5.271  14.568  0.00  0.00    +0.000 NA
ATOM     10  C   UNL     1       6.058   5.298  14.965  0.00  0.00    +0.000 A 
ATOM     11  O   UNL     1       5.247   4.502  14.194  0.00  0.00    +0.000 OA
ENDBRANCH   5  10
ENDBRANCH   1   5
BRANCH   1  12
ATOM     12  C   UNL     1       5.073   4.136  17.427  0.00  0.00    +0.000 C 
BRANCH  12  13
ATOM     13  C   UNL     1       3.775   3.739  18.108  0.00  0.00    +0.000 A 
ATOM     14  C   UNL     1       2.560   3.801  17.410  0.00  0.00    +0.000 A 
ATOM     15  C   UNL     1       1.348   3.507  18.041  0.00  0.00    +0.000 A 
ATOM     16  C   UNL     1       1.328   3.149  19.386  0.00  0.00    +0.000 A 
ATOM     17  C   UNL     1       2.524   3.073  20.090  0.00  0.00    +0.000 A 
ATOM     18 CL   UNL     1       2.512   2.627  21.752  0.00  0.00    +0.000 Cl
ATOM     19  C   UNL     1       3.736   3.370  19.462  0.00  0.00    +0.000 A 
ENDBRANCH  12  13
ENDBRANCH   1  12
TORSDOF 5
ENDMDL
MODEL 5
REMARK VINA RESULT:      -7.1      1.460      1.792
REMARK  Name = 
REMARK  8 active torsions:
REMARK  status: ('A' for Active; 'I' for Inactive)
REMARK    1  A    between atoms: C_1  and  C_2
REMARK    2  A    between atoms: C_5  and  C_6
REMARK    3  A    between atoms: C_6  and  N_7
REMARK    4  A    between atoms: N_7  and  C_8
REMARK    5  A    between atoms: N_7  and  C_16
REMARK    6  A    between atoms: C_8  and  C_9
REMARK    7  A    between atoms: C_16  and  C_17
REMARK    8  A    between atoms: C_16  and  C_18
REMARK                            x       y       z     vdW  Elec       q    Type
REMARK                         _______ _______ _______ _____ _____    ______ ____
ROOT
ATOM      1  N   UNL     1       5.524   5.045  17.301  0.00  0.00    +0.000 NA
ENDROOT
BRANCH   1   2
ATOM      2  C   UNL     1       5.146   6.480  17.220  0.00  0.00    +0.000 C 
ATOM      3  C   UNL     1       4.899   6.963  15.776  0.00  0.00    +0.000 C 
ATOM      4  C   UNL     1       3.850   6.801  17.991  0.00  0.00    +0.000 C 
ENDBRANCH   1   2
BRANCH   1   5
ATOM      5  C   UNL     1       6.900   4.786  16.804  0.00  0.00    +0.000 C 
BRANCH   5  10
ATOM      6  C   UNL     1       5.924   3.350  12.263  0.00  0.00    +0.000 C 
ATOM      7  C   UNL     1       6.619   4.092  13.328  0.00  0.00    +0.000 A 
ATOM      8  N   UNL     1       7.535   5.028  13.231  0.00  0.00    +0.000 NA
ATOM      9  N   UNL     1       7.818   5.431  14.519  0.00  0.00    +0.000 NA
ATOM     10  C   UNL     1       7.063   4.698  15.316  0.00  0.00    +0.000 A 
ATOM     11  O   UNL     1       6.270   3.817  14.626  0.00  0.00    +0.000 OA
ENDBRANCH   5  10
ENDBRANCH   1   5
BRANCH   1  12
ATOM     12  C   UNL     1       5.285   4.431  18.628  0.00  0.00    +0.000 C 
BRANCH  12  13
ATOM     13  C   UNL     1       4.040   3.579  18.804  0.00  0.00    +0.000 A 
ATOM     14  C   UNL     1       3.476   2.912  17.707  0.00  0.00    +0.000 A 
ATOM     15  C   UNL     1       2.291   2.181  17.837  0.00  0.00    +0.000 A 
ATOM     16  C   UNL     1       1.646   2.106  19.068  0.00  0.00    +0.000 A 
ATOM     17  C   UNL     1       2.197   2.754  20.168  0.00  0.00    +0.000 A 
ATOM     18 CL   UNL     1       1.410   2.666  21.696  0.00  0.00    +0.000 Cl
ATOM     19  C   UNL     1       3.379   3.488  20.040  0.00  0.00    +0.000 A 
ENDBRANCH  12  13
ENDBRANCH   1  12
TORSDOF 5
ENDMDL
MODEL 6
REMARK VINA RESULT:      -7.1      1.465      1.737
REMARK  Name = 
REMARK  8 active torsions:
REMARK  status: ('A' for Active; 'I' for Inactive)
REMARK    1  A    between atoms: C_1  and  C_2
REMARK    2  A    between atoms: C_5  and  C_6
REMARK    3  A    between atoms: C_6  and  N_7
REMARK    4  A    between atoms: N_7  and  C_8
REMARK    5  A    between atoms: N_7  and  C_16
REMARK    6  A    between atoms: C_8  and  C_9
REMARK    7  A    between atoms: C_16  and  C_17
REMARK    8  A    between atoms: C_16  and  C_18
REMARK                            x       y       z     vdW  Elec       q    Type
REMARK                         _______ _______ _______ _____ _____    ______ ____
ROOT
ATOM      1  N   UNL     1       6.304   5.080  17.869  0.00  0.00    +0.000 NA
ENDROOT
BRANCH   1   2
ATOM      2  C   UNL     1       6.868   6.283  18.536  0.00  0.00    +0.000 C 
ATOM      3  C   UNL     1       8.024   5.956  19.503  0.00  0.00    +0.000 C 
ATOM      4  C   UNL     1       7.441   7.307  17.536  0.00  0.00    +0.000 C 
ENDBRANCH   1   2
BRANCH   1   5
ATOM      5  C   UNL     1       7.278   4.419  16.963  0.00  0.00    +0.000 C 
BRANCH   5  10
ATOM      6  C   UNL     1       7.737   5.431  12.230  0.00  0.00    +0.000 C 
ATOM      7  C   UNL     1       7.144   4.824  13.433  0.00  0.00    +0.000 A 
ATOM      8  N   UNL     1       6.169   3.950  13.531  0.00  0.00    +0.000 NA
ATOM      9  N   UNL     1       6.033   3.667  14.874  0.00  0.00    +0.000 NA
ATOM     10  C   UNL     1       6.928   4.404  15.506  0.00  0.00    +0.000 A 
ATOM     11  O   UNL     1       7.676   5.172  14.649  0.00  0.00    +0.000 OA
ENDBRANCH   5  10
ENDBRANCH   1   5
BRANCH   1  12
ATOM     12  C   UNL     1       5.661   4.120  18.795  0.00  0.00    +0.000 C 
BRANCH  12  13
ATOM     13  C   UNL     1       4.152   3.968  18.729  0.00  0.00    +0.000 A 
ATOM     14  C   UNL     1       3.450   4.353  17.578  0.00  0.00    +0.000 A 
ATOM     15  C   UNL     1       2.054   4.285  17.526  0.00  0.00    +0.000 A 
ATOM     16  C   UNL     1       1.334   3.833  18.627  0.00  0.00    +0.000 A 
ATOM     17  C   UNL     1       2.015   3.438  19.773  0.00  0.00    +0.000 A 
ATOM     18 CL   UNL     1       1.134   2.874  21.140  0.00  0.00    +0.000 Cl
ATOM     19  C   UNL     1       3.409   3.509  19.829  0.00  0.00    +0.000 A 
ENDBRANCH  12  13
ENDBRANCH   1  12
TORSDOF 5
ENDMDL
MODEL 7
REMARK VINA RESULT:      -7.0      1.428      1.530
REMARK  Name = 
REMARK  8 active torsions:
REMARK  status: ('A' for Active; 'I' for Inactive)
REMARK    1  A    between atoms: C_1  and  C_2
REMARK    2  A    between atoms: C_5  and  C_6
REMARK    3  A    between atoms: C_6  and  N_7
REMARK    4  A    between atoms: N_7  and  C_8
REMARK    5  A    between atoms: N_7  and  C_16
REMARK    6  A    between atoms: C_8  and  C_9
REMARK    7  A    between atoms: C_16  and  C_17
REMARK    8  A    between atoms: C_16  and  C_18
REMARK                            x       y       z     vdW  Elec       q    Type
REMARK                         _______ _______ _______ _____ _____    ______ ____
ROOT
ATOM      1  N   UNL     1       6.348   6.193  16.957  0.00  0.00    +0.000 NA
ENDROOT
BRANCH   1   2
ATOM      2  C   UNL     1       7.621   6.692  17.540  0.00  0.00    +0.000 C 
ATOM      3  C   UNL     1       7.682   8.230  17.640  0.00  0.00    +0.000 C 
ATOM      4  C   UNL     1       7.866   6.175  18.972  0.00  0.00    +0.000 C 
ENDBRANCH   1   2
BRANCH   1   5
ATOM      5  C   UNL     1       6.452   4.794  16.468  0.00  0.00    +0.000 C 
BRANCH   5  10
ATOM      6  C   UNL     1       5.878   3.032  11.973  0.00  0.00    +0.000 C 
ATOM      7  C   UNL     1       6.461   3.871  13.035  0.00  0.00    +0.000 A 
ATOM      8  N   UNL     1       7.341   4.841  12.942  0.00  0.00    +0.000 NA
ATOM      9  N   UNL     1       7.510   5.337  14.217  0.00  0.00    +0.000 NA
ATOM     10  C   UNL     1       6.729   4.620  15.005  0.00  0.00    +0.000 A 
ATOM     11  O   UNL     1       6.027   3.662  14.319  0.00  0.00    +0.000 OA
ENDBRANCH   5  10
ENDBRANCH   1   5
BRANCH   1  12
ATOM     12  C   UNL     1       5.165   6.396  17.826  0.00  0.00    +0.000 C 
BRANCH  12  13
ATOM     13  C   UNL     1       4.315   5.184  18.165  0.00  0.00    +0.000 A 
ATOM     14  C   UNL     1       3.032   5.042  17.615  0.00  0.00    +0.000 A 
ATOM     15  C   UNL     1       2.209   3.970  17.971  0.00  0.00    +0.000 A 
ATOM     16  C   UNL     1       2.652   3.021  18.887  0.00  0.00    +0.000 A 
ATOM     17  C   UNL     1       3.924   3.141  19.433  0.00  0.00    +0.000 A 
ATOM     18 CL   UNL     1       4.485   1.971  20.564  0.00  0.00    +0.000 Cl
ATOM     19  C   UNL     1       4.748   4.213  19.082  0.00  0.00    +0.000 A 
ENDBRANCH  12  13
ENDBRANCH   1  12
TORSDOF 5
ENDMDL
MODEL 8
REMARK VINA RESULT:      -7.0      2.865      4.373
REMARK  Name = 
REMARK  8 active torsions:
REMARK  status: ('A' for Active; 'I' for Inactive)
REMARK    1  A    between atoms: C_1  and  C_2
REMARK    2  A    between atoms: C_5  and  C_6
REMARK    3  A    between atoms: C_6  and  N_7
REMARK    4  A    between atoms: N_7  and  C_8
REMARK    5  A    between atoms: N_7  and  C_16
REMARK    6  A    between atoms: C_8  and  C_9
REMARK    7  A    between atoms: C_16  and  C_17
REMARK    8  A    between atoms: C_16  and  C_18
REMARK                            x       y       z     vdW  Elec       q    Type
REMARK                         _______ _______ _______ _____ _____    ______ ____
ROOT
ATOM      1  N   UNL     1       3.808   5.055  19.030  0.00  0.00    +0.000 NA
ENDROOT
BRANCH   1   2
ATOM      2  C   UNL     1       3.006   3.816  18.852  0.00  0.00    +0.000 C 
ATOM      3  C   UNL     1       1.737   3.783  19.728  0.00  0.00    +0.000 C 
ATOM      4  C   UNL     1       2.513   3.627  17.403  0.00  0.00    +0.000 C 
ENDBRANCH   1   2
BRANCH   1   5
ATOM      5  C   UNL     1       5.266   4.784  19.124  0.00  0.00    +0.000 C 
BRANCH   5  10
ATOM      6  C   UNL     1       6.774   4.433  14.515  0.00  0.00    +0.000 C 
ATOM      7  C   UNL     1       6.722   4.971  15.886  0.00  0.00    +0.000 A 
ATOM      8  N   UNL     1       7.321   6.024  16.391  0.00  0.00    +0.000 NA
ATOM      9  N   UNL     1       6.900   6.120  17.701  0.00  0.00    +0.000 NA
ATOM     10  C   UNL     1       6.082   5.105  17.908  0.00  0.00    +0.000 A 
ATOM     11  O   UNL     1       5.919   4.324  16.791  0.00  0.00    +0.000 OA
ENDBRANCH   5  10
ENDBRANCH   1   5
BRANCH   1  12
ATOM     12  C   UNL     1       3.500   6.121  18.049  0.00  0.00    +0.000 C 
BRANCH  12  13
ATOM     13  C   UNL     1       2.621   7.274  18.502  0.00  0.00    +0.000 A 
ATOM     14  C   UNL     1       2.286   8.303  17.611  0.00  0.00    +0.000 A 
ATOM     15  C   UNL     1       1.536   9.406  18.030  0.00  0.00    +0.000 A 
ATOM     16  C   UNL     1       1.111   9.503  19.351  0.00  0.00    +0.000 A 
ATOM     17  C   UNL     1       1.427   8.486  20.246  0.00  0.00    +0.000 A 
ATOM     18 CL   UNL     1       0.903   8.593  21.882  0.00  0.00    +0.000 Cl
ATOM     19  C   UNL     1       2.178   7.385  19.830  0.00  0.00    +0.000 A 
ENDBRANCH  12  13
ENDBRANCH   1  12
TORSDOF 5
ENDMDL
MODEL 9
REMARK VINA RESULT:      -7.0      3.236      5.288
REMARK  Name = 
REMARK  8 active torsions:
REMARK  status: ('A' for Active; 'I' for Inactive)
REMARK    1  A    between atoms: C_1  and  C_2
REMARK    2  A    between atoms: C_5  and  C_6
REMARK    3  A    between atoms: C_6  and  N_7
REMARK    4  A    between atoms: N_7  and  C_8
REMARK    5  A    between atoms: N_7  and  C_16
REMARK    6  A    between atoms: C_8  and  C_9
REMARK    7  A    between atoms: C_16  and  C_17
REMARK    8  A    between atoms: C_16  and  C_18
REMARK                            x       y       z     vdW  Elec       q    Type
REMARK                         _______ _______ _______ _____ _____    ______ ____
ROOT
ATOM      1  N   UNL     1       4.423   4.212  17.145  0.00  0.00    +0.000 NA
ENDROOT
BRANCH   1   2
ATOM      2  C   UNL     1       5.660   4.182  16.322  0.00  0.00    +0.000 C 
ATOM      3  C   UNL     1       5.556   5.029  15.037  0.00  0.00    +0.000 C 
ATOM      4  C   UNL     1       6.892   4.722  17.076  0.00  0.00    +0.000 C 
ENDBRANCH   1   2
BRANCH   1   5
ATOM      5  C   UNL     1       3.899   2.854  17.442  0.00  0.00    +0.000 C 
BRANCH   5  10
ATOM      6  C   UNL     1       1.489   2.674  21.661  0.00  0.00    +0.000 C 
ATOM      7  C   UNL     1       1.657   2.734  20.199  0.00  0.00    +0.000 A 
ATOM      8  N   UNL     1       0.750   2.884  19.261  0.00  0.00    +0.000 NA
ATOM      9  N   UNL     1       1.431   2.928  18.063  0.00  0.00    +0.000 NA
ATOM     10  C   UNL     1       2.711   2.784  18.354  0.00  0.00    +0.000 A 
ATOM     11  O   UNL     1       2.933   2.654  19.702  0.00  0.00    +0.000 OA
ENDBRANCH   5  10
ENDBRANCH   1   5
BRANCH   1  12
ATOM     12  C   UNL     1       4.526   5.050  18.362  0.00  0.00    +0.000 C 
BRANCH  12  13
ATOM     13  C   UNL     1       3.582   6.232  18.496  0.00  0.00    +0.000 A 
ATOM     14  C   UNL     1       3.511   7.201  17.485  0.00  0.00    +0.000 A 
ATOM     15  C   UNL     1       2.700   8.331  17.624  0.00  0.00    +0.000 A 
ATOM     16  C   UNL     1       1.947   8.515  18.779  0.00  0.00    +0.000 A 
ATOM     17  C   UNL     1       1.998   7.558  19.787  0.00  0.00    +0.000 A 
ATOM     18 CL   UNL     1       1.067   7.773  21.219  0.00  0.00    +0.000 Cl
ATOM     19  C   UNL     1       2.810   6.430  19.652  0.00  0.00    +0.000 A 
ENDBRANCH  12  13
ENDBRANCH   1  12
TORSDOF 5
ENDMDL
