MODEL 1
REMARK VINA RESULT:      -6.9      0.000      0.000
REMARK  Name = 
REMARK  3 active torsions:
REMARK  status: ('A' for Active; 'I' for Inactive)
REMARK    1  A    between atoms: C_1  and  N_2
REMARK    2  A    between atoms: N_2  and  C_3
REMARK    3  A    between atoms: N_2  and  C_4
REMARK                            x       y       z     vdW  Elec       q    Type
REMARK                         _______ _______ _______ _____ _____    ______ ____
ROOT
ATOM      1  C   UNL     1       2.784   3.689  19.373  0.00  0.00    +0.000 C 
ATOM      2  C   UNL     1       1.845   4.908  19.260  0.00  0.00    +0.000 C 
ATOM      3  C   UNL     1       2.654   6.175  18.960  0.00  0.00    +0.000 C 
ATOM      4  C   UNL     1       3.652   6.018  17.840  0.00  0.00    +0.000 A 
ATOM      5  C   UNL     1       4.252   7.165  17.299  0.00  0.00    +0.000 A 
ATOM      6  C   UNL     1       5.206   7.084  16.282  0.00  0.00    +0.000 A 
ATOM      7  C   UNL     1       5.545   5.811  15.813  0.00  0.00    +0.000 A 
ATOM      8  N   UNL     1       6.429   5.434  14.829  0.00  0.00    +0.000 N 
ATOM      9  C   UNL     1       6.444   4.072  14.700  0.00  0.00    +0.000 A 
ATOM     10  C   UNL     1       5.557   3.555  15.614  0.00  0.00    +0.000 A 
ATOM     11  C   UNL     1       4.982   4.649  16.333  0.00  0.00    +0.000 A 
ATOM     12  C   UNL     1       4.034   4.738  17.382  0.00  0.00    +0.000 A 
ATOM     13  C   UNL     1       3.420   3.494  17.975  0.00  0.00    +0.000 C 
ATOM     14  H   UNL     1       6.984   6.077  14.282  0.00  0.00    +0.000 HD
ENDROOT
BRANCH   1  16
ATOM     15  C   UNL     1       1.604   2.576  21.204  0.00  0.00    +0.000 C 
ATOM     16  N   UNL     1       2.106   2.440  19.828  0.00  0.00    +0.000 NA
ATOM     17  C   UNL     1       0.978   2.068  18.967  0.00  0.00    +0.000 C 
ENDBRANCH   1  16
TORSDOF 1
ENDMDL
MODEL 2
REMARK VINA RESULT:      -6.8      1.392      1.486
REMARK  Name = 
REMARK  3 active torsions:
REMARK  status: ('A' for Active; 'I' for Inactive)
REMARK    1  A    between atoms: C_1  and  N_2
REMARK    2  A    between atoms: N_2  and  C_3
REMARK    3  A    between atoms: N_2  and  C_4
REMARK                            x       y       z     vdW  Elec       q    Type
REMARK                         _______ _______ _______ _____ _____    ______ ____
ROOT
ATOM      1  C   UNL     1       3.458   3.385  18.845  0.00  0.00    +0.000 C 
ATOM      2  C   UNL     1       3.361   4.761  19.535  0.00  0.00    +0.000 C 
ATOM      3  C   UNL     1       4.735   5.439  19.565  0.00  0.00    +0.000 C 
ATOM      4  C   UNL     1       5.458   5.426  18.241  0.00  0.00    +0.000 A 
ATOM      5  C   UNL     1       6.588   6.240  18.076  0.00  0.00    +0.000 A 
ATOM      6  C   UNL     1       7.319   6.249  16.885  0.00  0.00    +0.000 A 
ATOM      7  C   UNL     1       6.880   5.416  15.851  0.00  0.00    +0.000 A 
ATOM      8  N   UNL     1       7.388   5.230  14.586  0.00  0.00    +0.000 N 
ATOM      9  C   UNL     1       6.635   4.312  13.903  0.00  0.00    +0.000 A 
ATOM     10  C   UNL     1       5.625   3.896  14.737  0.00  0.00    +0.000 A 
ATOM     11  C   UNL     1       5.772   4.584  15.981  0.00  0.00    +0.000 A 
ATOM     12  C   UNL     1       5.051   4.562  17.201  0.00  0.00    +0.000 A 
ATOM     13  C   UNL     1       3.855   3.658  17.374  0.00  0.00    +0.000 C 
ATOM     14  H   UNL     1       8.199   5.707  14.219  0.00  0.00    +0.000 HD
ENDROOT
BRANCH   1  16
ATOM     15  C   UNL     1       1.806   2.336  20.312  0.00  0.00    +0.000 C 
ATOM     16  N   UNL     1       2.204   2.579  18.917  0.00  0.00    +0.000 NA
ATOM     17  C   UNL     1       1.081   3.226  18.230  0.00  0.00    +0.000 C 
ENDBRANCH   1  16
TORSDOF 1
ENDMDL
MODEL 3
REMARK VINA RESULT:      -6.8      1.364      5.317
REMARK  Name = 
REMARK  3 active torsions:
REMARK  status: ('A' for Active; 'I' for Inactive)
REMARK    1  A    between atoms: C_1  and  N_2
REMARK    2  A    between atoms: N_2  and  C_3
REMARK    3  A    between atoms: N_2  and  C_4
REMARK                            x       y       z     vdW  Elec       q    Type
REMARK                         _______ _______ _______ _____ _____    ______ ____
ROOT
ATOM      1  C   UNL     1       4.852   4.757  16.443  0.00  0.00    +0.000 C 
ATOM      2  C   UNL     1       5.126   6.245  16.741  0.00  0.00    +0.000 C 
ATOM      3  C   UNL     1       3.917   6.880  17.436  0.00  0.00    +0.000 C 
ATOM      4  C   UNL     1       3.376   6.075  18.591  0.00  0.00    +0.000 A 
ATOM      5  C   UNL     1       2.455   6.673  19.464  0.00  0.00    +0.000 A 
ATOM      6  C   UNL     1       1.895   5.971  20.535  0.00  0.00    +0.000 A 
ATOM      7  C   UNL     1       2.291   4.642  20.712  0.00  0.00    +0.000 A 
ATOM      8  N   UNL     1       1.920   3.726  21.670  0.00  0.00    +0.000 N 
ATOM      9  C   UNL     1       2.560   2.534  21.461  0.00  0.00    +0.000 A 
ATOM     10  C   UNL     1       3.358   2.676  20.351  0.00  0.00    +0.000 A 
ATOM     11  C   UNL     1       3.192   4.009  19.861  0.00  0.00    +0.000 A 
ATOM     12  C   UNL     1       3.736   4.720  18.762  0.00  0.00    +0.000 A 
ATOM     13  C   UNL     1       4.703   4.055  17.815  0.00  0.00    +0.000 C 
ATOM     14  H   UNL     1       1.269   3.914  22.419  0.00  0.00    +0.000 HD
ENDROOT
BRANCH   1  16
ATOM     15  C   UNL     1       5.631   4.246  14.181  0.00  0.00    +0.000 C 
ATOM     16  N   UNL     1       5.906   4.097  15.619  0.00  0.00    +0.000 NA
ATOM     17  C   UNL     1       7.244   4.637  15.884  0.00  0.00    +0.000 C 
ENDBRANCH   1  16
TORSDOF 1
ENDMDL
MODEL 4
REMARK VINA RESULT:      -6.7      1.112      5.281
REMARK  Name = 
REMARK  3 active torsions:
REMARK  status: ('A' for Active; 'I' for Inactive)
REMARK    1  A    between atoms: C_1  and  N_2
REMARK    2  A    between atoms: N_2  and  C_3
REMARK    3  A    between atoms: N_2  and  C_4
REMARK                            x       y       z     vdW  Elec       q    Type
REMARK                         _______ _______ _______ _____ _____    ______ ____
ROOT
ATOM      1  C   UNL     1       5.453   4.904  15.352  0.00  0.00    +0.000 C 
ATOM      2  C   UNL     1       6.140   5.928  16.280  0.00  0.00    +0.000 C 
ATOM      3  C   UNL     1       5.089   6.725  17.061  0.00  0.00    +0.000 C 
ATOM      4  C   UNL     1       4.024   5.875  17.706  0.00  0.00    +0.000 A 
ATOM      5  C   UNL     1       3.174   6.458  18.658  0.00  0.00    +0.000 A 
ATOM      6  C   UNL     1       2.149   5.732  19.270  0.00  0.00    +0.000 A 
ATOM      7  C   UNL     1       1.998   4.392  18.902  0.00  0.00    +0.000 A 
ATOM      8  N   UNL     1       1.098   3.447  19.339  0.00  0.00    +0.000 N 
ATOM      9  C   UNL     1       1.316   2.254  18.704  0.00  0.00    +0.000 A 
ATOM     10  C   UNL     1       2.372   2.425  17.842  0.00  0.00    +0.000 A 
ATOM     11  C   UNL     1       2.812   3.781  17.951  0.00  0.00    +0.000 A 
ATOM     12  C   UNL     1       3.834   4.531  17.318  0.00  0.00    +0.000 A 
ATOM     13  C   UNL     1       4.720   3.899  16.274  0.00  0.00    +0.000 C 
ATOM     14  H   UNL     1       0.382   3.616  20.031  0.00  0.00    +0.000 HD
ENDROOT
BRANCH   1  16
ATOM     15  C   UNL     1       5.677   3.648  13.265  0.00  0.00    +0.000 C 
ATOM     16  N   UNL     1       6.389   4.196  14.431  0.00  0.00    +0.000 NA
ATOM     17  C   UNL     1       7.460   5.069  13.939  0.00  0.00    +0.000 C 
ENDBRANCH   1  16
TORSDOF 1
ENDMDL
MODEL 5
REMARK VINA RESULT:      -6.7      1.959      5.738
REMARK  Name = 
REMARK  3 active torsions:
REMARK  status: ('A' for Active; 'I' for Inactive)
REMARK    1  A    between atoms: C_1  and  N_2
REMARK    2  A    between atoms: N_2  and  C_3
REMARK    3  A    between atoms: N_2  and  C_4
REMARK                            x       y       z     vdW  Elec       q    Type
REMARK                         _______ _______ _______ _____ _____    ______ ____
ROOT
ATOM      1  C   UNL     1       5.921   5.207  18.222  0.00  0.00    +0.000 C 
ATOM      2  C   UNL     1       5.294   5.355  16.820  0.00  0.00    +0.000 C 
ATOM      3  C   UNL     1       4.452   4.120  16.481  0.00  0.00    +0.000 C 
ATOM      4  C   UNL     1       3.504   3.700  17.576  0.00  0.00    +0.000 A 
ATOM      5  C   UNL     1       2.503   2.762  17.285  0.00  0.00    +0.000 A 
ATOM      6  C   UNL     1       1.613   2.310  18.263  0.00  0.00    +0.000 A 
ATOM      7  C   UNL     1       1.751   2.832  19.552  0.00  0.00    +0.000 A 
ATOM      8  N   UNL     1       1.023   2.584  20.693  0.00  0.00    +0.000 N 
ATOM      9  C   UNL     1       1.510   3.322  21.738  0.00  0.00    +0.000 A 
ATOM     10  C   UNL     1       2.570   4.060  21.270  0.00  0.00    +0.000 A 
ATOM     11  C   UNL     1       2.740   3.755  19.884  0.00  0.00    +0.000 A 
ATOM     12  C   UNL     1       3.654   4.188  18.892  0.00  0.00    +0.000 A 
ATOM     13  C   UNL     1       4.745   5.175  19.228  0.00  0.00    +0.000 C 
ATOM     14  H   UNL     1       0.240   1.947  20.744  0.00  0.00    +0.000 HD
ENDROOT
BRANCH   1  16
ATOM     15  C   UNL     1       8.029   5.752  19.337  0.00  0.00    +0.000 C 
ATOM     16  N   UNL     1       6.891   6.285  18.571  0.00  0.00    +0.000 NA
ATOM     17  C   UNL     1       7.421   6.968  17.386  0.00  0.00    +0.000 C 
ENDBRANCH   1  16
TORSDOF 1
ENDMDL
MODEL 6
REMARK VINA RESULT:      -6.6      0.944      5.098
REMARK  Name = 
REMARK  3 active torsions:
REMARK  status: ('A' for Active; 'I' for Inactive)
REMARK    1  A    between atoms: C_1  and  N_2
REMARK    2  A    between atoms: N_2  and  C_3
REMARK    3  A    between atoms: N_2  and  C_4
REMARK                            x       y       z     vdW  Elec       q    Type
REMARK                         _______ _______ _______ _____ _____    ______ ____
ROOT
ATOM      1  C   UNL     1       5.114   5.610  15.727  0.00  0.00    +0.000 C 
ATOM      2  C   UNL     1       5.541   6.709  16.722  0.00  0.00    +0.000 C 
ATOM      3  C   UNL     1       4.337   7.172  17.551  0.00  0.00    +0.000 C 
ATOM      4  C   UNL     1       3.521   6.047  18.136  0.00  0.00    +0.000 A 
ATOM      5  C   UNL     1       2.567   6.341  19.121  0.00  0.00    +0.000 A 
ATOM      6  C   UNL     1       1.760   5.347  19.681  0.00  0.00    +0.000 A 
ATOM      7  C   UNL     1       1.937   4.038  19.225  0.00  0.00    +0.000 A 
ATOM      8  N   UNL     1       1.302   2.875  19.596  0.00  0.00    +0.000 N 
ATOM      9  C   UNL     1       1.797   1.815  18.885  0.00  0.00    +0.000 A 
ATOM     10  C   UNL     1       2.768   2.296  18.039  0.00  0.00    +0.000 A 
ATOM     11  C   UNL     1       2.863   3.708  18.239  0.00  0.00    +0.000 A 
ATOM     12  C   UNL     1       3.661   4.725  17.659  0.00  0.00    +0.000 A 
ATOM     13  C   UNL     1       4.662   4.399  16.578  0.00  0.00    +0.000 C 
ATOM     14  H   UNL     1       0.576   2.818  20.296  0.00  0.00    +0.000 HD
ENDROOT
BRANCH   1  16
ATOM     15  C   UNL     1       7.424   4.848  15.464  0.00  0.00    +0.000 C 
ATOM     16  N   UNL     1       6.182   5.215  14.764  0.00  0.00    +0.000 NA
ATOM     17  C   UNL     1       5.786   4.082  13.920  0.00  0.00    +0.000 C 
ENDBRANCH   1  16
TORSDOF 1
ENDMDL
MODEL 7
REMARK VINA RESULT:      -6.5      2.825      5.309
REMARK  Name = 
REMARK  3 active torsions:
REMARK  status: ('A' for Active; 'I' for Inactive)
REMARK    1  A    between atoms: C_1  and  N_2
REMARK    2  A    between atoms: N_2  and  C_3
REMARK    3  A    between atoms: N_2  and  C_4
REMARK                            x       y       z     vdW  Elec       q    Type
REMARK                         _______ _______ _______ _____ _____    ______ ____
ROOT
ATOM      1  C   UNL     1       1.749   8.542  20.035  0.00  0.00    +0.000 C 
ATOM      2  C   UNL     1       1.711   8.621  18.495  0.00  0.00    +0.000 C 
ATOM      3  C   UNL     1       2.872   7.821  17.893  0.00  0.00    +0.000 C 
ATOM      4  C   UNL     1       3.031   6.436  18.470  0.00  0.00    +0.000 A 
ATOM      5  C   UNL     1       3.875   5.523  17.820  0.00  0.00    +0.000 A 
ATOM      6  C   UNL     1       4.087   4.235  18.320  0.00  0.00    +0.000 A 
ATOM      7  C   UNL     1       3.422   3.882  19.497  0.00  0.00    +0.000 A 
ATOM      8  N   UNL     1       3.432   2.700  20.202  0.00  0.00    +0.000 N 
ATOM      9  C   UNL     1       2.627   2.798  21.305  0.00  0.00    +0.000 A 
ATOM     10  C   UNL     1       2.086   4.062  21.318  0.00  0.00    +0.000 A 
ATOM     11  C   UNL     1       2.587   4.764  20.179  0.00  0.00    +0.000 A 
ATOM     12  C   UNL     1       2.397   6.077  19.679  0.00  0.00    +0.000 A 
ATOM     13  C   UNL     1       1.511   7.058  20.405  0.00  0.00    +0.000 C 
ATOM     14  H   UNL     1       3.959   1.881  19.937  0.00  0.00    +0.000 HD
ENDROOT
BRANCH   1  16
ATOM     15  C   UNL     1      -0.059  10.162  19.735  0.00  0.00    +0.000 C 
ATOM     16  N   UNL     1       0.757   9.425  20.714  0.00  0.00    +0.000 NA
ATOM     17  C   UNL     1      -0.151   8.679  21.591  0.00  0.00    +0.000 C 
ENDBRANCH   1  16
TORSDOF 1
ENDMDL
MODEL 8
REMARK VINA RESULT:      -6.4      0.930      1.159
REMARK  Name = 
REMARK  3 active torsions:
REMARK  status: ('A' for Active; 'I' for Inactive)
REMARK    1  A    between atoms: C_1  and  N_2
REMARK    2  A    between atoms: N_2  and  C_3
REMARK    3  A    between atoms: N_2  and  C_4
REMARK                            x       y       z     vdW  Elec       q    Type
REMARK                         _______ _______ _______ _____ _____    ______ ____
ROOT
ATOM      1  C   UNL     1       3.525   3.805  19.741  0.00  0.00    +0.000 C 
ATOM      2  C   UNL     1       2.358   4.806  19.614  0.00  0.00    +0.000 C 
ATOM      3  C   UNL     1       2.864   6.147  19.072  0.00  0.00    +0.000 C 
ATOM      4  C   UNL     1       3.751   6.026  17.858  0.00  0.00    +0.000 A 
ATOM      5  C   UNL     1       4.053   7.180  17.119  0.00  0.00    +0.000 A 
ATOM      6  C   UNL     1       4.893   7.138  16.003  0.00  0.00    +0.000 A 
ATOM      7  C   UNL     1       5.424   5.898  15.640  0.00  0.00    +0.000 A 
ATOM      8  N   UNL     1       6.258   5.559  14.599  0.00  0.00    +0.000 N 
ATOM      9  C   UNL     1       6.528   4.217  14.623  0.00  0.00    +0.000 A 
ATOM     10  C   UNL     1       5.861   3.675  15.696  0.00  0.00    +0.000 A 
ATOM     11  C   UNL     1       5.160   4.733  16.356  0.00  0.00    +0.000 A 
ATOM     12  C   UNL     1       4.328   4.788  17.501  0.00  0.00    +0.000 A 
ATOM     13  C   UNL     1       4.037   3.544  18.304  0.00  0.00    +0.000 C 
ATOM     14  H   UNL     1       6.615   6.213  13.917  0.00  0.00    +0.000 HD
ENDROOT
BRANCH   1  16
ATOM     15  C   UNL     1       4.357   1.771  20.814  0.00  0.00    +0.000 C 
ATOM     16  N   UNL     1       3.158   2.527  20.416  0.00  0.00    +0.000 NA
ATOM     17  C   UNL     1       2.337   2.739  21.613  0.00  0.00    +0.000 C 
ENDBRANCH   1  16
TORSDOF 1
ENDMDL
MODEL 9
REMARK VINA RESULT:      -6.4      1.977      2.921
REMARK  Name = 
REMARK  3 active torsions:
REMARK  status: ('A' for Active; 'I' for Inactive)
REMARK    1  A    between atoms: C_1  and  N_2
REMARK    2  A    between atoms: N_2  and  C_3
REMARK    3  A    between atoms: N_2  and  C_4
REMARK                            x       y       z     vdW  Elec       q    Type
REMARK                         _______ _______ _______ _____ _____    ______ ____
ROOT
ATOM      1  C   UNL     1       2.040   4.453  19.020  0.00  0.00    +0.000 C 
ATOM      2  C   UNL     1       1.885   3.155  18.202  0.00  0.00    +0.000 C 
ATOM      3  C   UNL     1       2.661   3.260  16.885  0.00  0.00    +0.000 C 
ATOM      4  C   UNL     1       4.074   3.765  17.040  0.00  0.00    +0.000 A 
ATOM      5  C   UNL     1       4.959   3.649  15.958  0.00  0.00    +0.000 A 
ATOM      6  C   UNL     1       6.271   4.125  16.029  0.00  0.00    +0.000 A 
ATOM      7  C   UNL     1       6.678   4.721  17.226  0.00  0.00    +0.000 A 
ATOM      8  N   UNL     1       7.894   5.260  17.581  0.00  0.00    +0.000 N 
ATOM      9  C   UNL     1       7.846   5.736  18.863  0.00  0.00    +0.000 A 
ATOM     10  C   UNL     1       6.581   5.505  19.349  0.00  0.00    +0.000 A 
ATOM     11  C   UNL     1       5.826   4.866  18.317  0.00  0.00    +0.000 A 
ATOM     12  C   UNL     1       4.489   4.404  18.228  0.00  0.00    +0.000 A 
ATOM     13  C   UNL     1       3.540   4.562  19.390  0.00  0.00    +0.000 C 
ATOM     14  H   UNL     1       8.702   5.293  16.976  0.00  0.00    +0.000 HD
ENDROOT
BRANCH   1  16
ATOM     15  C   UNL     1       1.417   3.342  21.108  0.00  0.00    +0.000 C 
ATOM     16  N   UNL     1       1.185   4.509  20.241  0.00  0.00    +0.000 NA
ATOM     17  C   UNL     1       1.421   5.719  21.036  0.00  0.00    +0.000 C 
ENDBRANCH   1  16
TORSDOF 1
ENDMDL
