MODEL 1
REMARK VINA RESULT:      -8.0      0.000      0.000
REMARK  Name = 
REMARK  6 active torsions:
REMARK  status: ('A' for Active; 'I' for Inactive)
REMARK    1  A    between atoms: C_1  and  C_2
REMARK    2  A    between atoms: C_2  and  N_3
REMARK    3  A    between atoms: C_5  and  C_6
REMARK    4  A    between atoms: C_10  and  C_11
REMARK    5  A    between atoms: C_21  and  C_22
REMARK    6  A    between atoms: C_33  and  C_34
REMARK                            x       y       z     vdW  Elec       q    Type
REMARK                         _______ _______ _______ _____ _____    ______ ____
ROOT
ATOM      1  C   UNL     1      -1.081  14.536  22.439  0.00  0.00    +0.000 C 
ATOM      2  O   UNL     1      -1.555  15.172  23.379  0.00  0.00    +0.000 OA
ATOM      3  N   UNL     1      -1.155  13.143  22.369  0.00  0.00    +0.000 N 
ATOM      4  N   UNL     1      -0.422  12.408  21.477  0.00  0.00    +0.000 NA
ATOM      5  C   UNL     1      -0.499  11.163  21.834  0.00  0.00    +0.000 C 
ATOM      6  C   UNL     1      -1.387  10.875  23.003  0.00  0.00    +0.000 C 
ATOM      7  C   UNL     1      -1.781  12.304  23.397  0.00  0.00    +0.000 C 
ENDROOT
BRANCH   1  10
ATOM      8  N   UNL     1       1.676  15.784  20.147  0.00  0.00    +0.000 N 
ATOM      9  C   UNL     1       0.940  15.235  21.178  0.00  0.00    +0.000 A 
ATOM     10  C   UNL     1      -0.395  15.248  21.310  0.00  0.00    +0.000 A 
ATOM     11  C   UNL     1      -1.133  16.069  20.308  0.00  0.00    +0.000 A 
ATOM     12  O   UNL     1      -2.350  16.220  20.343  0.00  0.00    +0.000 OA
ATOM     13  C   UNL     1      -0.354  16.705  19.213  0.00  0.00    +0.000 A 
ATOM     14  C   UNL     1      -0.995  17.476  18.238  0.00  0.00    +0.000 A 
ATOM     15  C   UNL     1      -0.248  18.013  17.193  0.00  0.00    +0.000 A 
ATOM     16  C   UNL     1       1.119  17.771  17.161  0.00  0.00    +0.000 A 
ATOM     17  C   UNL     1       1.969  18.267  16.029  0.00  0.00    +0.000 C 
ATOM     18  N   UNL     1       1.752  17.046  18.115  0.00  0.00    +0.000 NA
ATOM     19  C   UNL     1       1.029  16.522  19.137  0.00  0.00    +0.000 A 
BRANCH   8  21
ATOM     20  C   UNL     1       3.830  16.560  21.026  0.00  0.00    +0.000 C 
ATOM     21  C   UNL     1       3.130  15.640  20.039  0.00  0.00    +0.000 C 
ENDBRANCH   8  21
ENDBRANCH   1  10
BRANCH   5  22
ATOM     22  C   UNL     1       0.275  10.170  21.150  0.00  0.00    +0.000 A 
ATOM     23  C   UNL     1       0.763   8.961  21.615  0.00  0.00    +0.000 A 
ATOM     24  C   UNL     1       1.384   8.316  20.523  0.00  0.00    +0.000 A 
ATOM     25  C   UNL     1       2.013   7.075  20.323  0.00  0.00    +0.000 A 
ATOM     26  C   UNL     1       2.530   6.782  19.056  0.00  0.00    +0.000 A 
ATOM     27  C   UNL     1       2.440   7.707  18.012  0.00  0.00    +0.000 A 
ATOM     28  C   UNL     1       1.812   8.947  18.192  0.00  0.00    +0.000 A 
ATOM     29  C   UNL     1       1.286   9.204  19.456  0.00  0.00    +0.000 A 
ATOM     30  O   UNL     1       0.603  10.327  19.835  0.00  0.00    +0.000 OA
ENDBRANCH   5  22
BRANCH   7  31
ATOM     31  C   UNL     1      -3.285  12.474  23.470  0.00  0.00    +0.000 A 
ATOM     32  C   UNL     1      -3.948  12.331  24.699  0.00  0.00    +0.000 A 
ATOM     33  C   UNL     1      -5.337  12.467  24.775  0.00  0.00    +0.000 A 
ATOM     34  C   UNL     1      -6.075  12.757  23.628  0.00  0.00    +0.000 A 
ATOM     35  C   UNL     1      -5.428  12.909  22.404  0.00  0.00    +0.000 A 
ATOM     36  C   UNL     1      -4.042  12.773  22.325  0.00  0.00    +0.000 A 
ENDBRANCH   7  31
TORSDOF 4
ENDMDL
MODEL 2
REMARK VINA RESULT:      -7.9      2.131      3.537
REMARK  Name = 
REMARK  6 active torsions:
REMARK  status: ('A' for Active; 'I' for Inactive)
REMARK    1  A    between atoms: C_1  and  C_2
REMARK    2  A    between atoms: C_2  and  N_3
REMARK    3  A    between atoms: C_5  and  C_6
REMARK    4  A    between atoms: C_10  and  C_11
REMARK    5  A    between atoms: C_21  and  C_22
REMARK    6  A    between atoms: C_33  and  C_34
REMARK                            x       y       z     vdW  Elec       q    Type
REMARK                         _______ _______ _______ _____ _____    ______ ____
ROOT
ATOM      1  C   UNL     1       0.950  14.382  21.954  0.00  0.00    +0.000 C 
ATOM      2  O   UNL     1       0.476  15.190  22.753  0.00  0.00    +0.000 OA
ATOM      3  N   UNL     1       0.400  13.113  21.764  0.00  0.00    +0.000 N 
ATOM      4  N   UNL     1       1.050  12.120  21.081  0.00  0.00    +0.000 NA
ATOM      5  C   UNL     1       0.421  11.009  21.307  0.00  0.00    +0.000 C 
ATOM      6  C   UNL     1      -0.822  11.119  22.132  0.00  0.00    +0.000 C 
ATOM      7  C   UNL     1      -0.769  12.609  22.493  0.00  0.00    +0.000 C 
ENDROOT
BRANCH   1  10
ATOM      8  N   UNL     1       3.069  15.558  19.033  0.00  0.00    +0.000 N 
ATOM      9  C   UNL     1       2.048  15.132  19.858  0.00  0.00    +0.000 A 
ATOM     10  C   UNL     1       2.156  14.741  21.137  0.00  0.00    +0.000 A 
ATOM     11  C   UNL     1       3.547  14.621  21.658  0.00  0.00    +0.000 A 
ATOM     12  O   UNL     1       3.798  14.219  22.789  0.00  0.00    +0.000 OA
ATOM     13  C   UNL     1       4.666  15.034  20.770  0.00  0.00    +0.000 A 
ATOM     14  C   UNL     1       5.991  14.956  21.210  0.00  0.00    +0.000 A 
ATOM     15  C   UNL     1       7.014  15.402  20.378  0.00  0.00    +0.000 A 
ATOM     16  C   UNL     1       6.681  15.904  19.127  0.00  0.00    +0.000 A 
ATOM     17  C   UNL     1       7.729  16.458  18.209  0.00  0.00    +0.000 C 
ATOM     18  N   UNL     1       5.402  15.960  18.682  0.00  0.00    +0.000 NA
ATOM     19  C   UNL     1       4.401  15.525  19.489  0.00  0.00    +0.000 A 
BRANCH   8  21
ATOM     20  C   UNL     1       1.994  17.317  17.704  0.00  0.00    +0.000 C 
ATOM     21  C   UNL     1       2.842  16.056  17.674  0.00  0.00    +0.000 C 
ENDBRANCH   8  21
ENDBRANCH   1  10
BRANCH   5  22
ATOM     22  C   UNL     1       0.951   9.771  20.816  0.00  0.00    +0.000 A 
ATOM     23  C   UNL     1       1.085   8.554  21.461  0.00  0.00    +0.000 A 
ATOM     24  C   UNL     1       1.579   7.632  20.512  0.00  0.00    +0.000 A 
ATOM     25  C   UNL     1       1.878   6.259  20.515  0.00  0.00    +0.000 A 
ATOM     26  C   UNL     1       2.371   5.677  19.343  0.00  0.00    +0.000 A 
ATOM     27  C   UNL     1       2.580   6.444  18.193  0.00  0.00    +0.000 A 
ATOM     28  C   UNL     1       2.283   7.814  18.170  0.00  0.00    +0.000 A 
ATOM     29  C   UNL     1       1.771   8.363  19.343  0.00  0.00    +0.000 A 
ATOM     30  O   UNL     1       1.380   9.661  19.526  0.00  0.00    +0.000 OA
ENDBRANCH   5  22
BRANCH   7  31
ATOM     31  C   UNL     1      -2.054  13.323  22.124  0.00  0.00    +0.000 A 
ATOM     32  C   UNL     1      -2.734  14.087  23.087  0.00  0.00    +0.000 A 
ATOM     33  C   UNL     1      -3.930  14.735  22.763  0.00  0.00    +0.000 A 
ATOM     34  C   UNL     1      -4.452  14.635  21.474  0.00  0.00    +0.000 A 
ATOM     35  C   UNL     1      -3.783  13.887  20.508  0.00  0.00    +0.000 A 
ATOM     36  C   UNL     1      -2.591  13.239  20.828  0.00  0.00    +0.000 A 
ENDBRANCH   7  31
TORSDOF 4
ENDMDL
MODEL 3
REMARK VINA RESULT:      -7.8      2.251      6.739
REMARK  Name = 
REMARK  6 active torsions:
REMARK  status: ('A' for Active; 'I' for Inactive)
REMARK    1  A    between atoms: C_1  and  C_2
REMARK    2  A    between atoms: C_2  and  N_3
REMARK    3  A    between atoms: C_5  and  C_6
REMARK    4  A    between atoms: C_10  and  C_11
REMARK    5  A    between atoms: C_21  and  C_22
REMARK    6  A    between atoms: C_33  and  C_34
REMARK                            x       y       z     vdW  Elec       q    Type
REMARK                         _______ _______ _______ _____ _____    ______ ____
ROOT
ATOM      1  C   UNL     1      -0.190  14.210  19.111  0.00  0.00    +0.000 C 
ATOM      2  O   UNL     1      -0.196  15.309  18.557  0.00  0.00    +0.000 OA
ATOM      3  N   UNL     1       0.825  13.274  18.898  0.00  0.00    +0.000 N 
ATOM      4  N   UNL     1       0.722  11.968  19.296  0.00  0.00    +0.000 NA
ATOM      5  C   UNL     1       1.681  11.306  18.727  0.00  0.00    +0.000 C 
ATOM      6  C   UNL     1       2.636  12.115  17.908  0.00  0.00    +0.000 C 
ATOM      7  C   UNL     1       1.962  13.491  17.996  0.00  0.00    +0.000 C 
ENDROOT
BRANCH   1  10
ATOM      8  N   UNL     1      -3.459  12.773  20.400  0.00  0.00    +0.000 N 
ATOM      9  C   UNL     1      -2.415  13.237  19.624  0.00  0.00    +0.000 A 
ATOM     10  C   UNL     1      -1.291  13.829  20.056  0.00  0.00    +0.000 A 
ATOM     11  C   UNL     1      -1.249  14.144  21.512  0.00  0.00    +0.000 A 
ATOM     12  O   UNL     1      -0.311  14.738  22.034  0.00  0.00    +0.000 OA
ATOM     13  C   UNL     1      -2.383  13.693  22.360  0.00  0.00    +0.000 A 
ATOM     14  C   UNL     1      -2.391  13.948  23.735  0.00  0.00    +0.000 A 
ATOM     15  C   UNL     1      -3.439  13.465  24.513  0.00  0.00    +0.000 A 
ATOM     16  C   UNL     1      -4.452  12.748  23.891  0.00  0.00    +0.000 A 
ATOM     17  C   UNL     1      -5.576  12.146  24.682  0.00  0.00    +0.000 C 
ATOM     18  N   UNL     1      -4.466  12.517  22.555  0.00  0.00    +0.000 NA
ATOM     19  C   UNL     1      -3.448  12.988  21.792  0.00  0.00    +0.000 A 
BRANCH   8  21
ATOM     20  C   UNL     1      -4.430  11.839  18.351  0.00  0.00    +0.000 C 
ATOM     21  C   UNL     1      -4.607  12.053  19.846  0.00  0.00    +0.000 C 
ENDBRANCH   8  21
ENDBRANCH   1  10
BRANCH   5  22
ATOM     22  C   UNL     1       1.750   9.881  18.864  0.00  0.00    +0.000 A 
ATOM     23  C   UNL     1       2.131   8.926  17.939  0.00  0.00    +0.000 A 
ATOM     24  C   UNL     1       2.111   7.677  18.599  0.00  0.00    +0.000 A 
ATOM     25  C   UNL     1       2.431   6.355  18.244  0.00  0.00    +0.000 A 
ATOM     26  C   UNL     1       2.273   5.346  19.201  0.00  0.00    +0.000 A 
ATOM     27  C   UNL     1       1.792   5.640  20.480  0.00  0.00    +0.000 A 
ATOM     28  C   UNL     1       1.474   6.953  20.854  0.00  0.00    +0.000 A 
ATOM     29  C   UNL     1       1.662   7.941  19.889  0.00  0.00    +0.000 A 
ATOM     30  O   UNL     1       1.452   9.282  20.053  0.00  0.00    +0.000 OA
ENDBRANCH   5  22
BRANCH   7  31
ATOM     31  C   UNL     1       2.920  14.556  18.491  0.00  0.00    +0.000 A 
ATOM     32  C   UNL     1       3.467  14.464  19.780  0.00  0.00    +0.000 A 
ATOM     33  C   UNL     1       4.337  15.450  20.254  0.00  0.00    +0.000 A 
ATOM     34  C   UNL     1       4.676  16.531  19.442  0.00  0.00    +0.000 A 
ATOM     35  C   UNL     1       4.146  16.631  18.157  0.00  0.00    +0.000 A 
ATOM     36  C   UNL     1       3.277  15.649  17.683  0.00  0.00    +0.000 A 
ENDBRANCH   7  31
TORSDOF 4
ENDMDL
MODEL 4
REMARK VINA RESULT:      -7.8      2.711      6.723
REMARK  Name = 
REMARK  6 active torsions:
REMARK  status: ('A' for Active; 'I' for Inactive)
REMARK    1  A    between atoms: C_1  and  C_2
REMARK    2  A    between atoms: C_2  and  N_3
REMARK    3  A    between atoms: C_5  and  C_6
REMARK    4  A    between atoms: C_10  and  C_11
REMARK    5  A    between atoms: C_21  and  C_22
REMARK    6  A    between atoms: C_33  and  C_34
REMARK                            x       y       z     vdW  Elec       q    Type
REMARK                         _______ _______ _______ _____ _____    ______ ____
ROOT
ATOM      1  C   UNL     1      -0.521  13.487  18.616  0.00  0.00    +0.000 C 
ATOM      2  O   UNL     1      -0.429  14.622  18.149  0.00  0.00    +0.000 OA
ATOM      3  N   UNL     1       0.571  12.621  18.691  0.00  0.00    +0.000 N 
ATOM      4  N   UNL     1       0.439  11.286  18.964  0.00  0.00    +0.000 NA
ATOM      5  C   UNL     1       1.573  10.715  18.699  0.00  0.00    +0.000 C 
ATOM      6  C   UNL     1       2.679  11.628  18.274  0.00  0.00    +0.000 C 
ATOM      7  C   UNL     1       1.917  12.959  18.215  0.00  0.00    +0.000 C 
ENDROOT
BRANCH   1  10
ATOM      8  N   UNL     1      -3.440  12.876  20.966  0.00  0.00    +0.000 N 
ATOM      9  C   UNL     1      -2.228  13.217  20.399  0.00  0.00    +0.000 A 
ATOM     10  C   UNL     1      -1.836  12.985  19.136  0.00  0.00    +0.000 A 
ATOM     11  C   UNL     1      -2.757  12.142  18.322  0.00  0.00    +0.000 A 
ATOM     12  O   UNL     1      -2.499  11.800  17.172  0.00  0.00    +0.000 OA
ATOM     13  C   UNL     1      -4.049  11.726  18.929  0.00  0.00    +0.000 A 
ATOM     14  C   UNL     1      -4.957  10.946  18.207  0.00  0.00    +0.000 A 
ATOM     15  C   UNL     1      -6.182  10.618  18.780  0.00  0.00    +0.000 A 
ATOM     16  C   UNL     1      -6.458  11.074  20.063  0.00  0.00    +0.000 A 
ATOM     17  C   UNL     1      -7.784  10.810  20.712  0.00  0.00    +0.000 C 
ATOM     18  N   UNL     1      -5.573  11.810  20.780  0.00  0.00    +0.000 NA
ATOM     19  C   UNL     1      -4.377  12.130  20.226  0.00  0.00    +0.000 A 
BRANCH   8  21
ATOM     20  C   UNL     1      -3.053  12.417  23.345  0.00  0.00    +0.000 C 
ATOM     21  C   UNL     1      -3.817  13.254  22.330  0.00  0.00    +0.000 C 
ENDBRANCH   8  21
ENDBRANCH   1  10
BRANCH   5  22
ATOM     22  C   UNL     1       1.695   9.289  18.775  0.00  0.00    +0.000 A 
ATOM     23  C   UNL     1       2.027   8.381  17.786  0.00  0.00    +0.000 A 
ATOM     24  C   UNL     1       2.097   7.108  18.396  0.00  0.00    +0.000 A 
ATOM     25  C   UNL     1       2.425   5.811  17.965  0.00  0.00    +0.000 A 
ATOM     26  C   UNL     1       2.375   4.764  18.892  0.00  0.00    +0.000 A 
ATOM     27  C   UNL     1       1.991   4.995  20.216  0.00  0.00    +0.000 A 
ATOM     28  C   UNL     1       1.665   6.283  20.665  0.00  0.00    +0.000 A 
ATOM     29  C   UNL     1       1.746   7.311  19.727  0.00  0.00    +0.000 A 
ATOM     30  O   UNL     1       1.511   8.637  19.960  0.00  0.00    +0.000 OA
ENDBRANCH   5  22
BRANCH   7  31
ATOM     31  C   UNL     1       2.592  14.031  19.047  0.00  0.00    +0.000 A 
ATOM     32  C   UNL     1       3.074  15.197  18.432  0.00  0.00    +0.000 A 
ATOM     33  C   UNL     1       3.713  16.185  19.187  0.00  0.00    +0.000 A 
ATOM     34  C   UNL     1       3.870  16.021  20.563  0.00  0.00    +0.000 A 
ATOM     35  C   UNL     1       3.389  14.872  21.187  0.00  0.00    +0.000 A 
ATOM     36  C   UNL     1       2.751  13.885  20.436  0.00  0.00    +0.000 A 
ENDBRANCH   7  31
TORSDOF 4
ENDMDL
MODEL 5
REMARK VINA RESULT:      -7.7      2.006      3.615
REMARK  Name = 
REMARK  6 active torsions:
REMARK  status: ('A' for Active; 'I' for Inactive)
REMARK    1  A    between atoms: C_1  and  C_2
REMARK    2  A    between atoms: C_2  and  N_3
REMARK    3  A    between atoms: C_5  and  C_6
REMARK    4  A    between atoms: C_10  and  C_11
REMARK    5  A    between atoms: C_21  and  C_22
REMARK    6  A    between atoms: C_33  and  C_34
REMARK                            x       y       z     vdW  Elec       q    Type
REMARK                         _______ _______ _______ _____ _____    ______ ____
ROOT
ATOM      1  C   UNL     1       0.776  13.773  21.671  0.00  0.00    +0.000 C 
ATOM      2  O   UNL     1       0.223  14.367  22.596  0.00  0.00    +0.000 OA
ATOM      3  N   UNL     1       0.386  12.495  21.268  0.00  0.00    +0.000 N 
ATOM      4  N   UNL     1       1.140  11.723  20.425  0.00  0.00    +0.000 NA
ATOM      5  C   UNL     1       0.661  10.518  20.459  0.00  0.00    +0.000 C 
ATOM      6  C   UNL     1      -0.566  10.328  21.293  0.00  0.00    +0.000 C 
ATOM      7  C   UNL     1      -0.693  11.730  21.903  0.00  0.00    +0.000 C 
ENDROOT
BRANCH   1  10
ATOM      8  N   UNL     1       2.639  15.885  19.124  0.00  0.00    +0.000 N 
ATOM      9  C   UNL     1       1.692  15.182  19.844  0.00  0.00    +0.000 A 
ATOM     10  C   UNL     1       1.908  14.416  20.925  0.00  0.00    +0.000 A 
ATOM     11  C   UNL     1       3.338  14.195  21.282  0.00  0.00    +0.000 A 
ATOM     12  O   UNL     1       3.684  13.469  22.208  0.00  0.00    +0.000 OA
ATOM     13  C   UNL     1       4.376  14.908  20.492  0.00  0.00    +0.000 A 
ATOM     14  C   UNL     1       5.733  14.749  20.791  0.00  0.00    +0.000 A 
ATOM     15  C   UNL     1       6.680  15.471  20.071  0.00  0.00    +0.000 A 
ATOM     16  C   UNL     1       6.241  16.325  19.067  0.00  0.00    +0.000 A 
ATOM     17  C   UNL     1       7.205  17.179  18.299  0.00  0.00    +0.000 C 
ATOM     18  N   UNL     1       4.930  16.467  18.754  0.00  0.00    +0.000 NA
ATOM     19  C   UNL     1       4.003  15.763  19.452  0.00  0.00    +0.000 A 
BRANCH   8  21
ATOM     20  C   UNL     1       0.864  17.262  18.141  0.00  0.00    +0.000 C 
ATOM     21  C   UNL     1       2.297  16.772  18.010  0.00  0.00    +0.000 C 
ENDBRANCH   8  21
ENDBRANCH   1  10
BRANCH   5  22
ATOM     22  C   UNL     1       1.331   9.458  19.764  0.00  0.00    +0.000 A 
ATOM     23  C   UNL     1       1.860   9.442  18.487  0.00  0.00    +0.000 A 
ATOM     24  C   UNL     1       2.490   8.190  18.313  0.00  0.00    +0.000 A 
ATOM     25  C   UNL     1       3.236   7.580  17.289  0.00  0.00    +0.000 A 
ATOM     26  C   UNL     1       3.709   6.278  17.488  0.00  0.00    +0.000 A 
ATOM     27  C   UNL     1       3.434   5.588  18.672  0.00  0.00    +0.000 A 
ATOM     28  C   UNL     1       2.697   6.182  19.706  0.00  0.00    +0.000 A 
ATOM     29  C   UNL     1       2.258   7.486  19.491  0.00  0.00    +0.000 A 
ATOM     30  O   UNL     1       1.561   8.261  20.377  0.00  0.00    +0.000 OA
ENDBRANCH   5  22
BRANCH   7  31
ATOM     31  C   UNL     1      -2.066  12.325  21.663  0.00  0.00    +0.000 A 
ATOM     32  C   UNL     1      -2.893  12.644  22.752  0.00  0.00    +0.000 A 
ATOM     33  C   UNL     1      -4.168  13.176  22.542  0.00  0.00    +0.000 A 
ATOM     34  C   UNL     1      -4.626  13.405  21.245  0.00  0.00    +0.000 A 
ATOM     35  C   UNL     1      -3.812  13.101  20.156  0.00  0.00    +0.000 A 
ATOM     36  C   UNL     1      -2.540  12.569  20.362  0.00  0.00    +0.000 A 
ENDBRANCH   7  31
TORSDOF 4
ENDMDL
MODEL 6
REMARK VINA RESULT:      -7.7      2.859      7.841
REMARK  Name = 
REMARK  6 active torsions:
REMARK  status: ('A' for Active; 'I' for Inactive)
REMARK    1  A    between atoms: C_1  and  C_2
REMARK    2  A    between atoms: C_2  and  N_3
REMARK    3  A    between atoms: C_5  and  C_6
REMARK    4  A    between atoms: C_10  and  C_11
REMARK    5  A    between atoms: C_21  and  C_22
REMARK    6  A    between atoms: C_33  and  C_34
REMARK                            x       y       z     vdW  Elec       q    Type
REMARK                         _______ _______ _______ _____ _____    ______ ____
ROOT
ATOM      1  C   UNL     1       0.602  12.648  18.841  0.00  0.00    +0.000 C 
ATOM      2  O   UNL     1      -0.286  12.864  18.016  0.00  0.00    +0.000 OA
ATOM      3  N   UNL     1       1.403  13.668  19.358  0.00  0.00    +0.000 N 
ATOM      4  N   UNL     1       2.546  13.423  20.070  0.00  0.00    +0.000 NA
ATOM      5  C   UNL     1       3.195  14.541  20.172  0.00  0.00    +0.000 C 
ATOM      6  C   UNL     1       2.518  15.743  19.593  0.00  0.00    +0.000 C 
ATOM      7  C   UNL     1       1.285  15.078  18.968  0.00  0.00    +0.000 C 
ENDROOT
BRANCH   1  10
ATOM      8  N   UNL     1       0.579   9.591  21.092  0.00  0.00    +0.000 N 
ATOM      9  C   UNL     1       0.470  10.859  20.558  0.00  0.00    +0.000 A 
ATOM     10  C   UNL     1       0.857  11.254  19.335  0.00  0.00    +0.000 A 
ATOM     11  C   UNL     1       1.614  10.244  18.542  0.00  0.00    +0.000 A 
ATOM     12  O   UNL     1       2.080  10.486  17.434  0.00  0.00    +0.000 OA
ATOM     13  C   UNL     1       1.781   8.883  19.118  0.00  0.00    +0.000 A 
ATOM     14  C   UNL     1       2.469   7.891  18.412  0.00  0.00    +0.000 A 
ATOM     15  C   UNL     1       2.563   6.611  18.951  0.00  0.00    +0.000 A 
ATOM     16  C   UNL     1       1.971   6.364  20.183  0.00  0.00    +0.000 A 
ATOM     17  C   UNL     1       1.980   4.992  20.787  0.00  0.00    +0.000 C 
ATOM     18  N   UNL     1       1.323   7.326  20.885  0.00  0.00    +0.000 NA
ATOM     19  C   UNL     1       1.231   8.576  20.365  0.00  0.00    +0.000 A 
BRANCH   8  21
ATOM     20  C   UNL     1      -0.718  10.399  23.010  0.00  0.00    +0.000 C 
ATOM     21  C   UNL     1       0.042   9.229  22.406  0.00  0.00    +0.000 C 
ENDBRANCH   8  21
ENDBRANCH   1  10
BRANCH   5  22
ATOM     22  C   UNL     1       4.499  14.563  20.766  0.00  0.00    +0.000 A 
ATOM     23  C   UNL     1       4.893  14.187  22.037  0.00  0.00    +0.000 A 
ATOM     24  C   UNL     1       6.298  14.317  22.094  0.00  0.00    +0.000 A 
ATOM     25  C   UNL     1       7.288  14.055  23.057  0.00  0.00    +0.000 A 
ATOM     26  C   UNL     1       8.623  14.327  22.739  0.00  0.00    +0.000 A 
ATOM     27  C   UNL     1       8.969  14.863  21.495  0.00  0.00    +0.000 A 
ATOM     28  C   UNL     1       7.997  15.125  20.520  0.00  0.00    +0.000 A 
ATOM     29  C   UNL     1       6.678  14.824  20.855  0.00  0.00    +0.000 A 
ATOM     30  O   UNL     1       5.586  14.965  20.045  0.00  0.00    +0.000 OA
ENDBRANCH   5  22
BRANCH   7  31
ATOM     31  C   UNL     1      -0.002  15.722  19.442  0.00  0.00    +0.000 A 
ATOM     32  C   UNL     1      -0.587  16.756  18.693  0.00  0.00    +0.000 A 
ATOM     33  C   UNL     1      -1.765  17.369  19.130  0.00  0.00    +0.000 A 
ATOM     34  C   UNL     1      -2.375  16.950  20.311  0.00  0.00    +0.000 A 
ATOM     35  C   UNL     1      -1.809  15.920  21.059  0.00  0.00    +0.000 A 
ATOM     36  C   UNL     1      -0.634  15.306  20.626  0.00  0.00    +0.000 A 
ENDBRANCH   7  31
TORSDOF 4
ENDMDL
MODEL 7
REMARK VINA RESULT:      -7.6      2.849      7.890
REMARK  Name = 
REMARK  6 active torsions:
REMARK  status: ('A' for Active; 'I' for Inactive)
REMARK    1  A    between atoms: C_1  and  C_2
REMARK    2  A    between atoms: C_2  and  N_3
REMARK    3  A    between atoms: C_5  and  C_6
REMARK    4  A    between atoms: C_10  and  C_11
REMARK    5  A    between atoms: C_21  and  C_22
REMARK    6  A    between atoms: C_33  and  C_34
REMARK                            x       y       z     vdW  Elec       q    Type
REMARK                         _______ _______ _______ _____ _____    ______ ____
ROOT
ATOM      1  C   UNL     1       0.673  12.624  18.975  0.00  0.00    +0.000 C 
ATOM      2  O   UNL     1      -0.164  12.866  18.106  0.00  0.00    +0.000 OA
ATOM      3  N   UNL     1       1.442  13.627  19.568  0.00  0.00    +0.000 N 
ATOM      4  N   UNL     1       2.541  13.358  20.339  0.00  0.00    +0.000 NA
ATOM      5  C   UNL     1       3.183  14.472  20.513  0.00  0.00    +0.000 C 
ATOM      6  C   UNL     1       2.541  15.692  19.932  0.00  0.00    +0.000 C 
ATOM      7  C   UNL     1       1.347  15.048  19.215  0.00  0.00    +0.000 C 
ENDROOT
BRANCH   1  10
ATOM      8  N   UNL     1       0.590   9.524  21.165  0.00  0.00    +0.000 N 
ATOM      9  C   UNL     1       0.508  10.805  20.656  0.00  0.00    +0.000 A 
ATOM     10  C   UNL     1       0.900  11.216  19.440  0.00  0.00    +0.000 A 
ATOM     11  C   UNL     1       1.631  10.205  18.624  0.00  0.00    +0.000 A 
ATOM     12  O   UNL     1       2.098  10.459  17.519  0.00  0.00    +0.000 OA
ATOM     13  C   UNL     1       1.770   8.830  19.172  0.00  0.00    +0.000 A 
ATOM     14  C   UNL     1       2.434   7.837  18.445  0.00  0.00    +0.000 A 
ATOM     15  C   UNL     1       2.500   6.545  18.957  0.00  0.00    +0.000 A 
ATOM     16  C   UNL     1       1.908   6.287  20.187  0.00  0.00    +0.000 A 
ATOM     17  C   UNL     1       1.888   4.903  20.764  0.00  0.00    +0.000 C 
ATOM     18  N   UNL     1       1.283   7.248  20.910  0.00  0.00    +0.000 NA
ATOM     19  C   UNL     1       1.218   8.510  20.415  0.00  0.00    +0.000 A 
BRANCH   8  21
ATOM     20  C   UNL     1      -0.780  10.284  23.051  0.00  0.00    +0.000 C 
ATOM     21  C   UNL     1       0.050   9.149  22.473  0.00  0.00    +0.000 C 
ENDBRANCH   8  21
ENDBRANCH   1  10
BRANCH   5  22
ATOM     22  C   UNL     1       4.450  14.474  21.183  0.00  0.00    +0.000 A 
ATOM     23  C   UNL     1       5.608  15.164  20.873  0.00  0.00    +0.000 A 
ATOM     24  C   UNL     1       6.542  14.890  21.897  0.00  0.00    +0.000 A 
ATOM     25  C   UNL     1       7.851  15.309  22.193  0.00  0.00    +0.000 A 
ATOM     26  C   UNL     1       8.476  14.798  23.335  0.00  0.00    +0.000 A 
ATOM     27  C   UNL     1       7.824  13.878  24.161  0.00  0.00    +0.000 A 
ATOM     28  C   UNL     1       6.516  13.454  23.885  0.00  0.00    +0.000 A 
ATOM     29  C   UNL     1       5.909  13.995  22.754  0.00  0.00    +0.000 A 
ATOM     30  O   UNL     1       4.634  13.749  22.325  0.00  0.00    +0.000 OA
ENDBRANCH   5  22
BRANCH   7  31
ATOM     31  C   UNL     1       0.034  15.679  19.632  0.00  0.00    +0.000 A 
ATOM     32  C   UNL     1      -0.568  16.651  18.816  0.00  0.00    +0.000 A 
ATOM     33  C   UNL     1      -1.770  17.253  19.199  0.00  0.00    +0.000 A 
ATOM     34  C   UNL     1      -2.387  16.884  20.393  0.00  0.00    +0.000 A 
ATOM     35  C   UNL     1      -1.805  15.915  21.208  0.00  0.00    +0.000 A 
ATOM     36  C   UNL     1      -0.605  15.314  20.829  0.00  0.00    +0.000 A 
ENDBRANCH   7  31
TORSDOF 4
ENDMDL
MODEL 8
REMARK VINA RESULT:      -7.6      3.666      7.053
REMARK  Name = 
REMARK  6 active torsions:
REMARK  status: ('A' for Active; 'I' for Inactive)
REMARK    1  A    between atoms: C_1  and  C_2
REMARK    2  A    between atoms: C_2  and  N_3
REMARK    3  A    between atoms: C_5  and  C_6
REMARK    4  A    between atoms: C_10  and  C_11
REMARK    5  A    between atoms: C_21  and  C_22
REMARK    6  A    between atoms: C_33  and  C_34
REMARK                            x       y       z     vdW  Elec       q    Type
REMARK                         _______ _______ _______ _____ _____    ______ ____
ROOT
ATOM      1  C   UNL     1       3.756  16.633  20.098  0.00  0.00    +0.000 C 
ATOM      2  O   UNL     1       3.746  17.864  20.114  0.00  0.00    +0.000 OA
ATOM      3  N   UNL     1       2.589  15.881  19.952  0.00  0.00    +0.000 N 
ATOM      4  N   UNL     1       2.543  14.533  20.186  0.00  0.00    +0.000 NA
ATOM      5  C   UNL     1       1.295  14.182  20.231  0.00  0.00    +0.000 C 
ATOM      6  C   UNL     1       0.303  15.264  19.947  0.00  0.00    +0.000 C 
ATOM      7  C   UNL     1       1.249  16.465  19.819  0.00  0.00    +0.000 C 
ENDROOT
BRANCH   1  10
ATOM      8  N   UNL     1       6.770  14.962  21.690  0.00  0.00    +0.000 N 
ATOM      9  C   UNL     1       5.630  15.696  21.429  0.00  0.00    +0.000 A 
ATOM     10  C   UNL     1       5.048  15.882  20.234  0.00  0.00    +0.000 A 
ATOM     11  C   UNL     1       5.804  15.359  19.062  0.00  0.00    +0.000 A 
ATOM     12  O   UNL     1       5.422  15.510  17.906  0.00  0.00    +0.000 OA
ATOM     13  C   UNL     1       7.058  14.602  19.317  0.00  0.00    +0.000 A 
ATOM     14  C   UNL     1       7.802  14.077  18.256  0.00  0.00    +0.000 A 
ATOM     15  C   UNL     1       8.942  13.326  18.527  0.00  0.00    +0.000 A 
ATOM     16  C   UNL     1       9.308  13.130  19.853  0.00  0.00    +0.000 A 
ATOM     17  C   UNL     1      10.488  12.278  20.214  0.00  0.00    +0.000 C 
ATOM     18  N   UNL     1       8.607  13.656  20.887  0.00  0.00    +0.000 NA
ATOM     19  C   UNL     1       7.496  14.391  20.627  0.00  0.00    +0.000 A 
BRANCH   8  21
ATOM     20  C   UNL     1       7.820  16.031  23.632  0.00  0.00    +0.000 C 
ATOM     21  C   UNL     1       7.281  14.736  23.044  0.00  0.00    +0.000 C 
ENDBRANCH   8  21
ENDBRANCH   1  10
BRANCH   5  22
ATOM     22  C   UNL     1       0.938  12.840  20.586  0.00  0.00    +0.000 A 
ATOM     23  C   UNL     1       1.211  11.655  19.927  0.00  0.00    +0.000 A 
ATOM     24  C   UNL     1       0.718  10.606  20.736  0.00  0.00    +0.000 A 
ATOM     25  C   UNL     1       0.721   9.203  20.663  0.00  0.00    +0.000 A 
ATOM     26  C   UNL     1       0.108   8.476  21.689  0.00  0.00    +0.000 A 
ATOM     27  C   UNL     1      -0.512   9.128  22.759  0.00  0.00    +0.000 A 
ATOM     28  C   UNL     1      -0.520  10.527  22.851  0.00  0.00    +0.000 A 
ATOM     29  C   UNL     1       0.118  11.225  21.828  0.00  0.00    +0.000 A 
ATOM     30  O   UNL     1       0.260  12.582  21.742  0.00  0.00    +0.000 OA
ENDBRANCH   5  22
BRANCH   7  31
ATOM     31  C   UNL     1       1.049  17.204  18.511  0.00  0.00    +0.000 A 
ATOM     32  C   UNL     1       2.054  17.183  17.532  0.00  0.00    +0.000 A 
ATOM     33  C   UNL     1       1.888  17.875  16.329  0.00  0.00    +0.000 A 
ATOM     34  C   UNL     1       0.713  18.588  16.089  0.00  0.00    +0.000 A 
ATOM     35  C   UNL     1      -0.296  18.611  17.050  0.00  0.00    +0.000 A 
ATOM     36  C   UNL     1      -0.132  17.921  18.251  0.00  0.00    +0.000 A 
ENDBRANCH   7  31
TORSDOF 4
ENDMDL
MODEL 9
REMARK VINA RESULT:      -7.6      0.552      1.036
REMARK  Name = 
REMARK  6 active torsions:
REMARK  status: ('A' for Active; 'I' for Inactive)
REMARK    1  A    between atoms: C_1  and  C_2
REMARK    2  A    between atoms: C_2  and  N_3
REMARK    3  A    between atoms: C_5  and  C_6
REMARK    4  A    between atoms: C_10  and  C_11
REMARK    5  A    between atoms: C_21  and  C_22
REMARK    6  A    between atoms: C_33  and  C_34
REMARK                            x       y       z     vdW  Elec       q    Type
REMARK                         _______ _______ _______ _____ _____    ______ ____
ROOT
ATOM      1  C   UNL     1      -0.790  14.452  22.218  0.00  0.00    +0.000 C 
ATOM      2  O   UNL     1      -1.184  15.055  23.216  0.00  0.00    +0.000 OA
ATOM      3  N   UNL     1      -0.909  13.067  22.089  0.00  0.00    +0.000 N 
ATOM      4  N   UNL     1      -0.257  12.356  21.118  0.00  0.00    +0.000 NA
ATOM      5  C   UNL     1      -0.347  11.098  21.422  0.00  0.00    +0.000 C 
ATOM      6  C   UNL     1      -1.164  10.777  22.633  0.00  0.00    +0.000 C 
ATOM      7  C   UNL     1      -1.490  12.196  23.117  0.00  0.00    +0.000 C 
ENDROOT
BRANCH   1  10
ATOM      8  N   UNL     1       1.856  15.779  19.840  0.00  0.00    +0.000 N 
ATOM      9  C   UNL     1       1.169  15.197  20.888  0.00  0.00    +0.000 A 
ATOM     10  C   UNL     1      -0.159  15.199  21.079  0.00  0.00    +0.000 A 
ATOM     11  C   UNL     1      -0.945  16.043  20.135  0.00  0.00    +0.000 A 
ATOM     12  O   UNL     1      -2.159  16.186  20.228  0.00  0.00    +0.000 OA
ATOM     13  C   UNL     1      -0.219  16.714  19.024  0.00  0.00    +0.000 A 
ATOM     14  C   UNL     1      -0.906  17.508  18.101  0.00  0.00    +0.000 A 
ATOM     15  C   UNL     1      -0.210  18.078  17.039  0.00  0.00    +0.000 A 
ATOM     16  C   UNL     1       1.155  17.844  16.939  0.00  0.00    +0.000 A 
ATOM     17  C   UNL     1       1.951  18.377  15.784  0.00  0.00    +0.000 C 
ATOM     18  N   UNL     1       1.834  17.097  17.843  0.00  0.00    +0.000 NA
ATOM     19  C   UNL     1       1.160  16.540  18.881  0.00  0.00    +0.000 A 
BRANCH   8  21
ATOM     20  C   UNL     1       4.043  16.346  20.792  0.00  0.00    +0.000 C 
ATOM     21  C   UNL     1       3.303  15.646  19.663  0.00  0.00    +0.000 C 
ENDBRANCH   8  21
ENDBRANCH   1  10
BRANCH   5  22
ATOM     22  C   UNL     1       0.352  10.118  20.644  0.00  0.00    +0.000 A 
ATOM     23  C   UNL     1       0.766  10.175  19.325  0.00  0.00    +0.000 A 
ATOM     24  C   UNL     1       1.490   8.990  19.065  0.00  0.00    +0.000 A 
ATOM     25  C   UNL     1       2.194   8.471  17.965  0.00  0.00    +0.000 A 
ATOM     26  C   UNL     1       2.800   7.216  18.088  0.00  0.00    +0.000 A 
ATOM     27  C   UNL     1       2.696   6.481  19.272  0.00  0.00    +0.000 A 
ATOM     28  C   UNL     1       2.002   6.985  20.381  0.00  0.00    +0.000 A 
ATOM     29  C   UNL     1       1.428   8.247  20.240  0.00  0.00    +0.000 A 
ATOM     30  O   UNL     1       0.745   8.937  21.203  0.00  0.00    +0.000 OA
ENDBRANCH   5  22
BRANCH   7  31
ATOM     31  C   UNL     1      -2.981  12.401  23.297  0.00  0.00    +0.000 A 
ATOM     32  C   UNL     1      -3.549  12.331  24.579  0.00  0.00    +0.000 A 
ATOM     33  C   UNL     1      -4.925  12.500  24.756  0.00  0.00    +0.000 A 
ATOM     34  C   UNL     1      -5.745  12.750  23.656  0.00  0.00    +0.000 A 
ATOM     35  C   UNL     1      -5.193  12.830  22.379  0.00  0.00    +0.000 A 
ATOM     36  C   UNL     1      -3.820  12.661  22.201  0.00  0.00    +0.000 A 
ENDBRANCH   7  31
TORSDOF 4
ENDMDL
