MODEL 1
REMARK VINA RESULT:      -7.9      0.000      0.000
REMARK  Name = 
REMARK  3 active torsions:
REMARK  status: ('A' for Active; 'I' for Inactive)
REMARK    1  A    between atoms: N_7  and  N_8
REMARK    2  A    between atoms: C_9  and  C_10
REMARK    3  A    between atoms: C_13  and  N_14
REMARK                            x       y       z     vdW  Elec       q    Type
REMARK                         _______ _______ _______ _____ _____    ______ ____
ROOT
ATOM      1  O   UNL     1       7.612   5.559  20.082  0.00  0.00    +0.000 OA
ATOM      2  C   UNL     1       7.072   5.526  18.984  0.00  0.00    +0.000 C 
ATOM      3  C   UNL     1       6.035   4.510  18.598  0.00  0.00    +0.000 C 
ATOM      4  C   UNL     1       5.811   4.749  17.079  0.00  0.00    +0.000 C 
ATOM      5  C   UNL     1       6.404   6.124  16.865  0.00  0.00    +0.000 C 
ATOM      6  O   UNL     1       6.136   6.856  15.924  0.00  0.00    +0.000 OA
ATOM      7  N   UNL     1       7.298   6.346  17.901  0.00  0.00    +0.000 N 
ATOM      8  C   UNL     1       4.280   4.681  16.938  0.00  0.00    +0.000 C 
ATOM      9  C   UNL     1       3.822   3.299  17.454  0.00  0.00    +0.000 C 
ATOM     10  C   UNL     1       3.967   3.297  18.800  0.00  0.00    +0.000 C 
ATOM     11  C   UNL     1       4.587   4.643  19.177  0.00  0.00    +0.000 C 
ATOM     12  C   UNL     1       3.873   5.498  18.141  0.00  0.00    +0.000 C 
ATOM     13  C   UNL     1       2.409   5.890  18.240  0.00  0.00    +0.000 C 
ATOM     14  C   UNL     1       3.481   6.949  18.243  0.00  0.00    +0.000 C 
ENDROOT
BRANCH   7  15
ATOM     15  N   UNL     1       8.148   7.433  17.875  0.00  0.00    +0.000 NA
ATOM     16  C   UNL     1       7.714   8.552  18.383  0.00  0.00    +0.000 C 
BRANCH  16  17
ATOM     17  C   UNL     1       8.563   9.720  18.404  0.00  0.00    +0.000 A 
ATOM     18  C   UNL     1       8.902  10.641  17.432  0.00  0.00    +0.000 A 
ATOM     19  C   UNL     1       9.822  11.551  18.014  0.00  0.00    +0.000 A 
ATOM     20  C   UNL     1       9.985  11.121  19.307  0.00  0.00    +0.000 A 
ATOM     21  O   UNL     1       9.227  10.016  19.574  0.00  0.00    +0.000 OA
BRANCH  20  22
ATOM     22  N   UNL     1      10.810  11.614  20.370  0.00  0.00    +0.000 N 
ATOM     23  O   UNL     1      12.029  11.497  20.221  0.00  0.00    +0.000 OA
ATOM     24  O   UNL     1      10.242  12.115  21.354  0.00  0.00    +0.000 OA
ENDBRANCH  20  22
ENDBRANCH  16  17
ENDBRANCH   7  15
TORSDOF 3
ENDMDL
MODEL 2
REMARK VINA RESULT:      -7.8      1.616      1.745
REMARK  Name = 
REMARK  3 active torsions:
REMARK  status: ('A' for Active; 'I' for Inactive)
REMARK    1  A    between atoms: N_7  and  N_8
REMARK    2  A    between atoms: C_9  and  C_10
REMARK    3  A    between atoms: C_13  and  N_14
REMARK                            x       y       z     vdW  Elec       q    Type
REMARK                         _______ _______ _______ _____ _____    ______ ____
ROOT
ATOM      1  O   UNL     1       7.349   5.294  20.208  0.00  0.00    +0.000 OA
ATOM      2  C   UNL     1       6.889   5.367  19.077  0.00  0.00    +0.000 C 
ATOM      3  C   UNL     1       5.871   4.408  18.529  0.00  0.00    +0.000 C 
ATOM      4  C   UNL     1       5.760   4.784  17.026  0.00  0.00    +0.000 C 
ATOM      5  C   UNL     1       6.382   6.161  16.978  0.00  0.00    +0.000 C 
ATOM      6  O   UNL     1       6.192   6.979  16.089  0.00  0.00    +0.000 OA
ATOM      7  N   UNL     1       7.202   6.276  18.090  0.00  0.00    +0.000 N 
ATOM      8  C   UNL     1       4.242   4.755  16.771  0.00  0.00    +0.000 C 
ATOM      9  C   UNL     1       3.733   3.342  17.127  0.00  0.00    +0.000 C 
ATOM     10  C   UNL     1       3.780   3.219  18.475  0.00  0.00    +0.000 C 
ATOM     11  C   UNL     1       4.387   4.515  19.014  0.00  0.00    +0.000 C 
ATOM     12  C   UNL     1       3.759   5.471  18.010  0.00  0.00    +0.000 C 
ATOM     13  C   UNL     1       2.297   5.878  18.040  0.00  0.00    +0.000 C 
ATOM     14  C   UNL     1       3.378   6.914  18.213  0.00  0.00    +0.000 C 
ENDROOT
BRANCH   7  15
ATOM     15  N   UNL     1       8.064   7.345  18.222  0.00  0.00    +0.000 NA
ATOM     16  C   UNL     1       7.561   8.543  18.120  0.00  0.00    +0.000 C 
BRANCH  16  17
ATOM     17  C   UNL     1       8.409   9.703  18.268  0.00  0.00    +0.000 A 
ATOM     18  C   UNL     1       9.598   9.907  18.938  0.00  0.00    +0.000 A 
ATOM     19  C   UNL     1       9.948  11.273  18.776  0.00  0.00    +0.000 A 
ATOM     20  C   UNL     1       8.942  11.813  18.016  0.00  0.00    +0.000 A 
ATOM     21  O   UNL     1       7.997  10.882  17.685  0.00  0.00    +0.000 OA
BRANCH  20  22
ATOM     22  N   UNL     1       8.722  13.152  17.552  0.00  0.00    +0.000 N 
ATOM     23  O   UNL     1       9.718  13.876  17.471  0.00  0.00    +0.000 OA
ATOM     24  O   UNL     1       7.559  13.481  17.273  0.00  0.00    +0.000 OA
ENDBRANCH  20  22
ENDBRANCH  16  17
ENDBRANCH   7  15
TORSDOF 3
ENDMDL
MODEL 3
REMARK VINA RESULT:      -7.8      5.427      6.236
REMARK  Name = 
REMARK  3 active torsions:
REMARK  status: ('A' for Active; 'I' for Inactive)
REMARK    1  A    between atoms: N_7  and  N_8
REMARK    2  A    between atoms: C_9  and  C_10
REMARK    3  A    between atoms: C_13  and  N_14
REMARK                            x       y       z     vdW  Elec       q    Type
REMARK                         _______ _______ _______ _____ _____    ______ ____
ROOT
ATOM      1  O   UNL     1       6.074   3.940  18.850  0.00  0.00    +0.000 OA
ATOM      2  C   UNL     1       4.910   3.669  18.585  0.00  0.00    +0.000 C 
ATOM      3  C   UNL     1       3.920   3.172  19.600  0.00  0.00    +0.000 C 
ATOM      4  C   UNL     1       2.672   2.785  18.759  0.00  0.00    +0.000 C 
ATOM      5  C   UNL     1       2.919   3.494  17.446  0.00  0.00    +0.000 C 
ATOM      6  O   UNL     1       2.050   3.766  16.630  0.00  0.00    +0.000 OA
ATOM      7  N   UNL     1       4.283   3.726  17.360  0.00  0.00    +0.000 N 
ATOM      8  C   UNL     1       1.505   3.355  19.587  0.00  0.00    +0.000 C 
ATOM      9  C   UNL     1       1.568   2.714  20.990  0.00  0.00    +0.000 C 
ATOM     10  C   UNL     1       2.636   3.244  21.633  0.00  0.00    +0.000 C 
ATOM     11  C   UNL     1       3.327   4.179  20.640  0.00  0.00    +0.000 C 
ATOM     12  C   UNL     1       2.078   4.705  19.947  0.00  0.00    +0.000 C 
ATOM     13  C   UNL     1       1.128   5.707  20.576  0.00  0.00    +0.000 C 
ATOM     14  C   UNL     1       1.867   6.052  19.309  0.00  0.00    +0.000 C 
ENDROOT
BRANCH   7  15
ATOM     15  N   UNL     1       4.847   4.179  16.185  0.00  0.00    +0.000 NA
ATOM     16  C   UNL     1       5.475   3.312  15.442  0.00  0.00    +0.000 C 
BRANCH  16  17
ATOM     17  C   UNL     1       6.070   3.721  14.191  0.00  0.00    +0.000 A 
ATOM     18  C   UNL     1       5.967   3.226  12.906  0.00  0.00    +0.000 A 
ATOM     19  C   UNL     1       6.824   4.002  12.083  0.00  0.00    +0.000 A 
ATOM     20  C   UNL     1       7.395   4.922  12.926  0.00  0.00    +0.000 A 
ATOM     21  O   UNL     1       6.950   4.781  14.211  0.00  0.00    +0.000 OA
BRANCH  20  22
ATOM     22  N   UNL     1       8.364   5.951  12.685  0.00  0.00    +0.000 N 
ATOM     23  O   UNL     1       8.179   6.659  11.692  0.00  0.00    +0.000 OA
ATOM     24  O   UNL     1       9.309   6.050  13.484  0.00  0.00    +0.000 OA
ENDBRANCH  20  22
ENDBRANCH  16  17
ENDBRANCH   7  15
TORSDOF 3
ENDMDL
MODEL 4
REMARK VINA RESULT:      -7.8      5.041      6.205
REMARK  Name = 
REMARK  3 active torsions:
REMARK  status: ('A' for Active; 'I' for Inactive)
REMARK    1  A    between atoms: N_7  and  N_8
REMARK    2  A    between atoms: C_9  and  C_10
REMARK    3  A    between atoms: C_13  and  N_14
REMARK                            x       y       z     vdW  Elec       q    Type
REMARK                         _______ _______ _______ _____ _____    ______ ____
ROOT
ATOM      1  O   UNL     1       3.478   7.005  17.445  0.00  0.00    +0.000 OA
ATOM      2  C   UNL     1       3.801   6.013  18.083  0.00  0.00    +0.000 C 
ATOM      3  C   UNL     1       3.162   5.615  19.383  0.00  0.00    +0.000 C 
ATOM      4  C   UNL     1       4.032   4.433  19.893  0.00  0.00    +0.000 C 
ATOM      5  C   UNL     1       4.786   4.012  18.651  0.00  0.00    +0.000 C 
ATOM      6  O   UNL     1       5.304   2.917  18.491  0.00  0.00    +0.000 OA
ATOM      7  N   UNL     1       4.789   5.099  17.790  0.00  0.00    +0.000 N 
ATOM      8  C   UNL     1       2.986   3.416  20.384  0.00  0.00    +0.000 C 
ATOM      9  C   UNL     1       2.132   4.109  21.468  0.00  0.00    +0.000 C 
ATOM     10  C   UNL     1       1.347   5.022  20.847  0.00  0.00    +0.000 C 
ATOM     11  C   UNL     1       1.726   4.993  19.366  0.00  0.00    +0.000 C 
ATOM     12  C   UNL     1       1.993   3.499  19.249  0.00  0.00    +0.000 C 
ATOM     13  C   UNL     1       0.896   2.450  19.221  0.00  0.00    +0.000 C 
ATOM     14  C   UNL     1       1.820   2.615  18.042  0.00  0.00    +0.000 C 
ENDROOT
BRANCH   7  15
ATOM     15  N   UNL     1       5.571   5.094  16.653  0.00  0.00    +0.000 NA
ATOM     16  C   UNL     1       5.136   4.426  15.622  0.00  0.00    +0.000 C 
BRANCH  16  17
ATOM     17  C   UNL     1       5.900   4.398  14.397  0.00  0.00    +0.000 A 
ATOM     18  C   UNL     1       5.942   3.503  13.347  0.00  0.00    +0.000 A 
ATOM     19  C   UNL     1       6.925   3.966  12.434  0.00  0.00    +0.000 A 
ATOM     20  C   UNL     1       7.421   5.117  12.993  0.00  0.00    +0.000 A 
ATOM     21  O   UNL     1       6.811   5.409  14.181  0.00  0.00    +0.000 OA
BRANCH  20  22
ATOM     22  N   UNL     1       8.451   6.013  12.556  0.00  0.00    +0.000 N 
ATOM     23  O   UNL     1       9.460   6.077  13.262  0.00  0.00    +0.000 OA
ATOM     24  O   UNL     1       8.252   6.653  11.511  0.00  0.00    +0.000 OA
ENDBRANCH  20  22
ENDBRANCH  16  17
ENDBRANCH   7  15
TORSDOF 3
ENDMDL
MODEL 5
REMARK VINA RESULT:      -7.7      5.357      7.265
REMARK  Name = 
REMARK  3 active torsions:
REMARK  status: ('A' for Active; 'I' for Inactive)
REMARK    1  A    between atoms: N_7  and  N_8
REMARK    2  A    between atoms: C_9  and  C_10
REMARK    3  A    between atoms: C_13  and  N_14
REMARK                            x       y       z     vdW  Elec       q    Type
REMARK                         _______ _______ _______ _____ _____    ______ ____
ROOT
ATOM      1  O   UNL     1       3.626   6.675  17.427  0.00  0.00    +0.000 OA
ATOM      2  C   UNL     1       3.774   5.569  17.929  0.00  0.00    +0.000 C 
ATOM      3  C   UNL     1       3.396   5.242  19.347  0.00  0.00    +0.000 C 
ATOM      4  C   UNL     1       3.952   3.808  19.570  0.00  0.00    +0.000 C 
ATOM      5  C   UNL     1       4.191   3.318  18.159  0.00  0.00    +0.000 C 
ATOM      6  O   UNL     1       4.280   2.142  17.839  0.00  0.00    +0.000 OA
ATOM      7  N   UNL     1       4.315   4.440  17.355  0.00  0.00    +0.000 N 
ATOM      8  C   UNL     1       2.802   3.101  20.309  0.00  0.00    +0.000 C 
ATOM      9  C   UNL     1       2.516   3.896  21.601  0.00  0.00    +0.000 C 
ATOM     10  C   UNL     1       1.926   5.061  21.241  0.00  0.00    +0.000 C 
ATOM     11  C   UNL     1       1.884   5.079  19.713  0.00  0.00    +0.000 C 
ATOM     12  C   UNL     1       1.629   3.594  19.495  0.00  0.00    +0.000 C 
ATOM     13  C   UNL     1       0.290   2.926  19.748  0.00  0.00    +0.000 C 
ATOM     14  C   UNL     1       0.885   2.935  18.364  0.00  0.00    +0.000 C 
ENDROOT
BRANCH   7  15
ATOM     15  N   UNL     1       4.738   4.325  16.046  0.00  0.00    +0.000 NA
ATOM     16  C   UNL     1       6.002   4.521  15.800  0.00  0.00    +0.000 C 
BRANCH  16  17
ATOM     17  C   UNL     1       6.510   4.396  14.453  0.00  0.00    +0.000 A 
ATOM     18  C   UNL     1       7.301   5.220  13.677  0.00  0.00    +0.000 A 
ATOM     19  C   UNL     1       7.436   4.603  12.407  0.00  0.00    +0.000 A 
ATOM     20  C   UNL     1       6.714   3.439  12.493  0.00  0.00    +0.000 A 
ATOM     21  O   UNL     1       6.147   3.283  13.727  0.00  0.00    +0.000 OA
BRANCH  20  22
ATOM     22  N   UNL     1       6.452   2.415  11.525  0.00  0.00    +0.000 N 
ATOM     23  O   UNL     1       5.267   2.139  11.323  0.00  0.00    +0.000 OA
ATOM     24  O   UNL     1       7.427   1.884  10.971  0.00  0.00    +0.000 OA
ENDBRANCH  20  22
ENDBRANCH  16  17
ENDBRANCH   7  15
TORSDOF 3
ENDMDL
MODEL 6
REMARK VINA RESULT:      -7.7      5.146      6.233
REMARK  Name = 
REMARK  3 active torsions:
REMARK  status: ('A' for Active; 'I' for Inactive)
REMARK    1  A    between atoms: N_7  and  N_8
REMARK    2  A    between atoms: C_9  and  C_10
REMARK    3  A    between atoms: C_13  and  N_14
REMARK                            x       y       z     vdW  Elec       q    Type
REMARK                         _______ _______ _______ _____ _____    ______ ____
ROOT
ATOM      1  O   UNL     1       4.219   6.544  18.560  0.00  0.00    +0.000 OA
ATOM      2  C   UNL     1       4.153   5.326  18.653  0.00  0.00    +0.000 C 
ATOM      3  C   UNL     1       3.699   4.609  19.893  0.00  0.00    +0.000 C 
ATOM      4  C   UNL     1       3.978   3.110  19.593  0.00  0.00    +0.000 C 
ATOM      5  C   UNL     1       4.146   3.095  18.090  0.00  0.00    +0.000 C 
ATOM      6  O   UNL     1       4.023   2.102  17.388  0.00  0.00    +0.000 OA
ATOM      7  N   UNL     1       4.487   4.383  17.706  0.00  0.00    +0.000 N 
ATOM      8  C   UNL     1       2.706   2.410  20.104  0.00  0.00    +0.000 C 
ATOM      9  C   UNL     1       2.550   2.756  21.601  0.00  0.00    +0.000 C 
ATOM     10  C   UNL     1       2.190   4.059  21.683  0.00  0.00    +0.000 C 
ATOM     11  C   UNL     1       2.177   4.603  20.254  0.00  0.00    +0.000 C 
ATOM     12  C   UNL     1       1.657   3.352  19.561  0.00  0.00    +0.000 C 
ATOM     13  C   UNL     1       0.214   2.888  19.637  0.00  0.00    +0.000 C 
ATOM     14  C   UNL     1       0.823   3.261  18.310  0.00  0.00    +0.000 C 
ENDROOT
BRANCH   7  15
ATOM     15  N   UNL     1       4.903   4.646  16.417  0.00  0.00    +0.000 NA
ATOM     16  C   UNL     1       5.841   3.892  15.918  0.00  0.00    +0.000 C 
BRANCH  16  17
ATOM     17  C   UNL     1       6.306   4.106  14.567  0.00  0.00    +0.000 A 
ATOM     18  C   UNL     1       6.052   3.446  13.382  0.00  0.00    +0.000 A 
ATOM     19  C   UNL     1       6.832   4.071  12.374  0.00  0.00    +0.000 A 
ATOM     20  C   UNL     1       7.513   5.074  13.017  0.00  0.00    +0.000 A 
ATOM     21  O   UNL     1       7.208   5.124  14.348  0.00  0.00    +0.000 OA
BRANCH  20  22
ATOM     22  N   UNL     1       8.474   6.023  12.536  0.00  0.00    +0.000 N 
ATOM     23  O   UNL     1       8.185   6.618  11.494  0.00  0.00    +0.000 OA
ATOM     24  O   UNL     1       9.515   6.172  13.194  0.00  0.00    +0.000 OA
ENDBRANCH  20  22
ENDBRANCH  16  17
ENDBRANCH   7  15
TORSDOF 3
ENDMDL
MODEL 7
REMARK VINA RESULT:      -7.6      4.947      7.180
REMARK  Name = 
REMARK  3 active torsions:
REMARK  status: ('A' for Active; 'I' for Inactive)
REMARK    1  A    between atoms: N_7  and  N_8
REMARK    2  A    between atoms: C_9  and  C_10
REMARK    3  A    between atoms: C_13  and  N_14
REMARK                            x       y       z     vdW  Elec       q    Type
REMARK                         _______ _______ _______ _____ _____    ______ ____
ROOT
ATOM      1  O   UNL     1       3.835   7.187  17.098  0.00  0.00    +0.000 OA
ATOM      2  C   UNL     1       4.067   6.239  17.837  0.00  0.00    +0.000 C 
ATOM      3  C   UNL     1       3.359   6.009  19.142  0.00  0.00    +0.000 C 
ATOM      4  C   UNL     1       4.128   4.824  19.790  0.00  0.00    +0.000 C 
ATOM      5  C   UNL     1       4.889   4.239  18.622  0.00  0.00    +0.000 C 
ATOM      6  O   UNL     1       5.334   3.101  18.584  0.00  0.00    +0.000 OA
ATOM      7  N   UNL     1       4.997   5.237  17.667  0.00  0.00    +0.000 N 
ATOM      8  C   UNL     1       2.997   3.931  20.332  0.00  0.00    +0.000 C 
ATOM      9  C   UNL     1       2.159   4.778  21.313  0.00  0.00    +0.000 C 
ATOM     10  C   UNL     1       1.461   5.679  20.582  0.00  0.00    +0.000 C 
ATOM     11  C   UNL     1       1.885   5.486  19.126  0.00  0.00    +0.000 C 
ATOM     12  C   UNL     1       2.049   3.973  19.156  0.00  0.00    +0.000 C 
ATOM     13  C   UNL     1       0.882   3.002  19.181  0.00  0.00    +0.000 C 
ATOM     14  C   UNL     1       1.853   2.994  18.029  0.00  0.00    +0.000 C 
ENDROOT
BRANCH   7  15
ATOM     15  N   UNL     1       5.814   5.073  16.567  0.00  0.00    +0.000 NA
ATOM     16  C   UNL     1       5.292   4.535  15.501  0.00  0.00    +0.000 C 
BRANCH  16  17
ATOM     17  C   UNL     1       6.090   4.354  14.311  0.00  0.00    +0.000 A 
ATOM     18  C   UNL     1       7.087   5.116  13.735  0.00  0.00    +0.000 A 
ATOM     19  C   UNL     1       7.477   4.467  12.535  0.00  0.00    +0.000 A 
ATOM     20  C   UNL     1       6.687   3.348  12.459  0.00  0.00    +0.000 A 
ATOM     21  O   UNL     1       5.841   3.249  13.528  0.00  0.00    +0.000 OA
BRANCH  20  22
ATOM     22  N   UNL     1       6.597   2.320  11.463  0.00  0.00    +0.000 N 
ATOM     23  O   UNL     1       7.641   2.034  10.872  0.00  0.00    +0.000 OA
ATOM     24  O   UNL     1       5.486   1.802  11.270  0.00  0.00    +0.000 OA
ENDBRANCH  20  22
ENDBRANCH  16  17
ENDBRANCH   7  15
TORSDOF 3
ENDMDL
MODEL 8
REMARK VINA RESULT:      -7.5      5.733      7.030
REMARK  Name = 
REMARK  3 active torsions:
REMARK  status: ('A' for Active; 'I' for Inactive)
REMARK    1  A    between atoms: N_7  and  N_8
REMARK    2  A    between atoms: C_9  and  C_10
REMARK    3  A    between atoms: C_13  and  N_14
REMARK                            x       y       z     vdW  Elec       q    Type
REMARK                         _______ _______ _______ _____ _____    ______ ____
ROOT
ATOM      1  O   UNL     1       5.443   2.455  19.486  0.00  0.00    +0.000 OA
ATOM      2  C   UNL     1       4.266   2.589  19.181  0.00  0.00    +0.000 C 
ATOM      3  C   UNL     1       3.138   2.526  20.172  0.00  0.00    +0.000 C 
ATOM      4  C   UNL     1       1.856   2.546  19.295  0.00  0.00    +0.000 C 
ATOM      5  C   UNL     1       2.369   3.048  17.963  0.00  0.00    +0.000 C 
ATOM      6  O   UNL     1       1.671   3.556  17.098  0.00  0.00    +0.000 OA
ATOM      7  N   UNL     1       3.730   2.788  17.928  0.00  0.00    +0.000 N 
ATOM      8  C   UNL     1       0.938   3.531  20.042  0.00  0.00    +0.000 C 
ATOM      9  C   UNL     1       0.738   2.990  21.474  0.00  0.00    +0.000 C 
ATOM     10  C   UNL     1       1.906   3.155  22.140  0.00  0.00    +0.000 C 
ATOM     11  C   UNL     1       2.905   3.734  21.138  0.00  0.00    +0.000 C 
ATOM     12  C   UNL     1       1.936   4.618  20.366  0.00  0.00    +0.000 C 
ATOM     13  C   UNL     1       1.377   5.922  20.906  0.00  0.00    +0.000 C 
ATOM     14  C   UNL     1       2.223   5.916  19.659  0.00  0.00    +0.000 C 
ENDROOT
BRANCH   7  15
ATOM     15  N   UNL     1       4.447   2.949  16.761  0.00  0.00    +0.000 NA
ATOM     16  C   UNL     1       5.139   4.045  16.622  0.00  0.00    +0.000 C 
BRANCH  16  17
ATOM     17  C   UNL     1       5.926   4.264  15.431  0.00  0.00    +0.000 A 
ATOM     18  C   UNL     1       6.945   5.148  15.139  0.00  0.00    +0.000 A 
ATOM     19  C   UNL     1       7.309   4.943  13.783  0.00  0.00    +0.000 A 
ATOM     20  C   UNL     1       6.482   3.942  13.337  0.00  0.00    +0.000 A 
ATOM     21  O   UNL     1       5.638   3.504  14.318  0.00  0.00    +0.000 OA
BRANCH  20  22
ATOM     22  N   UNL     1       6.355   3.324  12.050  0.00  0.00    +0.000 N 
ATOM     23  O   UNL     1       5.210   3.046  11.683  0.00  0.00    +0.000 OA
ATOM     24  O   UNL     1       7.396   3.113  11.407  0.00  0.00    +0.000 OA
ENDBRANCH  20  22
ENDBRANCH  16  17
ENDBRANCH   7  15
TORSDOF 3
ENDMDL
MODEL 9
REMARK VINA RESULT:      -7.4      2.723      8.655
REMARK  Name = 
REMARK  3 active torsions:
REMARK  status: ('A' for Active; 'I' for Inactive)
REMARK    1  A    between atoms: N_7  and  N_8
REMARK    2  A    between atoms: C_9  and  C_10
REMARK    3  A    between atoms: C_13  and  N_14
REMARK                            x       y       z     vdW  Elec       q    Type
REMARK                         _______ _______ _______ _____ _____    ______ ____
ROOT
ATOM      1  O   UNL     1      11.088  11.645  17.519  0.00  0.00    +0.000 OA
ATOM      2  C   UNL     1      10.763  12.012  18.640  0.00  0.00    +0.000 C 
ATOM      3  C   UNL     1      11.180  13.326  19.240  0.00  0.00    +0.000 C 
ATOM      4  C   UNL     1      10.702  13.242  20.715  0.00  0.00    +0.000 C 
ATOM      5  C   UNL     1       9.705  12.106  20.681  0.00  0.00    +0.000 C 
ATOM      6  O   UNL     1       8.830  11.925  21.515  0.00  0.00    +0.000 OA
ATOM      7  N   UNL     1      10.007  11.333  19.570  0.00  0.00    +0.000 N 
ATOM      8  C   UNL     1      10.084  14.631  20.959  0.00  0.00    +0.000 C 
ATOM      9  C   UNL     1      11.178  15.686  20.689  0.00  0.00    +0.000 C 
ATOM     10  C   UNL     1      11.391  15.719  19.352  0.00  0.00    +0.000 C 
ATOM     11  C   UNL     1      10.498  14.641  18.737  0.00  0.00    +0.000 C 
ATOM     12  C   UNL     1       9.309  14.799  19.674  0.00  0.00    +0.000 C 
ATOM     13  C   UNL     1       8.336  15.962  19.607  0.00  0.00    +0.000 C 
ATOM     14  C   UNL     1       7.853  14.553  19.377  0.00  0.00    +0.000 C 
ENDROOT
BRANCH   7  15
ATOM     15  N   UNL     1       9.401  10.109  19.378  0.00  0.00    +0.000 NA
ATOM     16  C   UNL     1       8.724   9.936  18.278  0.00  0.00    +0.000 C 
BRANCH  16  17
ATOM     17  C   UNL     1       8.082   8.670  18.010  0.00  0.00    +0.000 A 
ATOM     18  C   UNL     1       7.089   8.300  17.125  0.00  0.00    +0.000 A 
ATOM     19  C   UNL     1       6.820   6.923  17.341  0.00  0.00    +0.000 A 
ATOM     20  C   UNL     1       7.671   6.545  18.349  0.00  0.00    +0.000 A 
ATOM     21  O   UNL     1       8.455   7.583  18.769  0.00  0.00    +0.000 OA
BRANCH  20  22
ATOM     22  N   UNL     1       7.843   5.290  19.020  0.00  0.00    +0.000 N 
ATOM     23  O   UNL     1       8.113   4.319  18.308  0.00  0.00    +0.000 OA
ATOM     24  O   UNL     1       7.705   5.272  20.253  0.00  0.00    +0.000 OA
ENDBRANCH  20  22
ENDBRANCH  16  17
ENDBRANCH   7  15
TORSDOF 3
ENDMDL
