MODEL 1
REMARK VINA RESULT:      -6.8      0.000      0.000
REMARK  Name = 
REMARK  12 active torsions:
REMARK  status: ('A' for Active; 'I' for Inactive)
REMARK    1  A    between atoms: C_2  and  C_3
REMARK    2  A    between atoms: C_3  and  N_4
REMARK    3  A    between atoms: C_5  and  C_6
REMARK    4  A    between atoms: C_6  and  C_7
REMARK    5  A    between atoms: C_14  and  S_15
REMARK    6  A    between atoms: S_15  and  C_16
REMARK    7  A    between atoms: C_16  and  C_17
REMARK    8  A    between atoms: N_19  and  C_20
REMARK    9  A    between atoms: C_23  and  C_24
REMARK   10  A    between atoms: C_24  and  O_26
REMARK   11  A    between atoms: O_26  and  C_27
REMARK   12  A    between atoms: C_27  and  C_28
REMARK                            x       y       z     vdW  Elec       q    Type
REMARK                         _______ _______ _______ _____ _____    ______ ____
ROOT
ATOM      1  C   UNL     1       1.398   5.359  19.945  0.00  0.00    +0.000 C 
ENDROOT
BRANCH   1   2
ATOM      2  C   UNL     1       2.052   4.905  18.650  0.00  0.00    +0.000 C 
ATOM      3  O   UNL     1       1.417   4.249  17.826  0.00  0.00    +0.000 OA
ATOM      4  N   UNL     1       3.378   5.289  18.536  0.00  0.00    +0.000 N 
ATOM      5  H   UNL     1       3.832   5.607  19.393  0.00  0.00    +0.000 HD
BRANCH   4   6
ATOM      6  C   UNL     1       4.216   5.097  17.418  0.00  0.00    +0.000 A 
ATOM      7  C   UNL     1       4.685   3.846  17.019  0.00  0.00    +0.000 A 
ATOM      8  C   UNL     1       5.534   3.723  15.914  0.00  0.00    +0.000 A 
ATOM      9  C   UNL     1       5.914   4.853  15.188  0.00  0.00    +0.000 A 
ATOM     10  C   UNL     1       5.429   6.110  15.571  0.00  0.00    +0.000 A 
ATOM     11  C   UNL     1       4.580   6.228  16.678  0.00  0.00    +0.000 A 
BRANCH   9  12
ATOM     12  C   UNL     1       6.889   4.667  14.081  0.00  0.00    +0.000 C 
ATOM     13  O   UNL     1       7.728   5.499  13.773  0.00  0.00    +0.000 OA
BRANCH  12  14
ATOM     14  O   UNL     1       6.638   3.507  13.428  0.00  0.00    +0.000 OA
BRANCH  14  15
ATOM     15  C   UNL     1       5.841   3.639  12.242  0.00  0.00    +0.000 C 
ATOM     16  C   UNL     1       5.671   2.259  11.637  0.00  0.00    +0.000 C 
ENDBRANCH  14  15
ENDBRANCH  12  14
ENDBRANCH   9  12
ENDBRANCH   4   6
ENDBRANCH   1   2
BRANCH   1  17
ATOM     17  S   UNL     1       2.277   6.782  20.650  0.00  0.00    +0.000 S 
BRANCH  17  22
ATOM     18  N   UNL     1       1.157   9.238  20.118  0.00  0.00    +0.000 N 
ATOM     19  C   UNL     1       0.897   9.998  18.989  0.00  0.00    +0.000 A 
ATOM     20  N   UNL     1       1.280   9.313  17.925  0.00  0.00    +0.000 NA
ATOM     21  N   UNL     1       1.777   8.105  18.340  0.00  0.00    +0.000 NA
ATOM     22  C   UNL     1       1.707   8.072  19.650  0.00  0.00    +0.000 A 
BRANCH  18  23
ATOM     23  C   UNL     1       1.037   9.671  21.504  0.00  0.00    +0.000 C 
BRANCH  23  25
ATOM     24  C   UNL     1      -0.799   9.922  23.206  0.00  0.00    +0.000 C 
ATOM     25  C   UNL     1      -0.295   9.330  22.114  0.00  0.00    +0.000 C 
ENDBRANCH  23  25
ENDBRANCH  18  23
BRANCH  19  26
ATOM     26  C   UNL     1       0.384  11.408  18.983  0.00  0.00    +0.000 C 
BRANCH  26  27
ATOM     27  C   UNL     1       1.453  12.469  19.044  0.00  0.00    +0.000 A 
ATOM     28  C   UNL     1       2.337  12.866  18.056  0.00  0.00    +0.000 A 
ATOM     29  C   UNL     1       3.305  13.800  18.526  0.00  0.00    +0.000 A 
ATOM     30  C   UNL     1       3.118  14.112  19.852  0.00  0.00    +0.000 A 
ATOM     31  S   UNL     1       1.778  13.287  20.520  0.00  0.00    +0.000 S 
ENDBRANCH  26  27
ENDBRANCH  19  26
ENDBRANCH  17  22
ENDBRANCH   1  17
TORSDOF 11
ENDMDL
MODEL 2
REMARK VINA RESULT:      -6.7      1.486      2.304
REMARK  Name = 
REMARK  12 active torsions:
REMARK  status: ('A' for Active; 'I' for Inactive)
REMARK    1  A    between atoms: C_2  and  C_3
REMARK    2  A    between atoms: C_3  and  N_4
REMARK    3  A    between atoms: C_5  and  C_6
REMARK    4  A    between atoms: C_6  and  C_7
REMARK    5  A    between atoms: C_14  and  S_15
REMARK    6  A    between atoms: S_15  and  C_16
REMARK    7  A    between atoms: C_16  and  C_17
REMARK    8  A    between atoms: N_19  and  C_20
REMARK    9  A    between atoms: C_23  and  C_24
REMARK   10  A    between atoms: C_24  and  O_26
REMARK   11  A    between atoms: O_26  and  C_27
REMARK   12  A    between atoms: C_27  and  C_28
REMARK                            x       y       z     vdW  Elec       q    Type
REMARK                         _______ _______ _______ _____ _____    ______ ____
ROOT
ATOM      1  C   UNL     1       1.298   4.853  19.679  0.00  0.00    +0.000 C 
ENDROOT
BRANCH   1   2
ATOM      2  C   UNL     1       2.016   4.660  18.353  0.00  0.00    +0.000 C 
ATOM      3  O   UNL     1       1.406   4.252  17.367  0.00  0.00    +0.000 OA
ATOM      4  N   UNL     1       3.366   4.969  18.406  0.00  0.00    +0.000 N 
ATOM      5  H   UNL     1       3.775   5.054  19.337  0.00  0.00    +0.000 HD
BRANCH   4   6
ATOM      6  C   UNL     1       4.269   4.978  17.323  0.00  0.00    +0.000 A 
ATOM      7  C   UNL     1       4.635   6.140  16.642  0.00  0.00    +0.000 A 
ATOM      8  C   UNL     1       5.519   6.081  15.559  0.00  0.00    +0.000 A 
ATOM      9  C   UNL     1       6.055   4.858  15.152  0.00  0.00    +0.000 A 
ATOM     10  C   UNL     1       5.708   3.692  15.845  0.00  0.00    +0.000 A 
ATOM     11  C   UNL     1       4.824   3.755  16.928  0.00  0.00    +0.000 A 
BRANCH   9  12
ATOM     12  C   UNL     1       6.915   4.852  13.939  0.00  0.00    +0.000 C 
ATOM     13  O   UNL     1       8.059   5.279  13.921  0.00  0.00    +0.000 OA
BRANCH  12  14
ATOM     14  O   UNL     1       6.213   4.405  12.871  0.00  0.00    +0.000 OA
BRANCH  14  15
ATOM     15  C   UNL     1       6.822   3.321  12.155  0.00  0.00    +0.000 C 
ATOM     16  C   UNL     1       5.738   2.315  11.819  0.00  0.00    +0.000 C 
ENDBRANCH  14  15
ENDBRANCH  12  14
ENDBRANCH   9  12
ENDBRANCH   4   6
ENDBRANCH   1   2
BRANCH   1  17
ATOM     17  S   UNL     1       2.087   6.163  20.659  0.00  0.00    +0.000 S 
BRANCH  17  22
ATOM     18  N   UNL     1       1.370   8.776  20.186  0.00  0.00    +0.000 N 
ATOM     19  C   UNL     1       1.284   9.608  19.082  0.00  0.00    +0.000 A 
ATOM     20  N   UNL     1       1.617   8.914  18.006  0.00  0.00    +0.000 NA
ATOM     21  N   UNL     1       1.908   7.631  18.390  0.00  0.00    +0.000 NA
ATOM     22  C   UNL     1       1.766   7.560  19.692  0.00  0.00    +0.000 A 
BRANCH  18  23
ATOM     23  C   UNL     1       1.243   9.170  21.583  0.00  0.00    +0.000 C 
BRANCH  23  25
ATOM     24  C   UNL     1      -0.624   9.761  23.162  0.00  0.00    +0.000 C 
ATOM     25  C   UNL     1      -0.171   9.098  22.089  0.00  0.00    +0.000 C 
ENDBRANCH  23  25
ENDBRANCH  18  23
BRANCH  19  26
ATOM     26  C   UNL     1       0.985  11.078  19.115  0.00  0.00    +0.000 C 
BRANCH  26  27
ATOM     27  C   UNL     1      -0.482  11.424  19.094  0.00  0.00    +0.000 A 
ATOM     28  C   UNL     1      -1.202  12.203  19.982  0.00  0.00    +0.000 A 
ATOM     29  C   UNL     1      -2.603  12.186  19.719  0.00  0.00    +0.000 A 
ATOM     30  C   UNL     1      -2.911  11.416  18.622  0.00  0.00    +0.000 A 
ATOM     31  S   UNL     1      -1.517  10.727  17.912  0.00  0.00    +0.000 S 
ENDBRANCH  26  27
ENDBRANCH  19  26
ENDBRANCH  17  22
ENDBRANCH   1  17
TORSDOF 11
ENDMDL
MODEL 3
REMARK VINA RESULT:      -6.7      5.806      7.863
REMARK  Name = 
REMARK  12 active torsions:
REMARK  status: ('A' for Active; 'I' for Inactive)
REMARK    1  A    between atoms: C_2  and  C_3
REMARK    2  A    between atoms: C_3  and  N_4
REMARK    3  A    between atoms: C_5  and  C_6
REMARK    4  A    between atoms: C_6  and  C_7
REMARK    5  A    between atoms: C_14  and  S_15
REMARK    6  A    between atoms: S_15  and  C_16
REMARK    7  A    between atoms: C_16  and  C_17
REMARK    8  A    between atoms: N_19  and  C_20
REMARK    9  A    between atoms: C_23  and  C_24
REMARK   10  A    between atoms: C_24  and  O_26
REMARK   11  A    between atoms: O_26  and  C_27
REMARK   12  A    between atoms: C_27  and  C_28
REMARK                            x       y       z     vdW  Elec       q    Type
REMARK                         _______ _______ _______ _____ _____    ______ ____
ROOT
ATOM      1  C   UNL     1       8.040   8.603  17.262  0.00  0.00    +0.000 C 
ENDROOT
BRANCH   1   2
ATOM      2  C   UNL     1       7.245   7.385  17.706  0.00  0.00    +0.000 C 
ATOM      3  O   UNL     1       7.675   6.647  18.590  0.00  0.00    +0.000 OA
ATOM      4  N   UNL     1       6.057   7.217  17.013  0.00  0.00    +0.000 N 
ATOM      5  H   UNL     1       5.955   7.757  16.152  0.00  0.00    +0.000 HD
BRANCH   4   6
ATOM      6  C   UNL     1       5.070   6.241  17.260  0.00  0.00    +0.000 A 
ATOM      7  C   UNL     1       3.817   6.539  17.797  0.00  0.00    +0.000 A 
ATOM      8  C   UNL     1       2.888   5.523  18.040  0.00  0.00    +0.000 A 
ATOM      9  C   UNL     1       3.199   4.196  17.739  0.00  0.00    +0.000 A 
ATOM     10  C   UNL     1       4.447   3.893  17.180  0.00  0.00    +0.000 A 
ATOM     11  C   UNL     1       5.373   4.914  16.937  0.00  0.00    +0.000 A 
BRANCH   9  12
ATOM     12  C   UNL     1       2.204   3.153  18.107  0.00  0.00    +0.000 C 
ATOM     13  O   UNL     1       1.038   3.175  17.744  0.00  0.00    +0.000 OA
BRANCH  12  14
ATOM     14  O   UNL     1       2.758   2.261  18.962  0.00  0.00    +0.000 OA
BRANCH  14  15
ATOM     15  C   UNL     1       2.870   2.712  20.319  0.00  0.00    +0.000 C 
ATOM     16  C   UNL     1       1.473   2.788  20.904  0.00  0.00    +0.000 C 
ENDBRANCH  14  15
ENDBRANCH  12  14
ENDBRANCH   9  12
ENDBRANCH   4   6
ENDBRANCH   1   2
BRANCH   1  17
ATOM     17  S   UNL     1       8.812   9.426  18.684  0.00  0.00    +0.000 S 
BRANCH  17  22
ATOM     18  N   UNL     1      10.085  11.812  18.181  0.00  0.00    +0.000 N 
ATOM     19  C   UNL     1       9.761  13.010  17.566  0.00  0.00    +0.000 A 
ATOM     20  N   UNL     1       8.505  12.948  17.159  0.00  0.00    +0.000 NA
ATOM     21  N   UNL     1       7.994  11.726  17.511  0.00  0.00    +0.000 NA
ATOM     22  C   UNL     1       8.946  11.052  18.113  0.00  0.00    +0.000 A 
BRANCH  18  23
ATOM     23  C   UNL     1      11.406  11.395  18.632  0.00  0.00    +0.000 C 
BRANCH  23  25
ATOM     24  C   UNL     1      10.787  12.241  20.918  0.00  0.00    +0.000 C 
ATOM     25  C   UNL     1      11.710  11.823  20.041  0.00  0.00    +0.000 C 
ENDBRANCH  23  25
ENDBRANCH  18  23
BRANCH  19  26
ATOM     26  C   UNL     1      10.713  14.140  17.297  0.00  0.00    +0.000 C 
BRANCH  26  27
ATOM     27  C   UNL     1      10.391  15.422  18.024  0.00  0.00    +0.000 A 
ATOM     28  C   UNL     1      10.001  15.597  19.339  0.00  0.00    +0.000 A 
ATOM     29  C   UNL     1       9.642  16.945  19.632  0.00  0.00    +0.000 A 
ATOM     30  C   UNL     1       9.794  17.767  18.540  0.00  0.00    +0.000 A 
ATOM     31  S   UNL     1      10.373  16.915  17.175  0.00  0.00    +0.000 S 
ENDBRANCH  26  27
ENDBRANCH  19  26
ENDBRANCH  17  22
ENDBRANCH   1  17
TORSDOF 11
ENDMDL
MODEL 4
REMARK VINA RESULT:      -6.6      5.161     11.002
REMARK  Name = 
REMARK  12 active torsions:
REMARK  status: ('A' for Active; 'I' for Inactive)
REMARK    1  A    between atoms: C_2  and  C_3
REMARK    2  A    between atoms: C_3  and  N_4
REMARK    3  A    between atoms: C_5  and  C_6
REMARK    4  A    between atoms: C_6  and  C_7
REMARK    5  A    between atoms: C_14  and  S_15
REMARK    6  A    between atoms: S_15  and  C_16
REMARK    7  A    between atoms: C_16  and  C_17
REMARK    8  A    between atoms: N_19  and  C_20
REMARK    9  A    between atoms: C_23  and  C_24
REMARK   10  A    between atoms: C_24  and  O_26
REMARK   11  A    between atoms: O_26  and  C_27
REMARK   12  A    between atoms: C_27  and  C_28
REMARK                            x       y       z     vdW  Elec       q    Type
REMARK                         _______ _______ _______ _____ _____    ______ ____
ROOT
ATOM      1  C   UNL     1       1.371  11.639  19.420  0.00  0.00    +0.000 C 
ENDROOT
BRANCH   1   2
ATOM      2  C   UNL     1       0.449  12.170  20.506  0.00  0.00    +0.000 C 
ATOM      3  O   UNL     1       0.887  12.889  21.401  0.00  0.00    +0.000 OA
ATOM      4  N   UNL     1      -0.864  11.748  20.370  0.00  0.00    +0.000 N 
ATOM      5  H   UNL     1      -1.025  10.967  19.733  0.00  0.00    +0.000 HD
BRANCH   4   6
ATOM      6  C   UNL     1      -1.961  12.145  21.162  0.00  0.00    +0.000 A 
ATOM      7  C   UNL     1      -3.106  12.745  20.638  0.00  0.00    +0.000 A 
ATOM      8  C   UNL     1      -4.152  13.138  21.479  0.00  0.00    +0.000 A 
ATOM      9  C   UNL     1      -4.068  12.925  22.856  0.00  0.00    +0.000 A 
ATOM     10  C   UNL     1      -2.930  12.305  23.386  0.00  0.00    +0.000 A 
ATOM     11  C   UNL     1      -1.885  11.912  22.540  0.00  0.00    +0.000 A 
BRANCH   9  12
ATOM     12  C   UNL     1      -5.172  13.449  23.704  0.00  0.00    +0.000 C 
ATOM     13  O   UNL     1      -5.243  14.609  24.078  0.00  0.00    +0.000 OA
BRANCH  12  14
ATOM     14  O   UNL     1      -6.002  12.441  24.064  0.00  0.00    +0.000 OA
BRANCH  14  15
ATOM     15  C   UNL     1      -7.400  12.756  24.005  0.00  0.00    +0.000 C 
ATOM     16  C   UNL     1      -7.902  12.396  22.620  0.00  0.00    +0.000 C 
ENDBRANCH  14  15
ENDBRANCH  12  14
ENDBRANCH   9  12
ENDBRANCH   4   6
ENDBRANCH   1   2
BRANCH   1  17
ATOM     17  S   UNL     1       0.520  10.411  18.389  0.00  0.00    +0.000 S 
BRANCH  17  22
ATOM     18  N   UNL     1       1.707   8.182  19.480  0.00  0.00    +0.000 N 
ATOM     19  C   UNL     1       2.672   7.268  19.090  0.00  0.00    +0.000 A 
ATOM     20  N   UNL     1       3.122   7.616  17.895  0.00  0.00    +0.000 NA
ATOM     21  N   UNL     1       2.471   8.756  17.502  0.00  0.00    +0.000 NA
ATOM     22  C   UNL     1       1.624   9.082  18.449  0.00  0.00    +0.000 A 
BRANCH  18  23
ATOM     23  C   UNL     1       0.845   8.089  20.651  0.00  0.00    +0.000 C 
BRANCH  23  25
ATOM     24  C   UNL     1       0.631   9.317  22.836  0.00  0.00    +0.000 C 
ATOM     25  C   UNL     1       1.386   8.833  21.841  0.00  0.00    +0.000 C 
ENDBRANCH  23  25
ENDBRANCH  18  23
BRANCH  19  26
ATOM     26  C   UNL     1       3.054   6.025  19.840  0.00  0.00    +0.000 C 
BRANCH  26  27
ATOM     27  C   UNL     1       2.176   4.830  19.568  0.00  0.00    +0.000 A 
ATOM     28  C   UNL     1       1.177   4.292  20.360  0.00  0.00    +0.000 A 
ATOM     29  C   UNL     1       0.661   3.070  19.839  0.00  0.00    +0.000 A 
ATOM     30  C   UNL     1       1.261   2.722  18.651  0.00  0.00    +0.000 A 
ATOM     31  S   UNL     1       2.432   3.869  18.167  0.00  0.00    +0.000 S 
ENDBRANCH  26  27
ENDBRANCH  19  26
ENDBRANCH  17  22
ENDBRANCH   1  17
TORSDOF 11
ENDMDL
MODEL 5
REMARK VINA RESULT:      -6.6      5.159      8.860
REMARK  Name = 
REMARK  12 active torsions:
REMARK  status: ('A' for Active; 'I' for Inactive)
REMARK    1  A    between atoms: C_2  and  C_3
REMARK    2  A    between atoms: C_3  and  N_4
REMARK    3  A    between atoms: C_5  and  C_6
REMARK    4  A    between atoms: C_6  and  C_7
REMARK    5  A    between atoms: C_14  and  S_15
REMARK    6  A    between atoms: S_15  and  C_16
REMARK    7  A    between atoms: C_16  and  C_17
REMARK    8  A    between atoms: N_19  and  C_20
REMARK    9  A    between atoms: C_23  and  C_24
REMARK   10  A    between atoms: C_24  and  O_26
REMARK   11  A    between atoms: O_26  and  C_27
REMARK   12  A    between atoms: C_27  and  C_28
REMARK                            x       y       z     vdW  Elec       q    Type
REMARK                         _______ _______ _______ _____ _____    ______ ____
ROOT
ATOM      1  C   UNL     1       7.570   6.544  18.329  0.00  0.00    +0.000 C 
ENDROOT
BRANCH   1   2
ATOM      2  C   UNL     1       7.992   7.970  18.017  0.00  0.00    +0.000 C 
ATOM      3  O   UNL     1       7.718   8.479  16.932  0.00  0.00    +0.000 OA
ATOM      4  N   UNL     1       8.695   8.576  19.046  0.00  0.00    +0.000 N 
ATOM      5  H   UNL     1       9.055   7.957  19.773  0.00  0.00    +0.000 HD
BRANCH   4   6
ATOM      6  C   UNL     1       9.135   9.915  19.089  0.00  0.00    +0.000 A 
ATOM      7  C   UNL     1       9.627  10.522  20.245  0.00  0.00    +0.000 A 
ATOM      8  C   UNL     1      10.027  11.862  20.230  0.00  0.00    +0.000 A 
ATOM      9  C   UNL     1       9.947  12.609  19.053  0.00  0.00    +0.000 A 
ATOM     10  C   UNL     1       9.473  12.000  17.885  0.00  0.00    +0.000 A 
ATOM     11  C   UNL     1       9.075  10.657  17.904  0.00  0.00    +0.000 A 
BRANCH   9  12
ATOM     12  C   UNL     1      10.301  14.052  19.126  0.00  0.00    +0.000 C 
ATOM     13  O   UNL     1      10.646  14.610  20.156  0.00  0.00    +0.000 OA
BRANCH  12  14
ATOM     14  O   UNL     1      10.086  14.646  17.928  0.00  0.00    +0.000 OA
BRANCH  14  15
ATOM     15  C   UNL     1       9.347  15.874  17.984  0.00  0.00    +0.000 C 
ATOM     16  C   UNL     1       7.872  15.536  17.897  0.00  0.00    +0.000 C 
ENDBRANCH  14  15
ENDBRANCH  12  14
ENDBRANCH   9  12
ENDBRANCH   4   6
ENDBRANCH   1   2
BRANCH   1  17
ATOM     17  S   UNL     1       6.803   5.763  16.880  0.00  0.00    +0.000 S 
BRANCH  17  22
ATOM     18  N   UNL     1       4.202   4.984  17.324  0.00  0.00    +0.000 N 
ATOM     19  C   UNL     1       3.009   5.612  17.642  0.00  0.00    +0.000 A 
ATOM     20  N   UNL     1       3.225   6.915  17.712  0.00  0.00    +0.000 NA
ATOM     21  N   UNL     1       4.545   7.153  17.431  0.00  0.00    +0.000 NA
ATOM     22  C   UNL     1       5.122   5.995  17.209  0.00  0.00    +0.000 A 
BRANCH  18  23
ATOM     23  C   UNL     1       4.451   3.549  17.303  0.00  0.00    +0.000 C 
BRANCH  23  25
ATOM     24  C   UNL     1       4.460   2.141  19.387  0.00  0.00    +0.000 C 
ATOM     25  C   UNL     1       5.050   3.036  18.583  0.00  0.00    +0.000 C 
ENDBRANCH  23  25
ENDBRANCH  18  23
BRANCH  19  26
ATOM     26  C   UNL     1       1.718   4.921  17.972  0.00  0.00    +0.000 C 
BRANCH  26  27
ATOM     27  C   UNL     1       1.702   4.219  19.307  0.00  0.00    +0.000 A 
ATOM     28  C   UNL     1       1.034   3.064  19.670  0.00  0.00    +0.000 A 
ATOM     29  C   UNL     1       1.139   2.783  21.064  0.00  0.00    +0.000 A 
ATOM     30  C   UNL     1       1.908   3.715  21.721  0.00  0.00    +0.000 A 
ATOM     31  S   UNL     1       2.502   4.916  20.659  0.00  0.00    +0.000 S 
ENDBRANCH  26  27
ENDBRANCH  19  26
ENDBRANCH  17  22
ENDBRANCH   1  17
TORSDOF 11
ENDMDL
MODEL 6
REMARK VINA RESULT:      -6.4      4.340      9.317
REMARK  Name = 
REMARK  12 active torsions:
REMARK  status: ('A' for Active; 'I' for Inactive)
REMARK    1  A    between atoms: C_2  and  C_3
REMARK    2  A    between atoms: C_3  and  N_4
REMARK    3  A    between atoms: C_5  and  C_6
REMARK    4  A    between atoms: C_6  and  C_7
REMARK    5  A    between atoms: C_14  and  S_15
REMARK    6  A    between atoms: S_15  and  C_16
REMARK    7  A    between atoms: C_16  and  C_17
REMARK    8  A    between atoms: N_19  and  C_20
REMARK    9  A    between atoms: C_23  and  C_24
REMARK   10  A    between atoms: C_24  and  O_26
REMARK   11  A    between atoms: O_26  and  C_27
REMARK   12  A    between atoms: C_27  and  C_28
REMARK                            x       y       z     vdW  Elec       q    Type
REMARK                         _______ _______ _______ _____ _____    ______ ____
ROOT
ATOM      1  C   UNL     1      -0.328   9.037  21.119  0.00  0.00    +0.000 C 
ENDROOT
BRANCH   1   2
ATOM      2  C   UNL     1      -0.298  10.554  21.019  0.00  0.00    +0.000 C 
ATOM      3  O   UNL     1      -0.849  11.247  21.872  0.00  0.00    +0.000 OA
ATOM      4  N   UNL     1       0.374  11.021  19.901  0.00  0.00    +0.000 N 
ATOM      5  H   UNL     1       0.560  10.337  19.166  0.00  0.00    +0.000 HD
BRANCH   4   6
ATOM      6  C   UNL     1       0.648  12.368  19.586  0.00  0.00    +0.000 A 
ATOM      7  C   UNL     1      -0.256  13.197  18.922  0.00  0.00    +0.000 A 
ATOM      8  C   UNL     1       0.083  14.520  18.617  0.00  0.00    +0.000 A 
ATOM      9  C   UNL     1       1.330  15.030  18.984  0.00  0.00    +0.000 A 
ATOM     10  C   UNL     1       2.234  14.209  19.668  0.00  0.00    +0.000 A 
ATOM     11  C   UNL     1       1.889  12.886  19.972  0.00  0.00    +0.000 A 
BRANCH   9  12
ATOM     12  C   UNL     1       1.664  16.413  18.549  0.00  0.00    +0.000 C 
ATOM     13  O   UNL     1       2.806  16.806  18.367  0.00  0.00    +0.000 OA
BRANCH  12  14
ATOM     14  O   UNL     1       0.540  17.167  18.489  0.00  0.00    +0.000 OA
BRANCH  14  15
ATOM     15  C   UNL     1       0.718  18.477  17.932  0.00  0.00    +0.000 C 
ATOM     16  C   UNL     1       0.176  18.460  16.516  0.00  0.00    +0.000 C 
ENDBRANCH  14  15
ENDBRANCH  12  14
ENDBRANCH   9  12
ENDBRANCH   4   6
ENDBRANCH   1   2
BRANCH   1  17
ATOM     17  S   UNL     1       1.308   8.384  21.555  0.00  0.00    +0.000 S 
BRANCH  17  22
ATOM     18  N   UNL     1       2.382   6.615  19.742  0.00  0.00    +0.000 N 
ATOM     19  C   UNL     1       2.687   6.627  18.390  0.00  0.00    +0.000 A 
ATOM     20  N   UNL     1       2.391   7.820  17.903  0.00  0.00    +0.000 NA
ATOM     21  N   UNL     1       1.907   8.598  18.922  0.00  0.00    +0.000 NA
ATOM     22  C   UNL     1       1.898   7.869  20.013  0.00  0.00    +0.000 A 
BRANCH  18  23
ATOM     23  C   UNL     1       2.404   5.459  20.628  0.00  0.00    +0.000 C 
BRANCH  23  25
ATOM     24  C   UNL     1       1.090   3.355  20.211  0.00  0.00    +0.000 C 
ATOM     25  C   UNL     1       1.140   4.646  20.567  0.00  0.00    +0.000 C 
ENDBRANCH  23  25
ENDBRANCH  18  23
BRANCH  19  26
ATOM     26  C   UNL     1       3.156   5.447  17.590  0.00  0.00    +0.000 C 
BRANCH  26  27
ATOM     27  C   UNL     1       4.628   5.450  17.265  0.00  0.00    +0.000 A 
ATOM     28  C   UNL     1       5.531   6.496  17.345  0.00  0.00    +0.000 A 
ATOM     29  C   UNL     1       6.810   6.160  16.815  0.00  0.00    +0.000 A 
ATOM     30  C   UNL     1       6.858   4.859  16.371  0.00  0.00    +0.000 A 
ATOM     31  S   UNL     1       5.370   4.050  16.600  0.00  0.00    +0.000 S 
ENDBRANCH  26  27
ENDBRANCH  19  26
ENDBRANCH  17  22
ENDBRANCH   1  17
TORSDOF 11
ENDMDL
MODEL 7
REMARK VINA RESULT:      -6.3      4.437      9.512
REMARK  Name = 
REMARK  12 active torsions:
REMARK  status: ('A' for Active; 'I' for Inactive)
REMARK    1  A    between atoms: C_2  and  C_3
REMARK    2  A    between atoms: C_3  and  N_4
REMARK    3  A    between atoms: C_5  and  C_6
REMARK    4  A    between atoms: C_6  and  C_7
REMARK    5  A    between atoms: C_14  and  S_15
REMARK    6  A    between atoms: S_15  and  C_16
REMARK    7  A    between atoms: C_16  and  C_17
REMARK    8  A    between atoms: N_19  and  C_20
REMARK    9  A    between atoms: C_23  and  C_24
REMARK   10  A    between atoms: C_24  and  O_26
REMARK   11  A    between atoms: O_26  and  C_27
REMARK   12  A    between atoms: C_27  and  C_28
REMARK                            x       y       z     vdW  Elec       q    Type
REMARK                         _______ _______ _______ _____ _____    ______ ____
ROOT
ATOM      1  C   UNL     1      -0.130   9.596  20.493  0.00  0.00    +0.000 C 
ENDROOT
BRANCH   1   2
ATOM      2  C   UNL     1       0.323  11.042  20.624  0.00  0.00    +0.000 C 
ATOM      3  O   UNL     1       0.613  11.508  21.724  0.00  0.00    +0.000 OA
ATOM      4  N   UNL     1       0.349  11.724  19.418  0.00  0.00    +0.000 N 
ATOM      5  H   UNL     1      -0.146  11.287  18.640  0.00  0.00    +0.000 HD
BRANCH   4   6
ATOM      6  C   UNL     1       0.811  13.039  19.206  0.00  0.00    +0.000 A 
ATOM      7  C   UNL     1       0.144  14.170  19.679  0.00  0.00    +0.000 A 
ATOM      8  C   UNL     1       0.640  15.451  19.416  0.00  0.00    +0.000 A 
ATOM      9  C   UNL     1       1.818  15.614  18.684  0.00  0.00    +0.000 A 
ATOM     10  C   UNL     1       2.503  14.483  18.225  0.00  0.00    +0.000 A 
ATOM     11  C   UNL     1       2.003  13.202  18.492  0.00  0.00    +0.000 A 
BRANCH   9  12
ATOM     12  C   UNL     1       2.242  17.002  18.361  0.00  0.00    +0.000 C 
ATOM     13  O   UNL     1       2.754  17.758  19.173  0.00  0.00    +0.000 OA
BRANCH  12  14
ATOM     14  O   UNL     1       1.888  17.315  17.092  0.00  0.00    +0.000 OA
BRANCH  14  15
ATOM     15  C   UNL     1       1.134  18.528  16.953  0.00  0.00    +0.000 C 
ATOM     16  C   UNL     1      -0.339  18.172  17.017  0.00  0.00    +0.000 C 
ENDBRANCH  14  15
ENDBRANCH  12  14
ENDBRANCH   9  12
ENDBRANCH   4   6
ENDBRANCH   1   2
BRANCH   1  17
ATOM     17  S   UNL     1       1.049   8.472  21.296  0.00  0.00    +0.000 S 
BRANCH  17  22
ATOM     18  N   UNL     1       2.054   6.459  19.712  0.00  0.00    +0.000 N 
ATOM     19  C   UNL     1       2.704   6.374  18.492  0.00  0.00    +0.000 A 
ATOM     20  N   UNL     1       2.884   7.599  18.025  0.00  0.00    +0.000 NA
ATOM     21  N   UNL     1       2.371   8.489  18.932  0.00  0.00    +0.000 NA
ATOM     22  C   UNL     1       1.872   7.801  19.931  0.00  0.00    +0.000 A 
BRANCH  18  23
ATOM     23  C   UNL     1       1.523   5.351  20.494  0.00  0.00    +0.000 C 
BRANCH  23  25
ATOM     24  C   UNL     1       2.439   3.127  21.230  0.00  0.00    +0.000 C 
ATOM     25  C   UNL     1       2.594   4.443  21.033  0.00  0.00    +0.000 C 
ENDBRANCH  23  25
ENDBRANCH  18  23
BRANCH  19  26
ATOM     26  C   UNL     1       3.035   5.104  17.764  0.00  0.00    +0.000 C 
BRANCH  26  27
ATOM     27  C   UNL     1       4.481   4.968  17.359  0.00  0.00    +0.000 A 
ATOM     28  C   UNL     1       5.036   5.044  16.094  0.00  0.00    +0.000 A 
ATOM     29  C   UNL     1       6.424   4.720  16.082  0.00  0.00    +0.000 A 
ATOM     30  C   UNL     1       6.896   4.432  17.341  0.00  0.00    +0.000 A 
ATOM     31  S   UNL     1       5.672   4.561  18.528  0.00  0.00    +0.000 S 
ENDBRANCH  26  27
ENDBRANCH  19  26
ENDBRANCH  17  22
ENDBRANCH   1  17
TORSDOF 11
ENDMDL
MODEL 8
REMARK VINA RESULT:      -6.3      3.904      5.803
REMARK  Name = 
REMARK  12 active torsions:
REMARK  status: ('A' for Active; 'I' for Inactive)
REMARK    1  A    between atoms: C_2  and  C_3
REMARK    2  A    between atoms: C_3  and  N_4
REMARK    3  A    between atoms: C_5  and  C_6
REMARK    4  A    between atoms: C_6  and  C_7
REMARK    5  A    between atoms: C_14  and  S_15
REMARK    6  A    between atoms: S_15  and  C_16
REMARK    7  A    between atoms: C_16  and  C_17
REMARK    8  A    between atoms: N_19  and  C_20
REMARK    9  A    between atoms: C_23  and  C_24
REMARK   10  A    between atoms: C_24  and  O_26
REMARK   11  A    between atoms: O_26  and  C_27
REMARK   12  A    between atoms: C_27  and  C_28
REMARK                            x       y       z     vdW  Elec       q    Type
REMARK                         _______ _______ _______ _____ _____    ______ ____
ROOT
ATOM      1  C   UNL     1      -0.239   9.956  22.309  0.00  0.00    +0.000 C 
ENDROOT
BRANCH   1   2
ATOM      2  C   UNL     1       0.973   9.110  21.951  0.00  0.00    +0.000 C 
ATOM      3  O   UNL     1       2.007   9.190  22.611  0.00  0.00    +0.000 OA
ATOM      4  N   UNL     1       0.775   8.303  20.842  0.00  0.00    +0.000 N 
ATOM      5  H   UNL     1      -0.034   8.524  20.260  0.00  0.00    +0.000 HD
BRANCH   4   6
ATOM      6  C   UNL     1       1.674   7.347  20.327  0.00  0.00    +0.000 A 
ATOM      7  C   UNL     1       2.525   7.599  19.251  0.00  0.00    +0.000 A 
ATOM      8  C   UNL     1       3.379   6.601  18.770  0.00  0.00    +0.000 A 
ATOM      9  C   UNL     1       3.398   5.340  19.369  0.00  0.00    +0.000 A 
ATOM     10  C   UNL     1       2.560   5.087  20.462  0.00  0.00    +0.000 A 
ATOM     11  C   UNL     1       1.708   6.090  20.941  0.00  0.00    +0.000 A 
BRANCH   9  12
ATOM     12  C   UNL     1       4.260   4.296  18.753  0.00  0.00    +0.000 C 
ATOM     13  O   UNL     1       5.260   3.845  19.290  0.00  0.00    +0.000 OA
BRANCH  12  14
ATOM     14  O   UNL     1       3.827   4.012  17.502  0.00  0.00    +0.000 OA
BRANCH  14  15
ATOM     15  C   UNL     1       4.861   3.884  16.516  0.00  0.00    +0.000 C 
ATOM     16  C   UNL     1       5.244   5.278  16.058  0.00  0.00    +0.000 C 
ENDBRANCH  14  15
ENDBRANCH  12  14
ENDBRANCH   9  12
ENDBRANCH   4   6
ENDBRANCH   1   2
BRANCH   1  17
ATOM     17  S   UNL     1      -0.192  11.553  21.448  0.00  0.00    +0.000 S 
BRANCH  17  22
ATOM     18  N   UNL     1      -2.128  11.831  19.513  0.00  0.00    +0.000 N 
ATOM     19  C   UNL     1      -2.413  11.248  18.289  0.00  0.00    +0.000 A 
ATOM     20  N   UNL     1      -1.511  10.310  18.051  0.00  0.00    +0.000 NA
ATOM     21  N   UNL     1      -0.644  10.261  19.111  0.00  0.00    +0.000 NA
ATOM     22  C   UNL     1      -1.015  11.177  19.975  0.00  0.00    +0.000 A 
BRANCH  18  23
ATOM     23  C   UNL     1      -2.770  13.007  20.087  0.00  0.00    +0.000 C 
BRANCH  23  25
ATOM     24  C   UNL     1      -3.704  12.683  22.400  0.00  0.00    +0.000 C 
ATOM     25  C   UNL     1      -3.856  12.664  21.069  0.00  0.00    +0.000 C 
ENDBRANCH  23  25
ENDBRANCH  18  23
BRANCH  19  26
ATOM     26  C   UNL     1      -3.488  11.689  17.339  0.00  0.00    +0.000 C 
BRANCH  26  27
ATOM     27  C   UNL     1      -4.892  11.567  17.875  0.00  0.00    +0.000 A 
ATOM     28  C   UNL     1      -5.485  10.493  18.515  0.00  0.00    +0.000 A 
ATOM     29  C   UNL     1      -6.877  10.692  18.748  0.00  0.00    +0.000 A 
ATOM     30  C   UNL     1      -7.302  11.923  18.305  0.00  0.00    +0.000 A 
ATOM     31  S   UNL     1      -6.027  12.832  17.620  0.00  0.00    +0.000 S 
ENDBRANCH  26  27
ENDBRANCH  19  26
ENDBRANCH  17  22
ENDBRANCH   1  17
TORSDOF 11
ENDMDL
MODEL 9
REMARK VINA RESULT:      -6.3      4.915     11.009
REMARK  Name = 
REMARK  12 active torsions:
REMARK  status: ('A' for Active; 'I' for Inactive)
REMARK    1  A    between atoms: C_2  and  C_3
REMARK    2  A    between atoms: C_3  and  N_4
REMARK    3  A    between atoms: C_5  and  C_6
REMARK    4  A    between atoms: C_6  and  C_7
REMARK    5  A    between atoms: C_14  and  S_15
REMARK    6  A    between atoms: S_15  and  C_16
REMARK    7  A    between atoms: C_16  and  C_17
REMARK    8  A    between atoms: N_19  and  C_20
REMARK    9  A    between atoms: C_23  and  C_24
REMARK   10  A    between atoms: C_24  and  O_26
REMARK   11  A    between atoms: O_26  and  C_27
REMARK   12  A    between atoms: C_27  and  C_28
REMARK                            x       y       z     vdW  Elec       q    Type
REMARK                         _______ _______ _______ _____ _____    ______ ____
ROOT
ATOM      1  C   UNL     1       0.600   9.768  19.226  0.00  0.00    +0.000 C 
ENDROOT
BRANCH   1   2
ATOM      2  C   UNL     1      -0.361  10.743  19.887  0.00  0.00    +0.000 C 
ATOM      3  O   UNL     1      -1.431  11.025  19.352  0.00  0.00    +0.000 OA
ATOM      4  N   UNL     1       0.108  11.252  21.088  0.00  0.00    +0.000 N 
ATOM      5  H   UNL     1       1.102  11.120  21.278  0.00  0.00    +0.000 HD
BRANCH   4   6
ATOM      6  C   UNL     1      -0.591  12.100  21.972  0.00  0.00    +0.000 A 
ATOM      7  C   UNL     1      -1.636  11.662  22.786  0.00  0.00    +0.000 A 
ATOM      8  C   UNL     1      -2.307  12.557  23.626  0.00  0.00    +0.000 A 
ATOM      9  C   UNL     1      -1.931  13.901  23.668  0.00  0.00    +0.000 A 
ATOM     10  C   UNL     1      -0.870  14.342  22.868  0.00  0.00    +0.000 A 
ATOM     11  C   UNL     1      -0.201  13.442  22.029  0.00  0.00    +0.000 A 
BRANCH   9  12
ATOM     12  C   UNL     1      -2.743  14.818  24.512  0.00  0.00    +0.000 C 
ATOM     13  O   UNL     1      -2.908  14.662  25.711  0.00  0.00    +0.000 OA
BRANCH  12  14
ATOM     14  O   UNL     1      -3.331  15.764  23.740  0.00  0.00    +0.000 OA
BRANCH  14  15
ATOM     15  C   UNL     1      -4.573  15.370  23.139  0.00  0.00    +0.000 C 
ATOM     16  C   UNL     1      -5.700  15.948  23.973  0.00  0.00    +0.000 C 
ENDBRANCH  14  15
ENDBRANCH  12  14
ENDBRANCH   9  12
ENDBRANCH   4   6
ENDBRANCH   1   2
BRANCH   1  17
ATOM     17  S   UNL     1       1.198   8.538  20.420  0.00  0.00    +0.000 S 
BRANCH  17  22
ATOM     18  N   UNL     1       2.573   6.263  19.710  0.00  0.00    +0.000 N 
ATOM     19  C   UNL     1       3.342   5.852  18.633  0.00  0.00    +0.000 A 
ATOM     20  N   UNL     1       3.426   6.852  17.771  0.00  0.00    +0.000 NA
ATOM     21  N   UNL     1       2.731   7.920  18.275  0.00  0.00    +0.000 NA
ATOM     22  C   UNL     1       2.219   7.558  19.427  0.00  0.00    +0.000 A 
BRANCH  18  23
ATOM     23  C   UNL     1       2.098   5.431  20.807  0.00  0.00    +0.000 C 
BRANCH  23  25
ATOM     24  C   UNL     1       1.097   3.126  20.695  0.00  0.00    +0.000 C 
ATOM     25  C   UNL     1       1.062   4.428  20.381  0.00  0.00    +0.000 C 
ENDBRANCH  23  25
ENDBRANCH  18  23
BRANCH  19  26
ATOM     26  C   UNL     1       3.884   4.469  18.423  0.00  0.00    +0.000 C 
BRANCH  26  27
ATOM     27  C   UNL     1       5.236   4.415  17.757  0.00  0.00    +0.000 A 
ATOM     28  C   UNL     1       6.482   4.662  18.306  0.00  0.00    +0.000 A 
ATOM     29  C   UNL     1       7.522   4.657  17.332  0.00  0.00    +0.000 A 
ATOM     30  C   UNL     1       7.047   4.380  16.071  0.00  0.00    +0.000 A 
ATOM     31  S   UNL     1       5.357   4.120  16.069  0.00  0.00    +0.000 S 
ENDBRANCH  26  27
ENDBRANCH  19  26
ENDBRANCH  17  22
ENDBRANCH   1  17
TORSDOF 11
ENDMDL
