MODEL 1
REMARK VINA RESULT:      -8.8      0.000      0.000
REMARK  Name = 
REMARK  2 active torsions:
REMARK  status: ('A' for Active; 'I' for Inactive)
REMARK    1  A    between atoms: C_10  and  N_11
REMARK    2  A    between atoms: C_12  and  C_14
REMARK                            x       y       z     vdW  Elec       q    Type
REMARK                         _______ _______ _______ _____ _____    ______ ____
ROOT
ATOM      1  N   UNL     1      -2.429  12.014  17.406  0.00  0.00    +0.000 N 
ATOM      2  C   UNL     1      -1.231  11.842  18.008  0.00  0.00    +0.000 C 
ATOM      3  N   UNL     1      -0.814  10.665  18.311  0.00  0.00    +0.000 NA
ATOM      4  C   UNL     1       0.302  10.583  19.265  0.00  0.00    +0.000 C 
ATOM      5  C   UNL     1       1.300  11.712  18.924  0.00  0.00    +0.000 C 
ATOM      6  C   UNL     1       0.618  13.049  19.008  0.00  0.00    +0.000 C 
ATOM      7  O   UNL     1      -0.648  13.026  18.322  0.00  0.00    +0.000 OA
ATOM      8  C   UNL     1      -0.259  10.661  20.694  0.00  0.00    +0.000 A 
ATOM      9  C   UNL     1      -1.217  11.636  21.070  0.00  0.00    +0.000 A 
ATOM     10  C   UNL     1      -1.713  11.821  22.351  0.00  0.00    +0.000 A 
ATOM     11  C   UNL     1      -1.264  10.941  23.327  0.00  0.00    +0.000 A 
ATOM     12  C   UNL     1      -0.373   9.900  22.979  0.00  0.00    +0.000 A 
ATOM     13  C   UNL     1       0.125   9.761  21.671  0.00  0.00    +0.000 A 
ATOM     14  O   UNL     1       0.982   8.716  21.433  0.00  0.00    +0.000 OA
ATOM     15  C   UNL     1       1.405   8.477  20.143  0.00  0.00    +0.000 A 
ATOM     16  N   UNL     1       2.225   7.402  20.034  0.00  0.00    +0.000 NA
ATOM     17  C   UNL     1       2.739   7.122  18.815  0.00  0.00    +0.000 A 
ATOM     18  C   UNL     1       2.456   7.852  17.677  0.00  0.00    +0.000 A 
ATOM     19  C   UNL     1       1.595   8.934  17.803  0.00  0.00    +0.000 A 
ATOM     20  C   UNL     1       1.075   9.288  19.063  0.00  0.00    +0.000 A 
ATOM     21  H   UNL     1      -2.858  11.104  17.274  0.00  0.00    +0.000 HD
ATOM     22  H   UNL     1      -3.026  12.557  18.030  0.00  0.00    +0.000 HD
ENDROOT
BRANCH  10  23
ATOM     23  N   UNL     1      -2.596  12.898  22.652  0.00  0.00    +0.000 N 
ATOM     24  C   UNL     1      -3.741  12.819  23.449  0.00  0.00    +0.000 C 
ATOM     25  O   UNL     1      -4.074  11.865  24.151  0.00  0.00    +0.000 OA
ATOM     26  H   UNL     1      -2.390  13.814  22.264  0.00  0.00    +0.000 HD
BRANCH  24  27
ATOM     27  C   UNL     1      -4.628  14.032  23.470  0.00  0.00    +0.000 A 
ATOM     28  C   UNL     1      -4.257  15.128  24.256  0.00  0.00    +0.000 A 
ATOM     29  C   UNL     1      -5.060  16.268  24.251  0.00  0.00    +0.000 A 
ATOM     30  C   UNL     1      -6.210  16.274  23.478  0.00  0.00    +0.000 A 
ATOM     31 CL   UNL     1      -7.212  17.665  23.417  0.00  0.00    +0.000 Cl
ATOM     32  C   UNL     1      -6.515  15.132  22.736  0.00  0.00    +0.000 A 
ATOM     33  N   UNL     1      -5.760  14.006  22.703  0.00  0.00    +0.000 NA
ENDBRANCH  24  27
ENDBRANCH  10  23
TORSDOF 2
ENDMDL
MODEL 2
REMARK VINA RESULT:      -8.5      1.150      1.230
REMARK  Name = 
REMARK  2 active torsions:
REMARK  status: ('A' for Active; 'I' for Inactive)
REMARK    1  A    between atoms: C_10  and  N_11
REMARK    2  A    between atoms: C_12  and  C_14
REMARK                            x       y       z     vdW  Elec       q    Type
REMARK                         _______ _______ _______ _____ _____    ______ ____
ROOT
ATOM      1  N   UNL     1      -1.846  12.237  17.369  0.00  0.00    +0.000 N 
ATOM      2  C   UNL     1      -0.712  11.933  18.039  0.00  0.00    +0.000 C 
ATOM      3  N   UNL     1      -0.420  10.712  18.310  0.00  0.00    +0.000 NA
ATOM      4  C   UNL     1       0.616  10.490  19.330  0.00  0.00    +0.000 C 
ATOM      5  C   UNL     1       1.728  11.540  19.112  0.00  0.00    +0.000 C 
ATOM      6  C   UNL     1       1.158  12.927  19.218  0.00  0.00    +0.000 C 
ATOM      7  O   UNL     1      -0.054  13.046  18.451  0.00  0.00    +0.000 OA
ATOM      8  C   UNL     1      -0.035  10.553  20.721  0.00  0.00    +0.000 A 
ATOM      9  C   UNL     1      -0.930  11.591  21.082  0.00  0.00    +0.000 A 
ATOM     10  C   UNL     1      -1.497  11.762  22.335  0.00  0.00    +0.000 A 
ATOM     11  C   UNL     1      -1.194  10.803  23.293  0.00  0.00    +0.000 A 
ATOM     12  C   UNL     1      -0.373   9.704  22.952  0.00  0.00    +0.000 A 
ATOM     13  C   UNL     1       0.202   9.580  21.675  0.00  0.00    +0.000 A 
ATOM     14  O   UNL     1       0.982   8.476  21.441  0.00  0.00    +0.000 OA
ATOM     15  C   UNL     1       1.473   8.257  20.172  0.00  0.00    +0.000 A 
ATOM     16  N   UNL     1       2.204   7.121  20.063  0.00  0.00    +0.000 NA
ATOM     17  C   UNL     1       2.777   6.851  18.868  0.00  0.00    +0.000 A 
ATOM     18  C   UNL     1       2.637   7.652  17.752  0.00  0.00    +0.000 A 
ATOM     19  C   UNL     1       1.864   8.800  17.875  0.00  0.00    +0.000 A 
ATOM     20  C   UNL     1       1.288   9.141  19.114  0.00  0.00    +0.000 A 
ATOM     21  H   UNL     1      -2.341  11.375  17.164  0.00  0.00    +0.000 HD
ATOM     22  H   UNL     1      -2.438  12.802  17.979  0.00  0.00    +0.000 HD
ENDROOT
BRANCH  10  23
ATOM     23  N   UNL     1      -2.305  12.898  22.631  0.00  0.00    +0.000 N 
ATOM     24  C   UNL     1      -1.917  13.999  23.400  0.00  0.00    +0.000 C 
ATOM     25  O   UNL     1      -0.779  14.246  23.795  0.00  0.00    +0.000 OA
ATOM     26  H   UNL     1      -3.248  12.931  22.256  0.00  0.00    +0.000 HD
BRANCH  24  27
ATOM     27  C   UNL     1      -2.995  14.989  23.743  0.00  0.00    +0.000 A 
ATOM     28  C   UNL     1      -2.702  16.029  24.630  0.00  0.00    +0.000 A 
ATOM     29  C   UNL     1      -3.690  16.969  24.924  0.00  0.00    +0.000 A 
ATOM     30  C   UNL     1      -4.938  16.834  24.336  0.00  0.00    +0.000 A 
ATOM     31 CL   UNL     1      -6.174  17.983  24.644  0.00  0.00    +0.000 Cl
ATOM     32  C   UNL     1      -5.150  15.757  23.473  0.00  0.00    +0.000 A 
ATOM     33  N   UNL     1      -4.219  14.826  23.152  0.00  0.00    +0.000 NA
ENDBRANCH  24  27
ENDBRANCH  10  23
TORSDOF 2
ENDMDL
MODEL 3
REMARK VINA RESULT:      -8.4      0.770      1.060
REMARK  Name = 
REMARK  2 active torsions:
REMARK  status: ('A' for Active; 'I' for Inactive)
REMARK    1  A    between atoms: C_10  and  N_11
REMARK    2  A    between atoms: C_12  and  C_14
REMARK                            x       y       z     vdW  Elec       q    Type
REMARK                         _______ _______ _______ _____ _____    ______ ____
ROOT
ATOM      1  N   UNL     1      -2.287  12.293  17.532  0.00  0.00    +0.000 N 
ATOM      2  C   UNL     1      -1.107  12.054  18.147  0.00  0.00    +0.000 C 
ATOM      3  N   UNL     1      -0.724  10.851  18.382  0.00  0.00    +0.000 NA
ATOM      4  C   UNL     1       0.368  10.682  19.352  0.00  0.00    +0.000 C 
ATOM      5  C   UNL     1       1.398  11.806  19.107  0.00  0.00    +0.000 C 
ATOM      6  C   UNL     1       0.744  13.151  19.263  0.00  0.00    +0.000 C 
ATOM      7  O   UNL     1      -0.506  13.201  18.551  0.00  0.00    +0.000 OA
ATOM      8  C   UNL     1      -0.223  10.679  20.771  0.00  0.00    +0.000 A 
ATOM      9  C   UNL     1      -1.168  11.650  21.189  0.00  0.00    +0.000 A 
ATOM     10  C   UNL     1      -1.689  11.764  22.468  0.00  0.00    +0.000 A 
ATOM     11  C   UNL     1      -1.281  10.812  23.395  0.00  0.00    +0.000 A 
ATOM     12  C   UNL     1      -0.406   9.775  22.998  0.00  0.00    +0.000 A 
ATOM     13  C   UNL     1       0.119   9.710  21.695  0.00  0.00    +0.000 A 
ATOM     14  O   UNL     1       0.958   8.663  21.407  0.00  0.00    +0.000 OA
ATOM     15  C   UNL     1       1.405   8.498  20.115  0.00  0.00    +0.000 A 
ATOM     16  N   UNL     1       2.203   7.413  19.953  0.00  0.00    +0.000 NA
ATOM     17  C   UNL     1       2.739   7.201  18.730  0.00  0.00    +0.000 A 
ATOM     18  C   UNL     1       2.498   8.009  17.636  0.00  0.00    +0.000 A 
ATOM     19  C   UNL     1       1.658   9.101  17.813  0.00  0.00    +0.000 A 
ATOM     20  C   UNL     1       1.117   9.384  19.082  0.00  0.00    +0.000 A 
ATOM     21  H   UNL     1      -2.733  11.403  17.332  0.00  0.00    +0.000 HD
ATOM     22  H   UNL     1      -2.887  12.808  18.177  0.00  0.00    +0.000 HD
ENDROOT
BRANCH  10  23
ATOM     23  N   UNL     1      -2.555  12.840  22.820  0.00  0.00    +0.000 N 
ATOM     24  C   UNL     1      -3.869  13.010  22.376  0.00  0.00    +0.000 C 
ATOM     25  O   UNL     1      -4.542  12.184  21.761  0.00  0.00    +0.000 OA
ATOM     26  H   UNL     1      -2.205  13.555  23.451  0.00  0.00    +0.000 HD
BRANCH  24  27
ATOM     27  C   UNL     1      -4.528  14.317  22.719  0.00  0.00    +0.000 A 
ATOM     28  C   UNL     1      -5.554  14.793  21.897  0.00  0.00    +0.000 A 
ATOM     29  C   UNL     1      -6.190  15.989  22.232  0.00  0.00    +0.000 A 
ATOM     30  C   UNL     1      -5.776  16.674  23.363  0.00  0.00    +0.000 A 
ATOM     31 CL   UNL     1      -6.549  18.132  23.831  0.00  0.00    +0.000 Cl
ATOM     32  C   UNL     1      -4.734  16.134  24.120  0.00  0.00    +0.000 A 
ATOM     33  N   UNL     1      -4.093  14.973  23.838  0.00  0.00    +0.000 NA
ENDBRANCH  24  27
ENDBRANCH  10  23
TORSDOF 2
ENDMDL
MODEL 4
REMARK VINA RESULT:      -8.3      4.104      8.898
REMARK  Name = 
REMARK  2 active torsions:
REMARK  status: ('A' for Active; 'I' for Inactive)
REMARK    1  A    between atoms: C_10  and  N_11
REMARK    2  A    between atoms: C_12  and  C_14
REMARK                            x       y       z     vdW  Elec       q    Type
REMARK                         _______ _______ _______ _____ _____    ______ ____
ROOT
ATOM      1  N   UNL     1       1.116  13.164  18.097  0.00  0.00    +0.000 N 
ATOM      2  C   UNL     1       0.003  12.662  18.678  0.00  0.00    +0.000 C 
ATOM      3  N   UNL     1      -0.310  12.988  19.880  0.00  0.00    +0.000 NA
ATOM      4  C   UNL     1      -1.308  12.145  20.556  0.00  0.00    +0.000 C 
ATOM      5  C   UNL     1      -2.399  11.783  19.525  0.00  0.00    +0.000 C 
ATOM      6  C   UNL     1      -1.788  11.061  18.356  0.00  0.00    +0.000 C 
ATOM      7  O   UNL     1      -0.607  11.740  17.892  0.00  0.00    +0.000 OA
ATOM      8  C   UNL     1      -0.597  10.924  21.163  0.00  0.00    +0.000 A 
ATOM      9  C   UNL     1       0.340  10.160  20.424  0.00  0.00    +0.000 A 
ATOM     10  C   UNL     1       0.963   9.005  20.869  0.00  0.00    +0.000 A 
ATOM     11  C   UNL     1       0.676   8.602  22.167  0.00  0.00    +0.000 A 
ATOM     12  C   UNL     1      -0.188   9.381  22.970  0.00  0.00    +0.000 A 
ATOM     13  C   UNL     1      -0.819  10.535  22.471  0.00  0.00    +0.000 A 
ATOM     14  O   UNL     1      -1.637  11.225  23.330  0.00  0.00    +0.000 OA
ATOM     15  C   UNL     1      -2.187  12.420  22.918  0.00  0.00    +0.000 A 
ATOM     16  N   UNL     1      -2.952  13.018  23.865  0.00  0.00    +0.000 NA
ATOM     17  C   UNL     1      -3.581  14.168  23.533  0.00  0.00    +0.000 A 
ATOM     18  C   UNL     1      -3.467  14.776  22.299  0.00  0.00    +0.000 A 
ATOM     19  C   UNL     1      -2.660  14.163  21.350  0.00  0.00    +0.000 A 
ATOM     20  C   UNL     1      -2.024  12.940  21.639  0.00  0.00    +0.000 A 
ATOM     21  H   UNL     1       1.578  13.777  18.760  0.00  0.00    +0.000 HD
ATOM     22  H   UNL     1       1.747  12.389  17.891  0.00  0.00    +0.000 HD
ENDROOT
BRANCH  10  23
ATOM     23  N   UNL     1       1.813   8.247  20.012  0.00  0.00    +0.000 N 
ATOM     24  C   UNL     1       2.052   6.873  20.105  0.00  0.00    +0.000 C 
ATOM     25  O   UNL     1       1.446   6.076  20.819  0.00  0.00    +0.000 OA
ATOM     26  H   UNL     1       2.293   8.729  19.259  0.00  0.00    +0.000 HD
BRANCH  24  27
ATOM     27  C   UNL     1       3.133   6.320  19.218  0.00  0.00    +0.000 A 
ATOM     28  C   UNL     1       3.360   6.918  17.975  0.00  0.00    +0.000 A 
ATOM     29  C   UNL     1       4.385   6.428  17.165  0.00  0.00    +0.000 A 
ATOM     30  C   UNL     1       5.138   5.355  17.613  0.00  0.00    +0.000 A 
ATOM     31 CL   UNL     1       6.428   4.739  16.664  0.00  0.00    +0.000 Cl
ATOM     32  C   UNL     1       4.834   4.808  18.861  0.00  0.00    +0.000 A 
ATOM     33  N   UNL     1       3.854   5.255  19.685  0.00  0.00    +0.000 NA
ENDBRANCH  24  27
ENDBRANCH  10  23
TORSDOF 2
ENDMDL
MODEL 5
REMARK VINA RESULT:      -8.1      3.971      8.662
REMARK  Name = 
REMARK  2 active torsions:
REMARK  status: ('A' for Active; 'I' for Inactive)
REMARK    1  A    between atoms: C_10  and  N_11
REMARK    2  A    between atoms: C_12  and  C_14
REMARK                            x       y       z     vdW  Elec       q    Type
REMARK                         _______ _______ _______ _____ _____    ______ ____
ROOT
ATOM      1  N   UNL     1       1.080  12.984  18.031  0.00  0.00    +0.000 N 
ATOM      2  C   UNL     1      -0.067  12.603  18.637  0.00  0.00    +0.000 C 
ATOM      3  N   UNL     1      -0.392  13.083  19.783  0.00  0.00    +0.000 NA
ATOM      4  C   UNL     1      -1.442  12.370  20.526  0.00  0.00    +0.000 C 
ATOM      5  C   UNL     1      -2.525  11.935  19.515  0.00  0.00    +0.000 C 
ATOM      6  C   UNL     1      -1.922  11.054  18.456  0.00  0.00    +0.000 C 
ATOM      7  O   UNL     1      -0.701  11.621  17.948  0.00  0.00    +0.000 OA
ATOM      8  C   UNL     1      -0.802  11.200  21.292  0.00  0.00    +0.000 A 
ATOM      9  C   UNL     1       0.116  10.314  20.674  0.00  0.00    +0.000 A 
ATOM     10  C   UNL     1       0.675   9.194  21.269  0.00  0.00    +0.000 A 
ATOM     11  C   UNL     1       0.340   8.961  22.597  0.00  0.00    +0.000 A 
ATOM     12  C   UNL     1      -0.505   9.867  23.279  0.00  0.00    +0.000 A 
ATOM     13  C   UNL     1      -1.071  10.979  22.630  0.00  0.00    +0.000 A 
ATOM     14  O   UNL     1      -1.875  11.801  23.378  0.00  0.00    +0.000 OA
ATOM     15  C   UNL     1      -2.360  12.961  22.814  0.00  0.00    +0.000 A 
ATOM     16  N   UNL     1      -3.117  13.699  23.662  0.00  0.00    +0.000 NA
ATOM     17  C   UNL     1      -3.686  14.828  23.181  0.00  0.00    +0.000 A 
ATOM     18  C   UNL     1      -3.516  15.280  21.887  0.00  0.00    +0.000 A 
ATOM     19  C   UNL     1      -2.717  14.524  21.039  0.00  0.00    +0.000 A 
ATOM     20  C   UNL     1      -2.144  13.318  21.487  0.00  0.00    +0.000 A 
ATOM     21  H   UNL     1       1.556  13.651  18.630  0.00  0.00    +0.000 HD
ATOM     22  H   UNL     1       1.680  12.164  17.935  0.00  0.00    +0.000 HD
ENDROOT
BRANCH  10  23
ATOM     23  N   UNL     1       1.507   8.304  20.531  0.00  0.00    +0.000 N 
ATOM     24  C   UNL     1       1.835   8.422  19.177  0.00  0.00    +0.000 C 
ATOM     25  O   UNL     1       1.605   9.392  18.456  0.00  0.00    +0.000 OA
ATOM     26  H   UNL     1       1.911   7.507  21.015  0.00  0.00    +0.000 HD
BRANCH  24  27
ATOM     27  C   UNL     1       2.568   7.264  18.561  0.00  0.00    +0.000 A 
ATOM     28  C   UNL     1       3.579   7.521  17.631  0.00  0.00    +0.000 A 
ATOM     29  C   UNL     1       4.284   6.449  17.083  0.00  0.00    +0.000 A 
ATOM     30  C   UNL     1       3.950   5.160  17.469  0.00  0.00    +0.000 A 
ATOM     31 CL   UNL     1       4.810   3.813  16.845  0.00  0.00    +0.000 Cl
ATOM     32  C   UNL     1       2.917   4.993  18.392  0.00  0.00    +0.000 A 
ATOM     33  N   UNL     1       2.211   6.004  18.957  0.00  0.00    +0.000 NA
ENDBRANCH  24  27
ENDBRANCH  10  23
TORSDOF 2
ENDMDL
MODEL 6
REMARK VINA RESULT:      -8.0      4.219      8.822
REMARK  Name = 
REMARK  2 active torsions:
REMARK  status: ('A' for Active; 'I' for Inactive)
REMARK    1  A    between atoms: C_10  and  N_11
REMARK    2  A    between atoms: C_12  and  C_14
REMARK                            x       y       z     vdW  Elec       q    Type
REMARK                         _______ _______ _______ _____ _____    ______ ____
ROOT
ATOM      1  N   UNL     1       2.880  13.427  19.388  0.00  0.00    +0.000 N 
ATOM      2  C   UNL     1       1.563  13.189  19.576  0.00  0.00    +0.000 C 
ATOM      3  N   UNL     1       1.014  13.412  20.716  0.00  0.00    +0.000 NA
ATOM      4  C   UNL     1      -0.305  12.804  20.946  0.00  0.00    +0.000 C 
ATOM      5  C   UNL     1      -1.118  12.929  19.639  0.00  0.00    +0.000 C 
ATOM      6  C   UNL     1      -0.398  12.240  18.513  0.00  0.00    +0.000 C 
ATOM      7  O   UNL     1       0.994  12.609  18.490  0.00  0.00    +0.000 OA
ATOM      8  C   UNL     1      -0.108  11.355  21.420  0.00  0.00    +0.000 A 
ATOM      9  C   UNL     1       0.785  10.469  20.767  0.00  0.00    +0.000 A 
ATOM     10  C   UNL     1       0.962   9.131  21.082  0.00  0.00    +0.000 A 
ATOM     11  C   UNL     1       0.234   8.643  22.160  0.00  0.00    +0.000 A 
ATOM     12  C   UNL     1      -0.605   9.512  22.893  0.00  0.00    +0.000 A 
ATOM     13  C   UNL     1      -0.774  10.859  22.525  0.00  0.00    +0.000 A 
ATOM     14  O   UNL     1      -1.608  11.623  23.302  0.00  0.00    +0.000 OA
ATOM     15  C   UNL     1      -1.716  12.973  23.045  0.00  0.00    +0.000 A 
ATOM     16  N   UNL     1      -2.547  13.621  23.898  0.00  0.00    +0.000 NA
ATOM     17  C   UNL     1      -2.763  14.940  23.689  0.00  0.00    +0.000 A 
ATOM     18  C   UNL     1      -2.165  15.663  22.675  0.00  0.00    +0.000 A 
ATOM     19  C   UNL     1      -1.297  14.988  21.827  0.00  0.00    +0.000 A 
ATOM     20  C   UNL     1      -1.081  13.605  21.981  0.00  0.00    +0.000 A 
ATOM     21  H   UNL     1       3.273  13.776  20.256  0.00  0.00    +0.000 HD
ATOM     22  H   UNL     1       3.338  12.542  19.169  0.00  0.00    +0.000 HD
ENDROOT
BRANCH  10  23
ATOM     23  N   UNL     1       1.808   8.293  20.299  0.00  0.00    +0.000 N 
ATOM     24  C   UNL     1       1.879   8.279  18.903  0.00  0.00    +0.000 C 
ATOM     25  O   UNL     1       1.361   9.092  18.140  0.00  0.00    +0.000 OA
ATOM     26  H   UNL     1       2.424   7.645  20.780  0.00  0.00    +0.000 HD
BRANCH  24  27
ATOM     27  C   UNL     1       2.698   7.179  18.286  0.00  0.00    +0.000 A 
ATOM     28  C   UNL     1       2.296   5.853  18.468  0.00  0.00    +0.000 A 
ATOM     29  C   UNL     1       3.035   4.833  17.868  0.00  0.00    +0.000 A 
ATOM     30  C   UNL     1       4.153   5.166  17.120  0.00  0.00    +0.000 A 
ATOM     31 CL   UNL     1       5.074   3.948  16.338  0.00  0.00    +0.000 Cl
ATOM     32  C   UNL     1       4.492   6.516  17.002  0.00  0.00    +0.000 A 
ATOM     33  N   UNL     1       3.800   7.539  17.559  0.00  0.00    +0.000 NA
ENDBRANCH  24  27
ENDBRANCH  10  23
TORSDOF 2
ENDMDL
MODEL 7
REMARK VINA RESULT:      -8.0      4.381      8.734
REMARK  Name = 
REMARK  2 active torsions:
REMARK  status: ('A' for Active; 'I' for Inactive)
REMARK    1  A    between atoms: C_10  and  N_11
REMARK    2  A    between atoms: C_12  and  C_14
REMARK                            x       y       z     vdW  Elec       q    Type
REMARK                         _______ _______ _______ _____ _____    ______ ____
ROOT
ATOM      1  N   UNL     1       2.239  11.459  17.786  0.00  0.00    +0.000 N 
ATOM      2  C   UNL     1       1.008  11.506  18.342  0.00  0.00    +0.000 C 
ATOM      3  N   UNL     1       0.774  12.269  19.348  0.00  0.00    +0.000 NA
ATOM      4  C   UNL     1      -0.458  12.005  20.107  0.00  0.00    +0.000 C 
ATOM      5  C   UNL     1      -1.574  11.665  19.096  0.00  0.00    +0.000 C 
ATOM      6  C   UNL     1      -1.181  10.469  18.274  0.00  0.00    +0.000 C 
ATOM      7  O   UNL     1       0.167  10.599  17.786  0.00  0.00    +0.000 OA
ATOM      8  C   UNL     1      -0.182  10.888  21.127  0.00  0.00    +0.000 A 
ATOM      9  C   UNL     1       0.494   9.695  20.766  0.00  0.00    +0.000 A 
ATOM     10  C   UNL     1       0.712   8.612  21.603  0.00  0.00    +0.000 A 
ATOM     11  C   UNL     1       0.272   8.738  22.914  0.00  0.00    +0.000 A 
ATOM     12  C   UNL     1      -0.331   9.943  23.341  0.00  0.00    +0.000 A 
ATOM     13  C   UNL     1      -0.556  11.010  22.453  0.00  0.00    +0.000 A 
ATOM     14  O   UNL     1      -1.146  12.139  22.963  0.00  0.00    +0.000 OA
ATOM     15  C   UNL     1      -1.282  13.248  22.157  0.00  0.00    +0.000 A 
ATOM     16  N   UNL     1      -1.853  14.306  22.784  0.00  0.00    +0.000 NA
ATOM     17  C   UNL     1      -2.083  15.423  22.057  0.00  0.00    +0.000 A 
ATOM     18  C   UNL     1      -1.746  15.552  20.724  0.00  0.00    +0.000 A 
ATOM     19  C   UNL     1      -1.139  14.467  20.104  0.00  0.00    +0.000 A 
ATOM     20  C   UNL     1      -0.925  13.270  20.813  0.00  0.00    +0.000 A 
ATOM     21  H   UNL     1       2.848  12.091  18.296  0.00  0.00    +0.000 HD
ATOM     22  H   UNL     1       2.604  10.513  17.895  0.00  0.00    +0.000 HD
ENDROOT
BRANCH  10  23
ATOM     23  N   UNL     1       1.310   7.413  21.117  0.00  0.00    +0.000 N 
ATOM     24  C   UNL     1       1.947   7.258  19.883  0.00  0.00    +0.000 C 
ATOM     25  O   UNL     1       2.245   8.159  19.100  0.00  0.00    +0.000 OA
ATOM     26  H   UNL     1       1.285   6.587  21.708  0.00  0.00    +0.000 HD
BRANCH  24  27
ATOM     27  C   UNL     1       2.332   5.856  19.499  0.00  0.00    +0.000 A 
ATOM     28  C   UNL     1       2.375   5.514  18.144  0.00  0.00    +0.000 A 
ATOM     29  C   UNL     1       2.765   4.224  17.783  0.00  0.00    +0.000 A 
ATOM     30  C   UNL     1       3.085   3.317  18.781  0.00  0.00    +0.000 A 
ATOM     31 CL   UNL     1       3.599   1.729  18.385  0.00  0.00    +0.000 Cl
ATOM     32  C   UNL     1       3.000   3.738  20.110  0.00  0.00    +0.000 A 
ATOM     33  N   UNL     1       2.635   4.982  20.506  0.00  0.00    +0.000 NA
ENDBRANCH  24  27
ENDBRANCH  10  23
TORSDOF 2
ENDMDL
MODEL 8
REMARK VINA RESULT:      -7.8      4.352      8.984
REMARK  Name = 
REMARK  2 active torsions:
REMARK  status: ('A' for Active; 'I' for Inactive)
REMARK    1  A    between atoms: C_10  and  N_11
REMARK    2  A    between atoms: C_12  and  C_14
REMARK                            x       y       z     vdW  Elec       q    Type
REMARK                         _______ _______ _______ _____ _____    ______ ____
ROOT
ATOM      1  N   UNL     1       2.618  13.415  18.726  0.00  0.00    +0.000 N 
ATOM      2  C   UNL     1       1.355  13.135  19.117  0.00  0.00    +0.000 C 
ATOM      3  N   UNL     1       1.000  13.290  20.342  0.00  0.00    +0.000 NA
ATOM      4  C   UNL     1      -0.252  12.638  20.756  0.00  0.00    +0.000 C 
ATOM      5  C   UNL     1      -1.274  12.802  19.609  0.00  0.00    +0.000 C 
ATOM      6  C   UNL     1      -0.738  12.186  18.347  0.00  0.00    +0.000 C 
ATOM      7  O   UNL     1       0.623  12.591  18.112  0.00  0.00    +0.000 OA
ATOM      8  C   UNL     1       0.047  11.174  21.117  0.00  0.00    +0.000 A 
ATOM      9  C   UNL     1       0.835  10.343  20.282  0.00  0.00    +0.000 A 
ATOM     10  C   UNL     1       1.085   8.996  20.495  0.00  0.00    +0.000 A 
ATOM     11  C   UNL     1       0.556   8.439  21.653  0.00  0.00    +0.000 A 
ATOM     12  C   UNL     1      -0.165   9.252  22.558  0.00  0.00    +0.000 A 
ATOM     13  C   UNL     1      -0.417  10.610  22.291  0.00  0.00    +0.000 A 
ATOM     14  O   UNL     1      -1.124  11.314  23.233  0.00  0.00    +0.000 OA
ATOM     15  C   UNL     1      -1.297  12.671  23.066  0.00  0.00    +0.000 A 
ATOM     16  N   UNL     1      -1.986  13.257  24.076  0.00  0.00    +0.000 NA
ATOM     17  C   UNL     1      -2.257  14.578  23.972  0.00  0.00    +0.000 A 
ATOM     18  C   UNL     1      -1.849  15.363  22.911  0.00  0.00    +0.000 A 
ATOM     19  C   UNL     1      -1.123  14.752  21.898  0.00  0.00    +0.000 A 
ATOM     20  C   UNL     1      -0.859  13.369  21.945  0.00  0.00    +0.000 A 
ATOM     21  H   UNL     1       3.143  13.734  19.534  0.00  0.00    +0.000 HD
ATOM     22  H   UNL     1       3.049  12.554  18.391  0.00  0.00    +0.000 HD
ENDROOT
BRANCH  10  23
ATOM     23  N   UNL     1       1.804   8.219  19.542  0.00  0.00    +0.000 N 
ATOM     24  C   UNL     1       2.192   6.885  19.700  0.00  0.00    +0.000 C 
ATOM     25  O   UNL     1       1.833   6.125  20.597  0.00  0.00    +0.000 OA
ATOM     26  H   UNL     1       2.063   8.653  18.661  0.00  0.00    +0.000 HD
BRANCH  24  27
ATOM     27  C   UNL     1       3.110   6.326  18.648  0.00  0.00    +0.000 A 
ATOM     28  C   UNL     1       3.259   4.940  18.549  0.00  0.00    +0.000 A 
ATOM     29  C   UNL     1       4.083   4.416  17.552  0.00  0.00    +0.000 A 
ATOM     30  C   UNL     1       4.739   5.289  16.700  0.00  0.00    +0.000 A 
ATOM     31 CL   UNL     1       5.739   4.691  15.440  0.00  0.00    +0.000 Cl
ATOM     32  C   UNL     1       4.546   6.660  16.879  0.00  0.00    +0.000 A 
ATOM     33  N   UNL     1       3.750   7.213  17.826  0.00  0.00    +0.000 NA
ENDBRANCH  24  27
ENDBRANCH  10  23
TORSDOF 2
ENDMDL
MODEL 9
REMARK VINA RESULT:      -7.5      1.124      1.163
REMARK  Name = 
REMARK  2 active torsions:
REMARK  status: ('A' for Active; 'I' for Inactive)
REMARK    1  A    between atoms: C_10  and  N_11
REMARK    2  A    between atoms: C_12  and  C_14
REMARK                            x       y       z     vdW  Elec       q    Type
REMARK                         _______ _______ _______ _____ _____    ______ ____
ROOT
ATOM      1  N   UNL     1      -2.741  11.382  16.963  0.00  0.00    +0.000 N 
ATOM      2  C   UNL     1      -1.555  11.400  17.611  0.00  0.00    +0.000 C 
ATOM      3  N   UNL     1      -1.094  10.334  18.160  0.00  0.00    +0.000 NA
ATOM      4  C   UNL     1      -0.004  10.508  19.132  0.00  0.00    +0.000 C 
ATOM      5  C   UNL     1       0.950  11.592  18.584  0.00  0.00    +0.000 C 
ATOM      6  C   UNL     1       0.205  12.881  18.376  0.00  0.00    +0.000 C 
ATOM      7  O   UNL     1      -1.037  12.651  17.685  0.00  0.00    +0.000 OA
ATOM      8  C   UNL     1      -0.611  10.849  20.502  0.00  0.00    +0.000 A 
ATOM      9  C   UNL     1      -1.624  11.830  20.649  0.00  0.00    +0.000 A 
ATOM     10  C   UNL     1      -2.166  12.249  21.854  0.00  0.00    +0.000 A 
ATOM     11  C   UNL     1      -1.706  11.613  23.000  0.00  0.00    +0.000 A 
ATOM     12  C   UNL     1      -0.758  10.570  22.893  0.00  0.00    +0.000 A 
ATOM     13  C   UNL     1      -0.215  10.191  21.652  0.00  0.00    +0.000 A 
ATOM     14  O   UNL     1       0.697   9.165  21.652  0.00  0.00    +0.000 OA
ATOM     15  C   UNL     1       1.169   8.687  20.450  0.00  0.00    +0.000 A 
ATOM     16  N   UNL     1       2.041   7.657  20.582  0.00  0.00    +0.000 NA
ATOM     17  C   UNL     1       2.604   7.159  19.458  0.00  0.00    +0.000 A 
ATOM     18  C   UNL     1       2.321   7.622  18.188  0.00  0.00    +0.000 A 
ATOM     19  C   UNL     1       1.408   8.662  18.069  0.00  0.00    +0.000 A 
ATOM     20  C   UNL     1       0.834   9.240  19.218  0.00  0.00    +0.000 A 
ATOM     21  H   UNL     1      -3.123  10.443  17.014  0.00  0.00    +0.000 HD
ATOM     22  H   UNL     1      -3.381  12.010  17.449  0.00  0.00    +0.000 HD
ENDROOT
BRANCH  10  23
ATOM     23  N   UNL     1      -3.107  13.318  21.907  0.00  0.00    +0.000 N 
ATOM     24  C   UNL     1      -4.423  13.227  22.368  0.00  0.00    +0.000 C 
ATOM     25  O   UNL     1      -4.923  12.269  22.955  0.00  0.00    +0.000 OA
ATOM     26  H   UNL     1      -2.812  14.237  21.589  0.00  0.00    +0.000 HD
BRANCH  24  27
ATOM     27  C   UNL     1      -5.294  14.433  22.152  0.00  0.00    +0.000 A 
ATOM     28  C   UNL     1      -4.701  15.630  21.738  0.00  0.00    +0.000 A 
ATOM     29  C   UNL     1      -5.511  16.741  21.504  0.00  0.00    +0.000 A 
ATOM     30  C   UNL     1      -6.878  16.628  21.702  0.00  0.00    +0.000 A 
ATOM     31 CL   UNL     1      -7.916  17.959  21.397  0.00  0.00    +0.000 Cl
ATOM     32  C   UNL     1      -7.385  15.400  22.131  0.00  0.00    +0.000 A 
ATOM     33  N   UNL     1      -6.638  14.292  22.362  0.00  0.00    +0.000 NA
ENDBRANCH  24  27
ENDBRANCH  10  23
TORSDOF 2
ENDMDL
