MODEL 1
REMARK VINA RESULT:      -7.8      0.000      0.000
REMARK  Name = 
REMARK  4 active torsions:
REMARK  status: ('A' for Active; 'I' for Inactive)
REMARK    1  A    between atoms: C_2  and  O_3
REMARK    2  A    between atoms: C_2  and  C_4
REMARK    3  A    between atoms: C_4  and  C_5
REMARK    4  A    between atoms: C_10  and  C_11
REMARK                            x       y       z     vdW  Elec       q    Type
REMARK                         _______ _______ _______ _____ _____    ______ ____
ROOT
ATOM      1  C   UNL     1       2.863   5.203  19.825  0.00  0.00    +0.000 A 
ATOM      2  C   UNL     1       2.815   6.523  19.355  0.00  0.00    +0.000 A 
ATOM      3  C   UNL     1       3.431   6.898  18.152  0.00  0.00    +0.000 A 
ATOM      4  C   UNL     1       4.052   5.894  17.401  0.00  0.00    +0.000 A 
ATOM      5  N   UNL     1       4.732   5.962  16.210  0.00  0.00    +0.000 N 
ATOM      6  C   UNL     1       5.139   4.712  15.793  0.00  0.00    +0.000 A 
ATOM      7  C   UNL     1       4.687   3.820  16.755  0.00  0.00    +0.000 A 
ATOM      8  C   UNL     1       4.046   4.559  17.786  0.00  0.00    +0.000 A 
ATOM      9  C   UNL     1       3.448   4.209  19.011  0.00  0.00    +0.000 A 
ATOM     10  H   UNL     1       4.897   6.814  15.695  0.00  0.00    +0.000 HD
ENDROOT
BRANCH   6  11
ATOM     11  C   UNL     1       5.861   4.487  14.542  0.00  0.00    +0.000 A 
ATOM     12  C   UNL     1       7.089   5.120  14.298  0.00  0.00    +0.000 A 
ATOM     13  C   UNL     1       7.759   4.934  13.086  0.00  0.00    +0.000 A 
ATOM     14  C   UNL     1       7.212   4.110  12.107  0.00  0.00    +0.000 A 
ATOM     15  C   UNL     1       6.005   3.456  12.344  0.00  0.00    +0.000 A 
ATOM     16  C   UNL     1       5.335   3.641  13.557  0.00  0.00    +0.000 A 
ENDBRANCH   6  11
BRANCH   1  17
ATOM     17  C   UNL     1       2.239   4.767  21.134  0.00  0.00    +0.000 C 
BRANCH  17  19
ATOM     18  O   UNL     1       2.630   2.554  21.993  0.00  0.00    +0.000 OA
ATOM     19  C   UNL     1       1.926   3.300  21.323  0.00  0.00    +0.000 C 
BRANCH  19  20
ATOM     20  O   UNL     1       0.758   2.876  20.792  0.00  0.00    +0.000 OA
ATOM     21  H   UNL     1       0.615   1.912  20.867  0.00  0.00    +0.000 HD
ENDBRANCH  19  20
ENDBRANCH  17  19
ENDBRANCH   1  17
TORSDOF 4
ENDMDL
MODEL 2
REMARK VINA RESULT:      -7.8      0.291      1.144
REMARK  Name = 
REMARK  4 active torsions:
REMARK  status: ('A' for Active; 'I' for Inactive)
REMARK    1  A    between atoms: C_2  and  O_3
REMARK    2  A    between atoms: C_2  and  C_4
REMARK    3  A    between atoms: C_4  and  C_5
REMARK    4  A    between atoms: C_10  and  C_11
REMARK                            x       y       z     vdW  Elec       q    Type
REMARK                         _______ _______ _______ _____ _____    ______ ____
ROOT
ATOM      1  C   UNL     1       2.897   5.011  19.875  0.00  0.00    +0.000 A 
ATOM      2  C   UNL     1       2.829   6.345  19.447  0.00  0.00    +0.000 A 
ATOM      3  C   UNL     1       3.424   6.762  18.248  0.00  0.00    +0.000 A 
ATOM      4  C   UNL     1       4.045   5.789  17.458  0.00  0.00    +0.000 A 
ATOM      5  N   UNL     1       4.707   5.901  16.260  0.00  0.00    +0.000 N 
ATOM      6  C   UNL     1       5.121   4.668  15.799  0.00  0.00    +0.000 A 
ATOM      7  C   UNL     1       4.692   3.742  16.739  0.00  0.00    +0.000 A 
ATOM      8  C   UNL     1       4.058   4.442  17.801  0.00  0.00    +0.000 A 
ATOM      9  C   UNL     1       3.480   4.049  19.024  0.00  0.00    +0.000 A 
ATOM     10  H   UNL     1       4.856   6.770  15.770  0.00  0.00    +0.000 HD
ENDROOT
BRANCH   6  11
ATOM     11  C   UNL     1       5.828   4.489  14.532  0.00  0.00    +0.000 A 
ATOM     12  C   UNL     1       5.307   3.657  13.530  0.00  0.00    +0.000 A 
ATOM     13  C   UNL     1       6.004   3.456  12.336  0.00  0.00    +0.000 A 
ATOM     14  C   UNL     1       7.227   4.088  12.128  0.00  0.00    +0.000 A 
ATOM     15  C   UNL     1       7.746   4.936  13.104  0.00  0.00    +0.000 A 
ATOM     16  C   UNL     1       7.048   5.138  14.299  0.00  0.00    +0.000 A 
ENDBRANCH   6  11
BRANCH   1  17
ATOM     17  C   UNL     1       2.296   4.528  21.179  0.00  0.00    +0.000 C 
BRANCH  17  19
ATOM     18  O   UNL     1       1.777   2.306  21.941  0.00  0.00    +0.000 OA
ATOM     19  C   UNL     1       1.526   3.227  21.173  0.00  0.00    +0.000 C 
BRANCH  19  20
ATOM     20  O   UNL     1       0.468   3.176  20.334  0.00  0.00    +0.000 OA
ATOM     21  H   UNL     1      -0.352   2.843  20.750  0.00  0.00    +0.000 HD
ENDBRANCH  19  20
ENDBRANCH  17  19
ENDBRANCH   1  17
TORSDOF 4
ENDMDL
MODEL 3
REMARK VINA RESULT:      -7.8      3.835      7.720
REMARK  Name = 
REMARK  4 active torsions:
REMARK  status: ('A' for Active; 'I' for Inactive)
REMARK    1  A    between atoms: C_2  and  O_3
REMARK    2  A    between atoms: C_2  and  C_4
REMARK    3  A    between atoms: C_4  and  C_5
REMARK    4  A    between atoms: C_10  and  C_11
REMARK                            x       y       z     vdW  Elec       q    Type
REMARK                         _______ _______ _______ _____ _____    ______ ____
ROOT
ATOM      1  C   UNL     1       4.832   4.619  17.332  0.00  0.00    +0.000 A 
ATOM      2  C   UNL     1       4.523   3.834  18.451  0.00  0.00    +0.000 A 
ATOM      3  C   UNL     1       3.742   4.332  19.504  0.00  0.00    +0.000 A 
ATOM      4  C   UNL     1       3.232   5.628  19.378  0.00  0.00    +0.000 A 
ATOM      5  N   UNL     1       2.459   6.372  20.236  0.00  0.00    +0.000 N 
ATOM      6  C   UNL     1       2.133   7.593  19.686  0.00  0.00    +0.000 A 
ATOM      7  C   UNL     1       2.715   7.616  18.427  0.00  0.00    +0.000 A 
ATOM      8  C   UNL     1       3.441   6.408  18.246  0.00  0.00    +0.000 A 
ATOM      9  C   UNL     1       4.252   5.900  17.214  0.00  0.00    +0.000 A 
ATOM     10  H   UNL     1       2.153   6.057  21.145  0.00  0.00    +0.000 HD
ENDROOT
BRANCH   6  11
ATOM     11  C   UNL     1       1.295   8.576  20.372  0.00  0.00    +0.000 A 
ATOM     12  C   UNL     1       0.694   9.627  19.663  0.00  0.00    +0.000 A 
ATOM     13  C   UNL     1      -0.073  10.587  20.326  0.00  0.00    +0.000 A 
ATOM     14  C   UNL     1      -0.253  10.506  21.705  0.00  0.00    +0.000 A 
ATOM     15  C   UNL     1       0.319   9.455  22.419  0.00  0.00    +0.000 A 
ATOM     16  C   UNL     1       1.086   8.493  21.755  0.00  0.00    +0.000 A 
ENDBRANCH   6  11
BRANCH   1  17
ATOM     17  C   UNL     1       5.699   4.129  16.190  0.00  0.00    +0.000 C 
BRANCH  17  19
ATOM     18  O   UNL     1       7.487   5.466  15.296  0.00  0.00    +0.000 OA
ATOM     19  C   UNL     1       7.124   4.626  16.110  0.00  0.00    +0.000 C 
BRANCH  19  20
ATOM     20  O   UNL     1       7.961   4.164  17.065  0.00  0.00    +0.000 OA
ATOM     21  H   UNL     1       8.889   4.448  16.950  0.00  0.00    +0.000 HD
ENDBRANCH  19  20
ENDBRANCH  17  19
ENDBRANCH   1  17
TORSDOF 4
ENDMDL
MODEL 4
REMARK VINA RESULT:      -7.7      3.825      7.694
REMARK  Name = 
REMARK  4 active torsions:
REMARK  status: ('A' for Active; 'I' for Inactive)
REMARK    1  A    between atoms: C_2  and  O_3
REMARK    2  A    between atoms: C_2  and  C_4
REMARK    3  A    between atoms: C_4  and  C_5
REMARK    4  A    between atoms: C_10  and  C_11
REMARK                            x       y       z     vdW  Elec       q    Type
REMARK                         _______ _______ _______ _____ _____    ______ ____
ROOT
ATOM      1  C   UNL     1       4.858   4.629  17.210  0.00  0.00    +0.000 A 
ATOM      2  C   UNL     1       4.608   3.855  18.352  0.00  0.00    +0.000 A 
ATOM      3  C   UNL     1       3.855   4.353  19.426  0.00  0.00    +0.000 A 
ATOM      4  C   UNL     1       3.310   5.634  19.297  0.00  0.00    +0.000 A 
ATOM      5  N   UNL     1       2.551   6.374  20.172  0.00  0.00    +0.000 N 
ATOM      6  C   UNL     1       2.175   7.578  19.615  0.00  0.00    +0.000 A 
ATOM      7  C   UNL     1       2.710   7.593  18.335  0.00  0.00    +0.000 A 
ATOM      8  C   UNL     1       3.458   6.400  18.147  0.00  0.00    +0.000 A 
ATOM      9  C   UNL     1       4.242   5.893  17.093  0.00  0.00    +0.000 A 
ATOM     10  H   UNL     1       2.285   6.067  21.096  0.00  0.00    +0.000 HD
ENDROOT
BRANCH   6  11
ATOM     11  C   UNL     1       1.340   8.552  20.315  0.00  0.00    +0.000 A 
ATOM     12  C   UNL     1       1.211   8.515  21.712  0.00  0.00    +0.000 A 
ATOM     13  C   UNL     1       0.381   9.422  22.376  0.00  0.00    +0.000 A 
ATOM     14  C   UNL     1      -0.326  10.379  21.652  0.00  0.00    +0.000 A 
ATOM     15  C   UNL     1      -0.189  10.443  20.267  0.00  0.00    +0.000 A 
ATOM     16  C   UNL     1       0.642   9.536  19.603  0.00  0.00    +0.000 A 
ENDBRANCH   6  11
BRANCH   1  17
ATOM     17  C   UNL     1       5.693   4.140  16.045  0.00  0.00    +0.000 C 
BRANCH  17  19
ATOM     18  O   UNL     1       7.534   5.367  15.100  0.00  0.00    +0.000 OA
ATOM     19  C   UNL     1       7.133   4.591  15.959  0.00  0.00    +0.000 C 
BRANCH  19  20
ATOM     20  O   UNL     1       7.941   4.169  16.956  0.00  0.00    +0.000 OA
ATOM     21  H   UNL     1       8.868   4.026  16.682  0.00  0.00    +0.000 HD
ENDBRANCH  19  20
ENDBRANCH  17  19
ENDBRANCH   1  17
TORSDOF 4
ENDMDL
MODEL 5
REMARK VINA RESULT:      -7.6      3.672      7.375
REMARK  Name = 
REMARK  4 active torsions:
REMARK  status: ('A' for Active; 'I' for Inactive)
REMARK    1  A    between atoms: C_2  and  O_3
REMARK    2  A    between atoms: C_2  and  C_4
REMARK    3  A    between atoms: C_4  and  C_5
REMARK    4  A    between atoms: C_10  and  C_11
REMARK                            x       y       z     vdW  Elec       q    Type
REMARK                         _______ _______ _______ _____ _____    ______ ____
ROOT
ATOM      1  C   UNL     1       6.494   4.415  14.443  0.00  0.00    +0.000 A 
ATOM      2  C   UNL     1       7.403   4.849  15.419  0.00  0.00    +0.000 A 
ATOM      3  C   UNL     1       7.056   4.896  16.777  0.00  0.00    +0.000 A 
ATOM      4  C   UNL     1       5.784   4.440  17.138  0.00  0.00    +0.000 A 
ATOM      5  N   UNL     1       5.174   4.375  18.367  0.00  0.00    +0.000 N 
ATOM      6  C   UNL     1       3.924   3.800  18.276  0.00  0.00    +0.000 A 
ATOM      7  C   UNL     1       3.744   3.480  16.938  0.00  0.00    +0.000 A 
ATOM      8  C   UNL     1       4.886   3.918  16.214  0.00  0.00    +0.000 A 
ATOM      9  C   UNL     1       5.243   3.908  14.853  0.00  0.00    +0.000 A 
ATOM     10  H   UNL     1       5.593   4.691  19.229  0.00  0.00    +0.000 HD
ENDROOT
BRANCH   6  11
ATOM     11  C   UNL     1       3.062   3.583  19.437  0.00  0.00    +0.000 A 
ATOM     12  C   UNL     1       3.463   2.736  20.481  0.00  0.00    +0.000 A 
ATOM     13  C   UNL     1       2.622   2.499  21.570  0.00  0.00    +0.000 A 
ATOM     14  C   UNL     1       1.372   3.109  21.631  0.00  0.00    +0.000 A 
ATOM     15  C   UNL     1       0.969   3.971  20.613  0.00  0.00    +0.000 A 
ATOM     16  C   UNL     1       1.812   4.209  19.524  0.00  0.00    +0.000 A 
ENDBRANCH   6  11
BRANCH   1  17
ATOM     17  C   UNL     1       6.820   4.382  12.964  0.00  0.00    +0.000 C 
BRANCH  17  19
ATOM     18  O   UNL     1       5.028   3.411  11.686  0.00  0.00    +0.000 OA
ATOM     19  C   UNL     1       6.172   3.314  12.114  0.00  0.00    +0.000 C 
BRANCH  19  20
ATOM     20  O   UNL     1       6.969   2.280  11.761  0.00  0.00    +0.000 OA
ATOM     21  H   UNL     1       6.614   1.404  12.008  0.00  0.00    +0.000 HD
ENDBRANCH  19  20
ENDBRANCH  17  19
ENDBRANCH   1  17
TORSDOF 4
ENDMDL
MODEL 6
REMARK VINA RESULT:      -7.5      3.701      7.424
REMARK  Name = 
REMARK  4 active torsions:
REMARK  status: ('A' for Active; 'I' for Inactive)
REMARK    1  A    between atoms: C_2  and  O_3
REMARK    2  A    between atoms: C_2  and  C_4
REMARK    3  A    between atoms: C_4  and  C_5
REMARK    4  A    between atoms: C_10  and  C_11
REMARK                            x       y       z     vdW  Elec       q    Type
REMARK                         _______ _______ _______ _____ _____    ______ ____
ROOT
ATOM      1  C   UNL     1       6.537   4.433  14.518  0.00  0.00    +0.000 A 
ATOM      2  C   UNL     1       7.463   4.735  15.527  0.00  0.00    +0.000 A 
ATOM      3  C   UNL     1       7.106   4.712  16.883  0.00  0.00    +0.000 A 
ATOM      4  C   UNL     1       5.802   4.322  17.203  0.00  0.00    +0.000 A 
ATOM      5  N   UNL     1       5.175   4.216  18.421  0.00  0.00    +0.000 N 
ATOM      6  C   UNL     1       3.889   3.738  18.284  0.00  0.00    +0.000 A 
ATOM      7  C   UNL     1       3.702   3.523  16.926  0.00  0.00    +0.000 A 
ATOM      8  C   UNL     1       4.879   3.929  16.241  0.00  0.00    +0.000 A 
ATOM      9  C   UNL     1       5.249   3.987  14.884  0.00  0.00    +0.000 A 
ATOM     10  H   UNL     1       5.606   4.442  19.306  0.00  0.00    +0.000 HD
ENDROOT
BRANCH   6  11
ATOM     11  C   UNL     1       3.003   3.502  19.422  0.00  0.00    +0.000 A 
ATOM     12  C   UNL     1       1.704   4.032  19.442  0.00  0.00    +0.000 A 
ATOM     13  C   UNL     1       0.872   3.839  20.547  0.00  0.00    +0.000 A 
ATOM     14  C   UNL     1       1.326   3.110  21.643  0.00  0.00    +0.000 A 
ATOM     15  C   UNL     1       2.605   2.558  21.628  0.00  0.00    +0.000 A 
ATOM     16  C   UNL     1       3.437   2.751  20.521  0.00  0.00    +0.000 A 
ENDBRANCH   6  11
BRANCH   1  17
ATOM     17  C   UNL     1       6.876   4.478  13.042  0.00  0.00    +0.000 C 
BRANCH  17  19
ATOM     18  O   UNL     1       5.153   3.430  11.731  0.00  0.00    +0.000 OA
ATOM     19  C   UNL     1       6.306   3.404  12.145  0.00  0.00    +0.000 C 
BRANCH  19  20
ATOM     20  O   UNL     1       7.179   2.457  11.735  0.00  0.00    +0.000 OA
ATOM     21  H   UNL     1       6.758   1.611  11.485  0.00  0.00    +0.000 HD
ENDBRANCH  19  20
ENDBRANCH  17  19
ENDBRANCH   1  17
TORSDOF 4
ENDMDL
MODEL 7
REMARK VINA RESULT:      -7.4      5.596      7.038
REMARK  Name = 
REMARK  4 active torsions:
REMARK  status: ('A' for Active; 'I' for Inactive)
REMARK    1  A    between atoms: C_2  and  O_3
REMARK    2  A    between atoms: C_2  and  C_4
REMARK    3  A    between atoms: C_4  and  C_5
REMARK    4  A    between atoms: C_10  and  C_11
REMARK                            x       y       z     vdW  Elec       q    Type
REMARK                         _______ _______ _______ _____ _____    ______ ____
ROOT
ATOM      1  C   UNL     1       6.151   5.402  17.147  0.00  0.00    +0.000 A 
ATOM      2  C   UNL     1       6.888   4.852  18.205  0.00  0.00    +0.000 A 
ATOM      3  C   UNL     1       7.831   5.610  18.915  0.00  0.00    +0.000 A 
ATOM      4  C   UNL     1       7.975   6.956  18.567  0.00  0.00    +0.000 A 
ATOM      5  N   UNL     1       8.810   7.924  19.071  0.00  0.00    +0.000 N 
ATOM      6  C   UNL     1       8.583   9.145  18.470  0.00  0.00    +0.000 A 
ATOM      7  C   UNL     1       7.556   8.940  17.560  0.00  0.00    +0.000 A 
ATOM      8  C   UNL     1       7.202   7.563  17.585  0.00  0.00    +0.000 A 
ATOM      9  C   UNL     1       6.282   6.778  16.865  0.00  0.00    +0.000 A 
ATOM     10  H   UNL     1       9.491   7.767  19.799  0.00  0.00    +0.000 HD
ENDROOT
BRANCH   6  11
ATOM     11  C   UNL     1       9.313  10.358  18.833  0.00  0.00    +0.000 A 
ATOM     12  C   UNL     1       9.857  11.191  17.844  0.00  0.00    +0.000 A 
ATOM     13  C   UNL     1      10.588  12.329  18.193  0.00  0.00    +0.000 A 
ATOM     14  C   UNL     1      10.781  12.649  19.534  0.00  0.00    +0.000 A 
ATOM     15  C   UNL     1      10.228  11.844  20.527  0.00  0.00    +0.000 A 
ATOM     16  C   UNL     1       9.495  10.706  20.177  0.00  0.00    +0.000 A 
ENDBRANCH   6  11
BRANCH   1  17
ATOM     17  C   UNL     1       5.148   4.607  16.335  0.00  0.00    +0.000 C 
BRANCH  17  19
ATOM     18  O   UNL     1       2.960   4.334  17.297  0.00  0.00    +0.000 OA
ATOM     19  C   UNL     1       4.066   3.855  17.075  0.00  0.00    +0.000 C 
BRANCH  19  20
ATOM     20  O   UNL     1       4.353   2.573  17.392  0.00  0.00    +0.000 OA
ATOM     21  H   UNL     1       3.915   2.258  18.206  0.00  0.00    +0.000 HD
ENDBRANCH  19  20
ENDBRANCH  17  19
ENDBRANCH   1  17
TORSDOF 4
ENDMDL
MODEL 8
REMARK VINA RESULT:      -7.3      6.241      7.862
REMARK  Name = 
REMARK  4 active torsions:
REMARK  status: ('A' for Active; 'I' for Inactive)
REMARK    1  A    between atoms: C_2  and  O_3
REMARK    2  A    between atoms: C_2  and  C_4
REMARK    3  A    between atoms: C_4  and  C_5
REMARK    4  A    between atoms: C_10  and  C_11
REMARK                            x       y       z     vdW  Elec       q    Type
REMARK                         _______ _______ _______ _____ _____    ______ ____
ROOT
ATOM      1  C   UNL     1       6.734   5.361  16.836  0.00  0.00    +0.000 A 
ATOM      2  C   UNL     1       7.211   4.873  18.061  0.00  0.00    +0.000 A 
ATOM      3  C   UNL     1       7.932   5.689  18.945  0.00  0.00    +0.000 A 
ATOM      4  C   UNL     1       8.116   7.028  18.589  0.00  0.00    +0.000 A 
ATOM      5  N   UNL     1       8.777   8.043  19.238  0.00  0.00    +0.000 N 
ATOM      6  C   UNL     1       8.664   9.234  18.553  0.00  0.00    +0.000 A 
ATOM      7  C   UNL     1       7.892   8.962  17.433  0.00  0.00    +0.000 A 
ATOM      8  C   UNL     1       7.585   7.574  17.426  0.00  0.00    +0.000 A 
ATOM      9  C   UNL     1       6.889   6.731  16.539  0.00  0.00    +0.000 A 
ATOM     10  H   UNL     1       9.266   7.935  20.114  0.00  0.00    +0.000 HD
ENDROOT
BRANCH   6  11
ATOM     11  C   UNL     1       9.250  10.485  19.031  0.00  0.00    +0.000 A 
ATOM     12  C   UNL     1       9.679  11.469  18.127  0.00  0.00    +0.000 A 
ATOM     13  C   UNL     1      10.275  12.647  18.585  0.00  0.00    +0.000 A 
ATOM     14  C   UNL     1      10.444  12.858  19.951  0.00  0.00    +0.000 A 
ATOM     15  C   UNL     1      10.001  11.900  20.862  0.00  0.00    +0.000 A 
ATOM     16  C   UNL     1       9.404  10.722  20.403  0.00  0.00    +0.000 A 
ENDBRANCH   6  11
BRANCH   1  17
ATOM     17  C   UNL     1       5.980   4.503  15.841  0.00  0.00    +0.000 C 
BRANCH  17  19
ATOM     18  O   UNL     1       7.301   5.222  13.963  0.00  0.00    +0.000 OA
ATOM     19  C   UNL     1       6.516   4.405  14.431  0.00  0.00    +0.000 C 
BRANCH  19  20
ATOM     20  O   UNL     1       6.160   3.298  13.743  0.00  0.00    +0.000 OA
ATOM     21  H   UNL     1       5.494   3.461  13.048  0.00  0.00    +0.000 HD
ENDBRANCH  19  20
ENDBRANCH  17  19
ENDBRANCH   1  17
TORSDOF 4
ENDMDL
MODEL 9
REMARK VINA RESULT:      -7.1      3.948      7.418
REMARK  Name = 
REMARK  4 active torsions:
REMARK  status: ('A' for Active; 'I' for Inactive)
REMARK    1  A    between atoms: C_2  and  O_3
REMARK    2  A    between atoms: C_2  and  C_4
REMARK    3  A    between atoms: C_4  and  C_5
REMARK    4  A    between atoms: C_10  and  C_11
REMARK                            x       y       z     vdW  Elec       q    Type
REMARK                         _______ _______ _______ _____ _____    ______ ____
ROOT
ATOM      1  C   UNL     1       5.486   4.532  16.557  0.00  0.00    +0.000 A 
ATOM      2  C   UNL     1       4.492   3.651  17.007  0.00  0.00    +0.000 A 
ATOM      3  C   UNL     1       3.359   4.112  17.693  0.00  0.00    +0.000 A 
ATOM      4  C   UNL     1       3.223   5.493  17.868  0.00  0.00    +0.000 A 
ATOM      5  N   UNL     1       2.243   6.221  18.497  0.00  0.00    +0.000 N 
ATOM      6  C   UNL     1       2.476   7.576  18.386  0.00  0.00    +0.000 A 
ATOM      7  C   UNL     1       3.643   7.706  17.648  0.00  0.00    +0.000 A 
ATOM      8  C   UNL     1       4.140   6.406  17.360  0.00  0.00    +0.000 A 
ATOM      9  C   UNL     1       5.284   5.921  16.700  0.00  0.00    +0.000 A 
ATOM     10  H   UNL     1       1.444   5.818  18.964  0.00  0.00    +0.000 HD
ENDROOT
BRANCH   6  11
ATOM     11  C   UNL     1       1.576   8.586  18.941  0.00  0.00    +0.000 A 
ATOM     12  C   UNL     1       0.992   9.559  18.116  0.00  0.00    +0.000 A 
ATOM     13  C   UNL     1       0.165  10.547  18.655  0.00  0.00    +0.000 A 
ATOM     14  C   UNL     1      -0.093  10.571  20.023  0.00  0.00    +0.000 A 
ATOM     15  C   UNL     1       0.461   9.598  20.851  0.00  0.00    +0.000 A 
ATOM     16  C   UNL     1       1.288   8.608  20.312  0.00  0.00    +0.000 A 
ENDBRANCH   6  11
BRANCH   1  17
ATOM     17  C   UNL     1       6.739   4.070  15.841  0.00  0.00    +0.000 C 
BRANCH  17  19
ATOM     18  O   UNL     1       7.581   5.423  14.040  0.00  0.00    +0.000 OA
ATOM     19  C   UNL     1       6.916   4.455  14.391  0.00  0.00    +0.000 C 
BRANCH  19  20
ATOM     20  O   UNL     1       6.381   3.605  13.487  0.00  0.00    +0.000 OA
ATOM     21  H   UNL     1       6.949   3.445  12.708  0.00  0.00    +0.000 HD
ENDBRANCH  19  20
ENDBRANCH  17  19
ENDBRANCH   1  17
TORSDOF 4
ENDMDL
