MODEL 1
REMARK VINA RESULT:      -8.5      0.000      0.000
REMARK  Name = 
REMARK  8 active torsions:
REMARK  status: ('A' for Active; 'I' for Inactive)
REMARK    1  A    between atoms: C_1  and  C_2
REMARK    2  A    between atoms: C_4  and  C_5
REMARK    3  A    between atoms: C_5  and  C_6
REMARK    4  A    between atoms: C_5  and  C_7
REMARK    5  A    between atoms: C_5  and  N_8
REMARK    6  A    between atoms: C_9  and  C_11
REMARK    7  A    between atoms: C_18  and  C_19
REMARK    8  A    between atoms: C_18  and  C_20
REMARK                            x       y       z     vdW  Elec       q    Type
REMARK                         _______ _______ _______ _____ _____    ______ ____
ROOT
ATOM      1  N   UNL     1       1.080   9.670  19.563  0.00  0.00    +0.000 N 
ATOM      2  C   UNL     1       1.828   9.228  18.483  0.00  0.00    +0.000 C 
ATOM      3  O   UNL     1       2.093   9.929  17.512  0.00  0.00    +0.000 OA
ATOM      4  H   UNL     1       0.976   9.051  20.363  0.00  0.00    +0.000 HD
ENDROOT
BRANCH   2   5
ATOM      5  C   UNL     1       2.346   7.820  18.533  0.00  0.00    +0.000 A 
ATOM      6  C   UNL     1       3.321   7.424  17.623  0.00  0.00    +0.000 A 
ATOM      7  C   UNL     1       3.839   6.136  17.724  0.00  0.00    +0.000 A 
ATOM      8  C   UNL     1       3.375   5.285  18.731  0.00  0.00    +0.000 A 
ATOM      9  C   UNL     1       2.359   5.750  19.579  0.00  0.00    +0.000 A 
ATOM     10  N   UNL     1       1.850   7.010  19.505  0.00  0.00    +0.000 NA
ATOM     11  C   UNL     1       1.788   4.864  20.669  0.00  0.00    +0.000 C 
ATOM     12  C   UNL     1       2.028   3.354  20.425  0.00  0.00    +0.000 C 
ATOM     13  C   UNL     1       1.136   2.845  19.273  0.00  0.00    +0.000 C 
ATOM     14  C   UNL     1       1.673   2.543  21.684  0.00  0.00    +0.000 C 
ATOM     15  C   UNL     1       3.526   3.167  20.108  0.00  0.00    +0.000 C 
ATOM     16  C   UNL     1       3.920   3.880  18.816  0.00  0.00    +0.000 C 
ENDBRANCH   2   5
BRANCH   1  17
ATOM     17  C   UNL     1       0.498  11.028  19.651  0.00  0.00    +0.000 C 
ATOM     18  C   UNL     1      -0.570  11.221  18.553  0.00  0.00    +0.000 C 
ATOM     19  C   UNL     1       1.611  12.089  19.511  0.00  0.00    +0.000 C 
BRANCH  17  23
ATOM     20  C   UNL     1      -2.642  12.130  23.396  0.00  0.00    +0.000 C 
ATOM     21  C   UNL     1      -1.542  11.697  22.519  0.00  0.00    +0.000 A 
ATOM     22  N   UNL     1      -1.407  11.775  21.208  0.00  0.00    +0.000 NA
ATOM     23  C   UNL     1      -0.170  11.201  21.012  0.00  0.00    +0.000 A 
ATOM     24  N   UNL     1       0.430  10.782  22.145  0.00  0.00    +0.000 NA
ATOM     25  O   UNL     1      -0.482  11.112  23.139  0.00  0.00    +0.000 OA
ENDBRANCH  17  23
ENDBRANCH   1  17
TORSDOF 3
ENDMDL
MODEL 2
REMARK VINA RESULT:      -8.3      3.268      8.342
REMARK  Name = 
REMARK  8 active torsions:
REMARK  status: ('A' for Active; 'I' for Inactive)
REMARK    1  A    between atoms: C_1  and  C_2
REMARK    2  A    between atoms: C_4  and  C_5
REMARK    3  A    between atoms: C_5  and  C_6
REMARK    4  A    between atoms: C_5  and  C_7
REMARK    5  A    between atoms: C_5  and  N_8
REMARK    6  A    between atoms: C_9  and  C_11
REMARK    7  A    between atoms: C_18  and  C_19
REMARK    8  A    between atoms: C_18  and  C_20
REMARK                            x       y       z     vdW  Elec       q    Type
REMARK                         _______ _______ _______ _____ _____    ______ ____
ROOT
ATOM      1  N   UNL     1       4.339   5.941  18.160  0.00  0.00    +0.000 N 
ATOM      2  C   UNL     1       3.418   6.190  19.165  0.00  0.00    +0.000 C 
ATOM      3  O   UNL     1       3.300   5.486  20.163  0.00  0.00    +0.000 OA
ATOM      4  H   UNL     1       4.428   6.620  17.407  0.00  0.00    +0.000 HD
ENDROOT
BRANCH   2   5
ATOM      5  C   UNL     1       2.541   7.399  19.013  0.00  0.00    +0.000 A 
ATOM      6  C   UNL     1       2.363   7.952  17.748  0.00  0.00    +0.000 A 
ATOM      7  C   UNL     1       1.495   9.032  17.612  0.00  0.00    +0.000 A 
ATOM      8  C   UNL     1       0.829   9.524  18.738  0.00  0.00    +0.000 A 
ATOM      9  C   UNL     1       1.100   8.936  19.981  0.00  0.00    +0.000 A 
ATOM     10  N   UNL     1       1.934   7.871  20.132  0.00  0.00    +0.000 NA
ATOM     11  C   UNL     1       0.437   9.447  21.245  0.00  0.00    +0.000 C 
ATOM     12  C   UNL     1      -0.098  10.894  21.120  0.00  0.00    +0.000 C 
ATOM     13  C   UNL     1       1.071  11.901  21.093  0.00  0.00    +0.000 C 
ATOM     14  C   UNL     1      -0.988  11.244  22.325  0.00  0.00    +0.000 C 
ATOM     15  C   UNL     1      -0.940  10.968  19.830  0.00  0.00    +0.000 C 
ATOM     16  C   UNL     1      -0.087  10.714  18.588  0.00  0.00    +0.000 C 
ENDBRANCH   2   5
BRANCH   1  17
ATOM     17  C   UNL     1       5.264   4.785  18.168  0.00  0.00    +0.000 C 
ATOM     18  C   UNL     1       4.480   3.481  18.431  0.00  0.00    +0.000 C 
ATOM     19  C   UNL     1       6.351   4.987  19.245  0.00  0.00    +0.000 C 
BRANCH  17  23
ATOM     20  C   UNL     1       6.339   3.919  13.352  0.00  0.00    +0.000 C 
ATOM     21  C   UNL     1       6.308   4.280  14.779  0.00  0.00    +0.000 A 
ATOM     22  N   UNL     1       5.345   4.166  15.674  0.00  0.00    +0.000 NA
ATOM     23  C   UNL     1       5.943   4.676  16.806  0.00  0.00    +0.000 A 
ATOM     24  N   UNL     1       7.212   5.091  16.620  0.00  0.00    +0.000 NA
ATOM     25  O   UNL     1       7.450   4.828  15.278  0.00  0.00    +0.000 OA
ENDBRANCH  17  23
ENDBRANCH   1  17
TORSDOF 3
ENDMDL
MODEL 3
REMARK VINA RESULT:      -8.2      1.787      2.798
REMARK  Name = 
REMARK  8 active torsions:
REMARK  status: ('A' for Active; 'I' for Inactive)
REMARK    1  A    between atoms: C_1  and  C_2
REMARK    2  A    between atoms: C_4  and  C_5
REMARK    3  A    between atoms: C_5  and  C_6
REMARK    4  A    between atoms: C_5  and  C_7
REMARK    5  A    between atoms: C_5  and  N_8
REMARK    6  A    between atoms: C_9  and  C_11
REMARK    7  A    between atoms: C_18  and  C_19
REMARK    8  A    between atoms: C_18  and  C_20
REMARK                            x       y       z     vdW  Elec       q    Type
REMARK                         _______ _______ _______ _____ _____    ______ ____
ROOT
ATOM      1  N   UNL     1       0.989   9.547  19.348  0.00  0.00    +0.000 N 
ATOM      2  C   UNL     1       1.898   9.132  18.388  0.00  0.00    +0.000 C 
ATOM      3  O   UNL     1       2.309   9.858  17.489  0.00  0.00    +0.000 OA
ATOM      4  H   UNL     1       0.763   8.908  20.107  0.00  0.00    +0.000 HD
ENDROOT
BRANCH   2   5
ATOM      5  C   UNL     1       2.407   7.723  18.483  0.00  0.00    +0.000 A 
ATOM      6  C   UNL     1       3.408   7.304  17.612  0.00  0.00    +0.000 A 
ATOM      7  C   UNL     1       3.916   6.016  17.755  0.00  0.00    +0.000 A 
ATOM      8  C   UNL     1       3.417   5.188  18.764  0.00  0.00    +0.000 A 
ATOM      9  C   UNL     1       2.378   5.675  19.570  0.00  0.00    +0.000 A 
ATOM     10  N   UNL     1       1.878   6.935  19.455  0.00  0.00    +0.000 NA
ATOM     11  C   UNL     1       1.769   4.813  20.660  0.00  0.00    +0.000 C 
ATOM     12  C   UNL     1       2.009   3.298  20.455  0.00  0.00    +0.000 C 
ATOM     13  C   UNL     1       1.150   2.769  19.285  0.00  0.00    +0.000 C 
ATOM     14  C   UNL     1       1.610   2.515  21.718  0.00  0.00    +0.000 C 
ATOM     15  C   UNL     1       3.515   3.098  20.188  0.00  0.00    +0.000 C 
ATOM     16  C   UNL     1       3.952   3.783  18.895  0.00  0.00    +0.000 C 
ENDBRANCH   2   5
BRANCH   1  17
ATOM     17  C   UNL     1       0.395  10.902  19.379  0.00  0.00    +0.000 C 
ATOM     18  C   UNL     1       1.446  11.951  18.955  0.00  0.00    +0.000 C 
ATOM     19  C   UNL     1      -0.135  11.214  20.795  0.00  0.00    +0.000 C 
BRANCH  17  23
ATOM     20  C   UNL     1      -3.062   9.874  15.901  0.00  0.00    +0.000 C 
ATOM     21  C   UNL     1      -2.183  10.448  16.934  0.00  0.00    +0.000 A 
ATOM     22  N   UNL     1      -1.154   9.925  17.574  0.00  0.00    +0.000 NA
ATOM     23  C   UNL     1      -0.772  10.962  18.399  0.00  0.00    +0.000 A 
ATOM     24  N   UNL     1      -1.531  12.070  18.279  0.00  0.00    +0.000 NA
ATOM     25  O   UNL     1      -2.463  11.726  17.309  0.00  0.00    +0.000 OA
ENDBRANCH  17  23
ENDBRANCH   1  17
TORSDOF 3
ENDMDL
MODEL 4
REMARK VINA RESULT:      -8.0      1.481      2.918
REMARK  Name = 
REMARK  8 active torsions:
REMARK  status: ('A' for Active; 'I' for Inactive)
REMARK    1  A    between atoms: C_1  and  C_2
REMARK    2  A    between atoms: C_4  and  C_5
REMARK    3  A    between atoms: C_5  and  C_6
REMARK    4  A    between atoms: C_5  and  C_7
REMARK    5  A    between atoms: C_5  and  N_8
REMARK    6  A    between atoms: C_9  and  C_11
REMARK    7  A    between atoms: C_18  and  C_19
REMARK    8  A    between atoms: C_18  and  C_20
REMARK                            x       y       z     vdW  Elec       q    Type
REMARK                         _______ _______ _______ _____ _____    ______ ____
ROOT
ATOM      1  N   UNL     1       1.066   9.578  19.428  0.00  0.00    +0.000 N 
ATOM      2  C   UNL     1       1.867   9.194  18.364  0.00  0.00    +0.000 C 
ATOM      3  O   UNL     1       2.041   9.885  17.366  0.00  0.00    +0.000 OA
ATOM      4  H   UNL     1       1.042   8.983  20.253  0.00  0.00    +0.000 HD
ENDROOT
BRANCH   2   5
ATOM      5  C   UNL     1       2.562   7.868  18.468  0.00  0.00    +0.000 A 
ATOM      6  C   UNL     1       2.291   7.044  19.557  0.00  0.00    +0.000 A 
ATOM      7  C   UNL     1       2.893   5.790  19.606  0.00  0.00    +0.000 A 
ATOM      8  C   UNL     1       3.740   5.393  18.568  0.00  0.00    +0.000 A 
ATOM      9  C   UNL     1       3.992   6.302  17.531  0.00  0.00    +0.000 A 
ATOM     10  N   UNL     1       3.403   7.526  17.458  0.00  0.00    +0.000 NA
ATOM     11  C   UNL     1       4.929   5.944  16.393  0.00  0.00    +0.000 C 
ATOM     12  C   UNL     1       5.912   4.799  16.739  0.00  0.00    +0.000 C 
ATOM     13  C   UNL     1       6.988   5.292  17.730  0.00  0.00    +0.000 C 
ATOM     14  C   UNL     1       6.634   4.309  15.472  0.00  0.00    +0.000 C 
ATOM     15  C   UNL     1       5.084   3.640  17.331  0.00  0.00    +0.000 C 
ATOM     16  C   UNL     1       4.412   4.043  18.642  0.00  0.00    +0.000 C 
ENDBRANCH   2   5
BRANCH   1  17
ATOM     17  C   UNL     1       0.314  10.852  19.466  0.00  0.00    +0.000 C 
ATOM     18  C   UNL     1      -0.877  10.793  18.486  0.00  0.00    +0.000 C 
ATOM     19  C   UNL     1       1.248  12.027  19.107  0.00  0.00    +0.000 C 
BRANCH  17  23
ATOM     20  C   UNL     1      -2.472  12.098  23.439  0.00  0.00    +0.000 C 
ATOM     21  C   UNL     1      -1.457  11.629  22.481  0.00  0.00    +0.000 A 
ATOM     22  N   UNL     1      -1.441  11.662  21.162  0.00  0.00    +0.000 NA
ATOM     23  C   UNL     1      -0.228  11.075  20.874  0.00  0.00    +0.000 A 
ATOM     24  N   UNL     1       0.471  10.692  21.963  0.00  0.00    +0.000 NA
ATOM     25  O   UNL     1      -0.346  11.060  23.023  0.00  0.00    +0.000 OA
ENDBRANCH  17  23
ENDBRANCH   1  17
TORSDOF 3
ENDMDL
MODEL 5
REMARK VINA RESULT:      -7.9      2.357      4.188
REMARK  Name = 
REMARK  8 active torsions:
REMARK  status: ('A' for Active; 'I' for Inactive)
REMARK    1  A    between atoms: C_1  and  C_2
REMARK    2  A    between atoms: C_4  and  C_5
REMARK    3  A    between atoms: C_5  and  C_6
REMARK    4  A    between atoms: C_5  and  C_7
REMARK    5  A    between atoms: C_5  and  N_8
REMARK    6  A    between atoms: C_9  and  C_11
REMARK    7  A    between atoms: C_18  and  C_19
REMARK    8  A    between atoms: C_18  and  C_20
REMARK                            x       y       z     vdW  Elec       q    Type
REMARK                         _______ _______ _______ _____ _____    ______ ____
ROOT
ATOM      1  N   UNL     1       1.107   9.419  19.529  0.00  0.00    +0.000 N 
ATOM      2  C   UNL     1       1.928   9.216  18.432  0.00  0.00    +0.000 C 
ATOM      3  O   UNL     1       2.105  10.055  17.554  0.00  0.00    +0.000 OA
ATOM      4  H   UNL     1       1.081   8.704  20.252  0.00  0.00    +0.000 HD
ENDROOT
BRANCH   2   5
ATOM      5  C   UNL     1       2.645   7.899  18.341  0.00  0.00    +0.000 A 
ATOM      6  C   UNL     1       2.372   6.913  19.285  0.00  0.00    +0.000 A 
ATOM      7  C   UNL     1       2.994   5.676  19.149  0.00  0.00    +0.000 A 
ATOM      8  C   UNL     1       3.864   5.456  18.078  0.00  0.00    +0.000 A 
ATOM      9  C   UNL     1       4.115   6.519  17.198  0.00  0.00    +0.000 A 
ATOM     10  N   UNL     1       3.507   7.731  17.305  0.00  0.00    +0.000 NA
ATOM     11  C   UNL     1       5.076   6.356  16.036  0.00  0.00    +0.000 C 
ATOM     12  C   UNL     1       6.073   5.185  16.218  0.00  0.00    +0.000 C 
ATOM     13  C   UNL     1       7.125   5.535  17.292  0.00  0.00    +0.000 C 
ATOM     14  C   UNL     1       6.822   4.908  14.903  0.00  0.00    +0.000 C 
ATOM     15  C   UNL     1       5.256   3.936  16.608  0.00  0.00    +0.000 C 
ATOM     16  C   UNL     1       4.557   4.122  17.954  0.00  0.00    +0.000 C 
ENDBRANCH   2   5
BRANCH   1  17
ATOM     17  C   UNL     1       0.332  10.661  19.750  0.00  0.00    +0.000 C 
ATOM     18  C   UNL     1       1.273  11.884  19.724  0.00  0.00    +0.000 C 
ATOM     19  C   UNL     1      -0.414  10.584  21.098  0.00  0.00    +0.000 C 
BRANCH  17  23
ATOM     20  C   UNL     1      -3.011   9.867  16.103  0.00  0.00    +0.000 C 
ATOM     21  C   UNL     1      -2.084  10.394  17.118  0.00  0.00    +0.000 A 
ATOM     22  N   UNL     1      -1.295   9.767  17.970  0.00  0.00    +0.000 NA
ATOM     23  C   UNL     1      -0.696  10.817  18.633  0.00  0.00    +0.000 A 
ATOM     24  N   UNL     1      -1.099  12.034  18.216  0.00  0.00    +0.000 NA
ATOM     25  O   UNL     1      -2.017  11.751  17.214  0.00  0.00    +0.000 OA
ENDBRANCH  17  23
ENDBRANCH   1  17
TORSDOF 3
ENDMDL
MODEL 6
REMARK VINA RESULT:      -7.7      2.778      8.231
REMARK  Name = 
REMARK  8 active torsions:
REMARK  status: ('A' for Active; 'I' for Inactive)
REMARK    1  A    between atoms: C_1  and  C_2
REMARK    2  A    between atoms: C_4  and  C_5
REMARK    3  A    between atoms: C_5  and  C_6
REMARK    4  A    between atoms: C_5  and  C_7
REMARK    5  A    between atoms: C_5  and  N_8
REMARK    6  A    between atoms: C_9  and  C_11
REMARK    7  A    between atoms: C_18  and  C_19
REMARK    8  A    between atoms: C_18  and  C_20
REMARK                            x       y       z     vdW  Elec       q    Type
REMARK                         _______ _______ _______ _____ _____    ______ ____
ROOT
ATOM      1  N   UNL     1       3.263   6.518  18.047  0.00  0.00    +0.000 N 
ATOM      2  C   UNL     1       2.584   6.887  19.198  0.00  0.00    +0.000 C 
ATOM      3  O   UNL     1       2.635   6.251  20.246  0.00  0.00    +0.000 OA
ATOM      4  H   UNL     1       3.233   7.146  17.247  0.00  0.00    +0.000 HD
ENDROOT
BRANCH   2   5
ATOM      5  C   UNL     1       1.763   8.142  19.141  0.00  0.00    +0.000 A 
ATOM      6  C   UNL     1       1.501   8.726  17.905  0.00  0.00    +0.000 A 
ATOM      7  C   UNL     1       0.684   9.852  17.863  0.00  0.00    +0.000 A 
ATOM      8  C   UNL     1       0.148  10.358  19.050  0.00  0.00    +0.000 A 
ATOM      9  C   UNL     1       0.498   9.734  20.256  0.00  0.00    +0.000 A 
ATOM     10  N   UNL     1       1.283   8.625  20.317  0.00  0.00    +0.000 NA
ATOM     11  C   UNL     1      -0.022  10.256  21.582  0.00  0.00    +0.000 C 
ATOM     12  C   UNL     1      -0.489  11.731  21.524  0.00  0.00    +0.000 C 
ATOM     13  C   UNL     1       0.726  12.676  21.406  0.00  0.00    +0.000 C 
ATOM     14  C   UNL     1      -1.248  12.105  22.809  0.00  0.00    +0.000 C 
ATOM     15  C   UNL     1      -1.437  11.871  20.316  0.00  0.00    +0.000 C 
ATOM     16  C   UNL     1      -0.713  11.596  18.999  0.00  0.00    +0.000 C 
ENDBRANCH   2   5
BRANCH   1  17
ATOM     17  C   UNL     1       4.105   5.305  17.950  0.00  0.00    +0.000 C 
ATOM     18  C   UNL     1       3.219   4.041  17.989  0.00  0.00    +0.000 C 
ATOM     19  C   UNL     1       5.130   5.279  19.103  0.00  0.00    +0.000 C 
BRANCH  17  23
ATOM     20  C   UNL     1       6.356   4.084  13.643  0.00  0.00    +0.000 C 
ATOM     21  C   UNL     1       5.782   4.725  14.838  0.00  0.00    +0.000 A 
ATOM     22  N   UNL     1       5.117   4.210  15.854  0.00  0.00    +0.000 NA
ATOM     23  C   UNL     1       4.862   5.324  16.626  0.00  0.00    +0.000 A 
ATOM     24  N   UNL     1       5.341   6.474  16.108  0.00  0.00    +0.000 NA
ATOM     25  O   UNL     1       5.948   6.074  14.925  0.00  0.00    +0.000 OA
ENDBRANCH  17  23
ENDBRANCH   1  17
TORSDOF 3
ENDMDL
MODEL 7
REMARK VINA RESULT:      -7.7      1.464      2.478
REMARK  Name = 
REMARK  8 active torsions:
REMARK  status: ('A' for Active; 'I' for Inactive)
REMARK    1  A    between atoms: C_1  and  C_2
REMARK    2  A    between atoms: C_4  and  C_5
REMARK    3  A    between atoms: C_5  and  C_6
REMARK    4  A    between atoms: C_5  and  C_7
REMARK    5  A    between atoms: C_5  and  N_8
REMARK    6  A    between atoms: C_9  and  C_11
REMARK    7  A    between atoms: C_18  and  C_19
REMARK    8  A    between atoms: C_18  and  C_20
REMARK                            x       y       z     vdW  Elec       q    Type
REMARK                         _______ _______ _______ _____ _____    ______ ____
ROOT
ATOM      1  N   UNL     1       0.841   9.741  19.582  0.00  0.00    +0.000 N 
ATOM      2  C   UNL     1       1.692   9.378  18.549  0.00  0.00    +0.000 C 
ATOM      3  O   UNL     1       2.014  10.136  17.640  0.00  0.00    +0.000 OA
ATOM      4  H   UNL     1       0.692   9.079  20.339  0.00  0.00    +0.000 HD
ENDROOT
BRANCH   2   5
ATOM      5  C   UNL     1       2.251   7.985  18.575  0.00  0.00    +0.000 A 
ATOM      6  C   UNL     1       3.232   7.632  17.653  0.00  0.00    +0.000 A 
ATOM      7  C   UNL     1       3.788   6.358  17.732  0.00  0.00    +0.000 A 
ATOM      8  C   UNL     1       3.355   5.478  18.727  0.00  0.00    +0.000 A 
ATOM      9  C   UNL     1       2.331   5.900  19.587  0.00  0.00    +0.000 A 
ATOM     10  N   UNL     1       1.785   7.145  19.536  0.00  0.00    +0.000 NA
ATOM     11  C   UNL     1       1.792   4.980  20.665  0.00  0.00    +0.000 C 
ATOM     12  C   UNL     1       2.075   3.482  20.397  0.00  0.00    +0.000 C 
ATOM     13  C   UNL     1       1.192   2.965  19.241  0.00  0.00    +0.000 C 
ATOM     14  C   UNL     1       1.749   2.642  21.644  0.00  0.00    +0.000 C 
ATOM     15  C   UNL     1       3.576   3.344  20.070  0.00  0.00    +0.000 C 
ATOM     16  C   UNL     1       3.941   4.089  18.787  0.00  0.00    +0.000 C 
ENDBRANCH   2   5
BRANCH   1  17
ATOM     17  C   UNL     1       0.209  11.075  19.686  0.00  0.00    +0.000 C 
ATOM     18  C   UNL     1      -0.830  11.082  20.828  0.00  0.00    +0.000 C 
ATOM     19  C   UNL     1      -0.461  11.449  18.347  0.00  0.00    +0.000 C 
BRANCH  17  23
ATOM     20  C   UNL     1       3.654  14.705  19.432  0.00  0.00    +0.000 C 
ATOM     21  C   UNL     1       2.707  13.640  19.804  0.00  0.00    +0.000 A 
ATOM     22  N   UNL     1       1.870  12.938  19.065  0.00  0.00    +0.000 NA
ATOM     23  C   UNL     1       1.280  12.116  20.001  0.00  0.00    +0.000 A 
ATOM     24  N   UNL     1       1.726  12.304  21.260  0.00  0.00    +0.000 NA
ATOM     25  O   UNL     1       2.670  13.314  21.125  0.00  0.00    +0.000 OA
ENDBRANCH  17  23
ENDBRANCH   1  17
TORSDOF 3
ENDMDL
MODEL 8
REMARK VINA RESULT:      -7.7      2.645      7.982
REMARK  Name = 
REMARK  8 active torsions:
REMARK  status: ('A' for Active; 'I' for Inactive)
REMARK    1  A    between atoms: C_1  and  C_2
REMARK    2  A    between atoms: C_4  and  C_5
REMARK    3  A    between atoms: C_5  and  C_6
REMARK    4  A    between atoms: C_5  and  C_7
REMARK    5  A    between atoms: C_5  and  N_8
REMARK    6  A    between atoms: C_9  and  C_11
REMARK    7  A    between atoms: C_18  and  C_19
REMARK    8  A    between atoms: C_18  and  C_20
REMARK                            x       y       z     vdW  Elec       q    Type
REMARK                         _______ _______ _______ _____ _____    ______ ____
ROOT
ATOM      1  N   UNL     1       2.610   5.465  19.577  0.00  0.00    +0.000 N 
ATOM      2  C   UNL     1       2.565   6.688  18.928  0.00  0.00    +0.000 C 
ATOM      3  O   UNL     1       3.062   6.886  17.823  0.00  0.00    +0.000 OA
ATOM      4  H   UNL     1       2.102   5.364  20.452  0.00  0.00    +0.000 HD
ENDROOT
BRANCH   2   5
ATOM      5  C   UNL     1       1.851   7.812  19.621  0.00  0.00    +0.000 A 
ATOM      6  C   UNL     1       1.516   7.673  20.965  0.00  0.00    +0.000 A 
ATOM      7  C   UNL     1       0.913   8.749  21.612  0.00  0.00    +0.000 A 
ATOM      8  C   UNL     1       0.668   9.928  20.904  0.00  0.00    +0.000 A 
ATOM      9  C   UNL     1       0.999   9.966  19.542  0.00  0.00    +0.000 A 
ATOM     10  N   UNL     1       1.601   8.932  18.895  0.00  0.00    +0.000 NA
ATOM     11  C   UNL     1       0.726  11.204  18.709  0.00  0.00    +0.000 C 
ATOM     12  C   UNL     1      -0.350  12.135  19.321  0.00  0.00    +0.000 C 
ATOM     13  C   UNL     1      -1.751  11.500  19.190  0.00  0.00    +0.000 C 
ATOM     14  C   UNL     1      -0.377  13.483  18.580  0.00  0.00    +0.000 C 
ATOM     15  C   UNL     1       0.029  12.375  20.797  0.00  0.00    +0.000 C 
ATOM     16  C   UNL     1      -0.012  11.079  21.604  0.00  0.00    +0.000 C 
ENDBRANCH   2   5
BRANCH   1  17
ATOM     17  C   UNL     1       3.283   4.270  19.021  0.00  0.00    +0.000 C 
ATOM     18  C   UNL     1       2.589   3.829  17.715  0.00  0.00    +0.000 C 
ATOM     19  C   UNL     1       3.263   3.124  20.054  0.00  0.00    +0.000 C 
BRANCH  17  23
ATOM     20  C   UNL     1       8.015   5.911  19.184  0.00  0.00    +0.000 C 
ATOM     21  C   UNL     1       6.701   5.332  18.857  0.00  0.00    +0.000 A 
ATOM     22  N   UNL     1       5.588   5.272  19.564  0.00  0.00    +0.000 NA
ATOM     23  C   UNL     1       4.736   4.613  18.705  0.00  0.00    +0.000 A 
ATOM     24  N   UNL     1       5.295   4.276  17.525  0.00  0.00    +0.000 NA
ATOM     25  O   UNL     1       6.595   4.753  17.630  0.00  0.00    +0.000 OA
ENDBRANCH  17  23
ENDBRANCH   1  17
TORSDOF 3
ENDMDL
MODEL 9
REMARK VINA RESULT:      -7.7      2.142      3.997
REMARK  Name = 
REMARK  8 active torsions:
REMARK  status: ('A' for Active; 'I' for Inactive)
REMARK    1  A    between atoms: C_1  and  C_2
REMARK    2  A    between atoms: C_4  and  C_5
REMARK    3  A    between atoms: C_5  and  C_6
REMARK    4  A    between atoms: C_5  and  C_7
REMARK    5  A    between atoms: C_5  and  N_8
REMARK    6  A    between atoms: C_9  and  C_11
REMARK    7  A    between atoms: C_18  and  C_19
REMARK    8  A    between atoms: C_18  and  C_20
REMARK                            x       y       z     vdW  Elec       q    Type
REMARK                         _______ _______ _______ _____ _____    ______ ____
ROOT
ATOM      1  N   UNL     1       0.816   9.193  19.422  0.00  0.00    +0.000 N 
ATOM      2  C   UNL     1       1.459   8.424  20.378  0.00  0.00    +0.000 C 
ATOM      3  O   UNL     1       1.529   8.737  21.562  0.00  0.00    +0.000 OA
ATOM      4  H   UNL     1       0.732   8.821  18.479  0.00  0.00    +0.000 HD
ENDROOT
BRANCH   2   5
ATOM      5  C   UNL     1       2.079   7.134  19.923  0.00  0.00    +0.000 A 
ATOM      6  C   UNL     1       1.815   5.967  20.634  0.00  0.00    +0.000 A 
ATOM      7  C   UNL     1       2.343   4.769  20.161  0.00  0.00    +0.000 A 
ATOM      8  C   UNL     1       3.112   4.769  18.995  0.00  0.00    +0.000 A 
ATOM      9  C   UNL     1       3.365   5.996  18.365  0.00  0.00    +0.000 A 
ATOM     10  N   UNL     1       2.847   7.175  18.803  0.00  0.00    +0.000 NA
ATOM     11  C   UNL     1       4.222   6.068  17.116  0.00  0.00    +0.000 C 
ATOM     12  C   UNL     1       5.151   4.843  16.933  0.00  0.00    +0.000 C 
ATOM     13  C   UNL     1       6.303   4.881  17.961  0.00  0.00    +0.000 C 
ATOM     14  C   UNL     1       5.779   4.850  15.529  0.00  0.00    +0.000 C 
ATOM     15  C   UNL     1       4.287   3.576  17.097  0.00  0.00    +0.000 C 
ATOM     16  C   UNL     1       3.706   3.471  18.505  0.00  0.00    +0.000 C 
ENDBRANCH   2   5
BRANCH   1  17
ATOM     17  C   UNL     1       0.165  10.489  19.719  0.00  0.00    +0.000 C 
ATOM     18  C   UNL     1       1.203  11.630  19.656  0.00  0.00    +0.000 C 
ATOM     19  C   UNL     1      -0.496  10.440  21.113  0.00  0.00    +0.000 C 
BRANCH  17  23
ATOM     20  C   UNL     1      -2.879  10.307  15.744  0.00  0.00    +0.000 C 
ATOM     21  C   UNL     1      -2.146  10.608  16.985  0.00  0.00    +0.000 A 
ATOM     22  N   UNL     1      -1.131   9.987  17.556  0.00  0.00    +0.000 NA
ATOM     23  C   UNL     1      -0.916  10.759  18.677  0.00  0.00    +0.000 A 
ATOM     24  N   UNL     1      -1.760  11.804  18.798  0.00  0.00    +0.000 NA
ATOM     25  O   UNL     1      -2.572  11.700  17.676  0.00  0.00    +0.000 OA
ENDBRANCH  17  23
ENDBRANCH   1  17
TORSDOF 3
ENDMDL
