MODEL 1
REMARK VINA RESULT:      -8.7      0.000      0.000
REMARK  Name = 
REMARK  8 active torsions:
REMARK  status: ('A' for Active; 'I' for Inactive)
REMARK    1  A    between atoms: C_1  and  O_2
REMARK    2  A    between atoms: O_2  and  C_3
REMARK    3  A    between atoms: C_6  and  C_7
REMARK    4  A    between atoms: C_7  and  C_9
REMARK    5  A    between atoms: C_14  and  O_15
REMARK    6  A    between atoms: C_21  and  O_22
REMARK    7  A    between atoms: O_22  and  C_23
REMARK    8  A    between atoms: C_23  and  C_24
REMARK                            x       y       z     vdW  Elec       q    Type
REMARK                         _______ _______ _______ _____ _____    ______ ____
ROOT
ATOM      1  C   UNL     1       2.244   7.597  18.922  0.00  0.00    +0.000 A 
ATOM      2  C   UNL     1       2.560   6.351  18.362  0.00  0.00    +0.000 A 
ATOM      3  C   UNL     1       2.383   5.134  19.072  0.00  0.00    +0.000 A 
ATOM      4  C   UNL     1       2.693   3.827  18.626  0.00  0.00    +0.000 A 
ATOM      5  N   UNL     1       2.527   2.706  19.391  0.00  0.00    +0.000 NA
ATOM      6  C   UNL     1       1.957   2.849  20.597  0.00  0.00    +0.000 A 
ATOM      7  C   UNL     1       1.585   4.066  21.117  0.00  0.00    +0.000 A 
ATOM      8  C   UNL     1       1.823   5.217  20.363  0.00  0.00    +0.000 A 
ATOM      9  C   UNL     1       1.521   6.461  20.923  0.00  0.00    +0.000 A 
ATOM     10  C   UNL     1       1.803   7.656  20.250  0.00  0.00    +0.000 A 
ENDROOT
BRANCH   1  12
ATOM     11  C   UNL     1       1.154   9.364  17.767  0.00  0.00    +0.000 C 
ATOM     12  O   UNL     1       2.370   8.781  18.235  0.00  0.00    +0.000 OA
ENDBRANCH   1  12
BRANCH   4  13
ATOM     13  C   UNL     1       3.271   3.561  17.257  0.00  0.00    +0.000 C 
ATOM     14  O   UNL     1       2.613   3.036  16.366  0.00  0.00    +0.000 OA
BRANCH  13  15
ATOM     15  C   UNL     1       4.637   4.031  16.929  0.00  0.00    +0.000 A 
ATOM     16  C   UNL     1       4.865   4.492  15.626  0.00  0.00    +0.000 A 
ATOM     17  C   UNL     1       6.088   5.072  15.292  0.00  0.00    +0.000 A 
ATOM     18  C   UNL     1       7.086   5.195  16.259  0.00  0.00    +0.000 A 
ATOM     19  C   UNL     1       6.888   4.686  17.542  0.00  0.00    +0.000 A 
ATOM     20  C   UNL     1       5.677   4.075  17.864  0.00  0.00    +0.000 A 
BRANCH  20  21
ATOM     21  O   UNL     1       5.540   3.485  19.091  0.00  0.00    +0.000 OA
ATOM     22  H   UNL     1       5.338   4.182  19.737  0.00  0.00    +0.000 HD
ENDBRANCH  20  21
ENDBRANCH  13  15
ENDBRANCH   4  13
BRANCH  10  23
ATOM     23  O   UNL     1       1.680   8.889  20.855  0.00  0.00    +0.000 OA
BRANCH  23  24
ATOM     24  C   UNL     1       0.723   8.918  21.926  0.00  0.00    +0.000 C 
BRANCH  24  25
ATOM     25  C   UNL     1      -0.228  10.086  21.905  0.00  0.00    +0.000 A 
ATOM     26  C   UNL     1      -0.484  10.831  20.758  0.00  0.00    +0.000 A 
ATOM     27  C   UNL     1      -1.356  11.924  20.814  0.00  0.00    +0.000 A 
ATOM     28  C   UNL     1      -1.981  12.269  22.012  0.00  0.00    +0.000 A 
ATOM     29  C   UNL     1      -1.753  11.514  23.160  0.00  0.00    +0.000 A 
ATOM     30  C   UNL     1      -0.887  10.425  23.103  0.00  0.00    +0.000 A 
ENDBRANCH  24  25
ENDBRANCH  23  24
ENDBRANCH  10  23
TORSDOF 7
ENDMDL
MODEL 2
REMARK VINA RESULT:      -8.6      1.736      2.395
REMARK  Name = 
REMARK  8 active torsions:
REMARK  status: ('A' for Active; 'I' for Inactive)
REMARK    1  A    between atoms: C_1  and  O_2
REMARK    2  A    between atoms: O_2  and  C_3
REMARK    3  A    between atoms: C_6  and  C_7
REMARK    4  A    between atoms: C_7  and  C_9
REMARK    5  A    between atoms: C_14  and  O_15
REMARK    6  A    between atoms: C_21  and  O_22
REMARK    7  A    between atoms: O_22  and  C_23
REMARK    8  A    between atoms: C_23  and  C_24
REMARK                            x       y       z     vdW  Elec       q    Type
REMARK                         _______ _______ _______ _____ _____    ______ ____
ROOT
ATOM      1  C   UNL     1       2.230   7.092  19.445  0.00  0.00    +0.000 A 
ATOM      2  C   UNL     1       3.242   6.291  18.896  0.00  0.00    +0.000 A 
ATOM      3  C   UNL     1       3.499   4.973  19.356  0.00  0.00    +0.000 A 
ATOM      4  C   UNL     1       4.506   4.087  18.904  0.00  0.00    +0.000 A 
ATOM      5  N   UNL     1       4.712   2.842  19.430  0.00  0.00    +0.000 NA
ATOM      6  C   UNL     1       3.854   2.407  20.365  0.00  0.00    +0.000 A 
ATOM      7  C   UNL     1       2.819   3.169  20.854  0.00  0.00    +0.000 A 
ATOM      8  C   UNL     1       2.656   4.468  20.367  0.00  0.00    +0.000 A 
ATOM      9  C   UNL     1       1.658   5.272  20.920  0.00  0.00    +0.000 A 
ATOM     10  C   UNL     1       1.489   6.606  20.529  0.00  0.00    +0.000 A 
ENDROOT
BRANCH   1  12
ATOM     11  C   UNL     1       2.433   8.672  17.683  0.00  0.00    +0.000 C 
ATOM     12  O   UNL     1       1.941   8.354  18.984  0.00  0.00    +0.000 OA
ENDBRANCH   1  12
BRANCH   4  13
ATOM     13  C   UNL     1       5.473   4.461  17.807  0.00  0.00    +0.000 C 
ATOM     14  O   UNL     1       5.490   3.877  16.730  0.00  0.00    +0.000 OA
BRANCH  13  15
ATOM     15  C   UNL     1       6.366   5.631  17.978  0.00  0.00    +0.000 A 
ATOM     16  C   UNL     1       7.248   5.615  19.066  0.00  0.00    +0.000 A 
ATOM     17  C   UNL     1       8.206   6.619  19.206  0.00  0.00    +0.000 A 
ATOM     18  C   UNL     1       8.286   7.641  18.260  0.00  0.00    +0.000 A 
ATOM     19  C   UNL     1       7.372   7.696  17.207  0.00  0.00    +0.000 A 
ATOM     20  C   UNL     1       6.394   6.711  17.088  0.00  0.00    +0.000 A 
BRANCH  20  21
ATOM     21  O   UNL     1       5.440   6.840  16.115  0.00  0.00    +0.000 OA
ATOM     22  H   UNL     1       4.574   6.896  16.551  0.00  0.00    +0.000 HD
ENDBRANCH  20  21
ENDBRANCH  13  15
ENDBRANCH   4  13
BRANCH  10  23
ATOM     23  O   UNL     1       0.632   7.464  21.186  0.00  0.00    +0.000 OA
BRANCH  23  24
ATOM     24  C   UNL     1       1.297   8.548  21.855  0.00  0.00    +0.000 C 
BRANCH  24  25
ATOM     25  C   UNL     1       0.462   9.788  22.051  0.00  0.00    +0.000 A 
ATOM     26  C   UNL     1      -0.506   9.898  23.045  0.00  0.00    +0.000 A 
ATOM     27  C   UNL     1      -1.267  11.067  23.152  0.00  0.00    +0.000 A 
ATOM     28  C   UNL     1      -1.058  12.130  22.274  0.00  0.00    +0.000 A 
ATOM     29  C   UNL     1      -0.074  12.041  21.293  0.00  0.00    +0.000 A 
ATOM     30  C   UNL     1       0.685  10.879  21.187  0.00  0.00    +0.000 A 
ENDBRANCH  24  25
ENDBRANCH  23  24
ENDBRANCH  10  23
TORSDOF 7
ENDMDL
MODEL 3
REMARK VINA RESULT:      -8.3      1.523      2.109
REMARK  Name = 
REMARK  8 active torsions:
REMARK  status: ('A' for Active; 'I' for Inactive)
REMARK    1  A    between atoms: C_1  and  O_2
REMARK    2  A    between atoms: O_2  and  C_3
REMARK    3  A    between atoms: C_6  and  C_7
REMARK    4  A    between atoms: C_7  and  C_9
REMARK    5  A    between atoms: C_14  and  O_15
REMARK    6  A    between atoms: C_21  and  O_22
REMARK    7  A    between atoms: O_22  and  C_23
REMARK    8  A    between atoms: C_23  and  C_24
REMARK                            x       y       z     vdW  Elec       q    Type
REMARK                         _______ _______ _______ _____ _____    ______ ____
ROOT
ATOM      1  C   UNL     1       2.395   7.223  19.603  0.00  0.00    +0.000 A 
ATOM      2  C   UNL     1       3.502   6.435  19.257  0.00  0.00    +0.000 A 
ATOM      3  C   UNL     1       3.628   5.082  19.668  0.00  0.00    +0.000 A 
ATOM      4  C   UNL     1       4.707   4.203  19.408  0.00  0.00    +0.000 A 
ATOM      5  N   UNL     1       4.767   2.920  19.876  0.00  0.00    +0.000 NA
ATOM      6  C   UNL     1       3.706   2.444  20.543  0.00  0.00    +0.000 A 
ATOM      7  C   UNL     1       2.591   3.199  20.823  0.00  0.00    +0.000 A 
ATOM      8  C   UNL     1       2.562   4.531  20.408  0.00  0.00    +0.000 A 
ATOM      9  C   UNL     1       1.467   5.322  20.762  0.00  0.00    +0.000 A 
ATOM     10  C   UNL     1       1.410   6.684  20.440  0.00  0.00    +0.000 A 
ENDROOT
BRANCH   1  12
ATOM     11  C   UNL     1       2.032   8.700  17.779  0.00  0.00    +0.000 C 
ATOM     12  O   UNL     1       2.237   8.520  19.180  0.00  0.00    +0.000 OA
ENDBRANCH   1  12
BRANCH   4  13
ATOM     13  C   UNL     1       5.913   4.625  18.605  0.00  0.00    +0.000 C 
ATOM     14  O   UNL     1       6.936   5.037  19.138  0.00  0.00    +0.000 OA
BRANCH  13  15
ATOM     15  C   UNL     1       5.917   4.449  17.134  0.00  0.00    +0.000 A 
ATOM     16  C   UNL     1       4.676   4.400  16.487  0.00  0.00    +0.000 A 
ATOM     17  C   UNL     1       4.612   4.372  15.094  0.00  0.00    +0.000 A 
ATOM     18  C   UNL     1       5.787   4.394  14.344  0.00  0.00    +0.000 A 
ATOM     19  C   UNL     1       7.028   4.383  14.981  0.00  0.00    +0.000 A 
ATOM     20  C   UNL     1       7.090   4.376  16.374  0.00  0.00    +0.000 A 
BRANCH  20  21
ATOM     21  O   UNL     1       8.310   4.255  16.981  0.00  0.00    +0.000 OA
ATOM     22  H   UNL     1       8.918   4.883  16.557  0.00  0.00    +0.000 HD
ENDBRANCH  20  21
ENDBRANCH  13  15
ENDBRANCH   4  13
BRANCH  10  23
ATOM     23  O   UNL     1       0.428   7.518  20.933  0.00  0.00    +0.000 OA
BRANCH  23  24
ATOM     24  C   UNL     1       0.904   8.466  21.901  0.00  0.00    +0.000 C 
BRANCH  24  25
ATOM     25  C   UNL     1       0.088   9.728  22.016  0.00  0.00    +0.000 A 
ATOM     26  C   UNL     1      -0.693  10.024  23.130  0.00  0.00    +0.000 A 
ATOM     27  C   UNL     1      -1.452  11.199  23.159  0.00  0.00    +0.000 A 
ATOM     28  C   UNL     1      -1.425  12.085  22.083  0.00  0.00    +0.000 A 
ATOM     29  C   UNL     1      -0.626  11.812  20.975  0.00  0.00    +0.000 A 
ATOM     30  C   UNL     1       0.130  10.644  20.947  0.00  0.00    +0.000 A 
ENDBRANCH  24  25
ENDBRANCH  23  24
ENDBRANCH  10  23
TORSDOF 7
ENDMDL
MODEL 4
REMARK VINA RESULT:      -8.3      2.397      8.340
REMARK  Name = 
REMARK  8 active torsions:
REMARK  status: ('A' for Active; 'I' for Inactive)
REMARK    1  A    between atoms: C_1  and  O_2
REMARK    2  A    between atoms: O_2  and  C_3
REMARK    3  A    between atoms: C_6  and  C_7
REMARK    4  A    between atoms: C_7  and  C_9
REMARK    5  A    between atoms: C_14  and  O_15
REMARK    6  A    between atoms: C_21  and  O_22
REMARK    7  A    between atoms: O_22  and  C_23
REMARK    8  A    between atoms: C_23  and  C_24
REMARK                            x       y       z     vdW  Elec       q    Type
REMARK                         _______ _______ _______ _____ _____    ______ ____
ROOT
ATOM      1  C   UNL     1       6.193   5.451  17.660  0.00  0.00    +0.000 A 
ATOM      2  C   UNL     1       5.029   5.666  18.411  0.00  0.00    +0.000 A 
ATOM      3  C   UNL     1       3.856   4.885  18.233  0.00  0.00    +0.000 A 
ATOM      4  C   UNL     1       2.620   5.029  18.907  0.00  0.00    +0.000 A 
ATOM      5  N   UNL     1       1.522   4.256  18.647  0.00  0.00    +0.000 NA
ATOM      6  C   UNL     1       1.655   3.252  17.768  0.00  0.00    +0.000 A 
ATOM      7  C   UNL     1       2.820   3.000  17.081  0.00  0.00    +0.000 A 
ATOM      8  C   UNL     1       3.917   3.836  17.294  0.00  0.00    +0.000 A 
ATOM      9  C   UNL     1       5.073   3.632  16.538  0.00  0.00    +0.000 A 
ATOM     10  C   UNL     1       6.182   4.480  16.650  0.00  0.00    +0.000 A 
ENDROOT
BRANCH   1  12
ATOM     11  C   UNL     1       7.304   7.540  17.453  0.00  0.00    +0.000 C 
ATOM     12  O   UNL     1       7.349   6.169  17.847  0.00  0.00    +0.000 OA
ENDBRANCH   1  12
BRANCH   4  13
ATOM     13  C   UNL     1       2.397   6.082  19.964  0.00  0.00    +0.000 C 
ATOM     14  O   UNL     1       2.578   5.856  21.155  0.00  0.00    +0.000 OA
BRANCH  13  15
ATOM     15  C   UNL     1       2.047   7.466  19.563  0.00  0.00    +0.000 A 
ATOM     16  C   UNL     1       2.235   7.814  18.220  0.00  0.00    +0.000 A 
ATOM     17  C   UNL     1       1.800   9.054  17.750  0.00  0.00    +0.000 A 
ATOM     18  C   UNL     1       1.176   9.947  18.620  0.00  0.00    +0.000 A 
ATOM     19  C   UNL     1       1.039   9.631  19.972  0.00  0.00    +0.000 A 
ATOM     20  C   UNL     1       1.505   8.406  20.447  0.00  0.00    +0.000 A 
BRANCH  20  21
ATOM     21  O   UNL     1       1.462   8.157  21.792  0.00  0.00    +0.000 OA
ATOM     22  H   UNL     1       2.010   7.375  21.969  0.00  0.00    +0.000 HD
ENDBRANCH  20  21
ENDBRANCH  13  15
ENDBRANCH   4  13
BRANCH  10  23
ATOM     23  O   UNL     1       7.258   4.405  15.790  0.00  0.00    +0.000 OA
BRANCH  23  24
ATOM     24  C   UNL     1       7.049   5.080  14.539  0.00  0.00    +0.000 C 
BRANCH  24  25
ATOM     25  C   UNL     1       6.466   4.228  13.441  0.00  0.00    +0.000 A 
ATOM     26  C   UNL     1       5.096   4.046  13.272  0.00  0.00    +0.000 A 
ATOM     27  C   UNL     1       4.622   3.217  12.250  0.00  0.00    +0.000 A 
ATOM     28  C   UNL     1       5.513   2.576  11.389  0.00  0.00    +0.000 A 
ATOM     29  C   UNL     1       6.884   2.772  11.533  0.00  0.00    +0.000 A 
ATOM     30  C   UNL     1       7.356   3.599  12.548  0.00  0.00    +0.000 A 
ENDBRANCH  24  25
ENDBRANCH  23  24
ENDBRANCH  10  23
TORSDOF 7
ENDMDL
MODEL 5
REMARK VINA RESULT:      -8.3      1.135      1.391
REMARK  Name = 
REMARK  8 active torsions:
REMARK  status: ('A' for Active; 'I' for Inactive)
REMARK    1  A    between atoms: C_1  and  O_2
REMARK    2  A    between atoms: O_2  and  C_3
REMARK    3  A    between atoms: C_6  and  C_7
REMARK    4  A    between atoms: C_7  and  C_9
REMARK    5  A    between atoms: C_14  and  O_15
REMARK    6  A    between atoms: C_21  and  O_22
REMARK    7  A    between atoms: O_22  and  C_23
REMARK    8  A    between atoms: C_23  and  C_24
REMARK                            x       y       z     vdW  Elec       q    Type
REMARK                         _______ _______ _______ _____ _____    ______ ____
ROOT
ATOM      1  C   UNL     1       2.275   7.468  19.192  0.00  0.00    +0.000 A 
ATOM      2  C   UNL     1       2.590   6.252  18.570  0.00  0.00    +0.000 A 
ATOM      3  C   UNL     1       2.318   4.997  19.176  0.00  0.00    +0.000 A 
ATOM      4  C   UNL     1       2.617   3.713  18.661  0.00  0.00    +0.000 A 
ATOM      5  N   UNL     1       2.356   2.549  19.331  0.00  0.00    +0.000 NA
ATOM      6  C   UNL     1       1.702   2.631  20.498  0.00  0.00    +0.000 A 
ATOM      7  C   UNL     1       1.334   3.823  21.076  0.00  0.00    +0.000 A 
ATOM      8  C   UNL     1       1.666   5.013  20.425  0.00  0.00    +0.000 A 
ATOM      9  C   UNL     1       1.366   6.226  21.049  0.00  0.00    +0.000 A 
ATOM     10  C   UNL     1       1.738   7.453  20.485  0.00  0.00    +0.000 A 
ENDROOT
BRANCH   1  12
ATOM     11  C   UNL     1       1.587   9.051  17.559  0.00  0.00    +0.000 C 
ATOM     12  O   UNL     1       2.493   8.690  18.602  0.00  0.00    +0.000 OA
ENDBRANCH   1  12
BRANCH   4  13
ATOM     13  C   UNL     1       3.287   3.518  17.323  0.00  0.00    +0.000 C 
ATOM     14  O   UNL     1       2.707   3.000  16.376  0.00  0.00    +0.000 OA
BRANCH  13  15
ATOM     15  C   UNL     1       4.649   4.055  17.096  0.00  0.00    +0.000 A 
ATOM     16  C   UNL     1       4.916   4.628  15.846  0.00  0.00    +0.000 A 
ATOM     17  C   UNL     1       6.133   5.270  15.614  0.00  0.00    +0.000 A 
ATOM     18  C   UNL     1       7.084   5.343  16.631  0.00  0.00    +0.000 A 
ATOM     19  C   UNL     1       6.850   4.723  17.859  0.00  0.00    +0.000 A 
ATOM     20  C   UNL     1       5.647   4.052  18.076  0.00  0.00    +0.000 A 
BRANCH  20  21
ATOM     21  O   UNL     1       5.479   3.359  19.244  0.00  0.00    +0.000 OA
ATOM     22  H   UNL     1       5.756   2.441  19.088  0.00  0.00    +0.000 HD
ENDBRANCH  20  21
ENDBRANCH  13  15
ENDBRANCH   4  13
BRANCH  10  23
ATOM     23  O   UNL     1       1.611   8.646  21.166  0.00  0.00    +0.000 OA
BRANCH  23  24
ATOM     24  C   UNL     1       0.265   9.145  21.216  0.00  0.00    +0.000 C 
BRANCH  24  25
ATOM     25  C   UNL     1       0.016  10.397  20.415  0.00  0.00    +0.000 A 
ATOM     26  C   UNL     1       0.840  11.517  20.486  0.00  0.00    +0.000 A 
ATOM     27  C   UNL     1       0.534  12.658  19.738  0.00  0.00    +0.000 A 
ATOM     28  C   UNL     1      -0.588  12.682  18.911  0.00  0.00    +0.000 A 
ATOM     29  C   UNL     1      -1.405  11.559  18.812  0.00  0.00    +0.000 A 
ATOM     30  C   UNL     1      -1.100  10.422  19.554  0.00  0.00    +0.000 A 
ENDBRANCH  24  25
ENDBRANCH  23  24
ENDBRANCH  10  23
TORSDOF 7
ENDMDL
MODEL 6
REMARK VINA RESULT:      -8.1      2.643      8.731
REMARK  Name = 
REMARK  8 active torsions:
REMARK  status: ('A' for Active; 'I' for Inactive)
REMARK    1  A    between atoms: C_1  and  O_2
REMARK    2  A    between atoms: O_2  and  C_3
REMARK    3  A    between atoms: C_6  and  C_7
REMARK    4  A    between atoms: C_7  and  C_9
REMARK    5  A    between atoms: C_14  and  O_15
REMARK    6  A    between atoms: C_21  and  O_22
REMARK    7  A    between atoms: O_22  and  C_23
REMARK    8  A    between atoms: C_23  and  C_24
REMARK                            x       y       z     vdW  Elec       q    Type
REMARK                         _______ _______ _______ _____ _____    ______ ____
ROOT
ATOM      1  C   UNL     1       6.413   5.662  16.825  0.00  0.00    +0.000 A 
ATOM      2  C   UNL     1       5.347   5.823  17.722  0.00  0.00    +0.000 A 
ATOM      3  C   UNL     1       4.207   4.976  17.705  0.00  0.00    +0.000 A 
ATOM      4  C   UNL     1       3.063   5.061  18.534  0.00  0.00    +0.000 A 
ATOM      5  N   UNL     1       1.986   4.225  18.426  0.00  0.00    +0.000 NA
ATOM      6  C   UNL     1       2.060   3.217  17.545  0.00  0.00    +0.000 A 
ATOM      7  C   UNL     1       3.137   3.020  16.712  0.00  0.00    +0.000 A 
ATOM      8  C   UNL     1       4.204   3.919  16.773  0.00  0.00    +0.000 A 
ATOM      9  C   UNL     1       5.261   3.768  15.873  0.00  0.00    +0.000 A 
ATOM     10  C   UNL     1       6.325   4.678  15.833  0.00  0.00    +0.000 A 
ENDROOT
BRANCH   1  12
ATOM     11  C   UNL     1       7.815   7.102  18.092  0.00  0.00    +0.000 C 
ATOM     12  O   UNL     1       7.541   6.446  16.854  0.00  0.00    +0.000 OA
ENDBRANCH   1  12
BRANCH   4  13
ATOM     13  C   UNL     1       2.921   6.117  19.603  0.00  0.00    +0.000 C 
ATOM     14  O   UNL     1       3.364   5.958  20.735  0.00  0.00    +0.000 OA
BRANCH  13  15
ATOM     15  C   UNL     1       2.321   7.429  19.268  0.00  0.00    +0.000 A 
ATOM     16  C   UNL     1       2.415   7.860  17.938  0.00  0.00    +0.000 A 
ATOM     17  C   UNL     1       1.756   9.020  17.529  0.00  0.00    +0.000 A 
ATOM     18  C   UNL     1       1.001   9.750  18.446  0.00  0.00    +0.000 A 
ATOM     19  C   UNL     1       0.951   9.360  19.785  0.00  0.00    +0.000 A 
ATOM     20  C   UNL     1       1.638   8.220  20.199  0.00  0.00    +0.000 A 
BRANCH  20  21
ATOM     21  O   UNL     1       1.668   7.914  21.532  0.00  0.00    +0.000 OA
ATOM     22  H   UNL     1       2.589   7.718  21.773  0.00  0.00    +0.000 HD
ENDBRANCH  20  21
ENDBRANCH  13  15
ENDBRANCH   4  13
BRANCH  10  23
ATOM     23  O   UNL     1       7.282   4.650  14.839  0.00  0.00    +0.000 OA
BRANCH  23  24
ATOM     24  C   UNL     1       6.776   4.985  13.537  0.00  0.00    +0.000 C 
BRANCH  24  25
ATOM     25  C   UNL     1       6.521   3.811  12.627  0.00  0.00    +0.000 A 
ATOM     26  C   UNL     1       7.545   3.068  12.047  0.00  0.00    +0.000 A 
ATOM     27  C   UNL     1       7.238   2.009  11.186  0.00  0.00    +0.000 A 
ATOM     28  C   UNL     1       5.910   1.682  10.911  0.00  0.00    +0.000 A 
ATOM     29  C   UNL     1       4.878   2.402  11.507  0.00  0.00    +0.000 A 
ATOM     30  C   UNL     1       5.183   3.455  12.365  0.00  0.00    +0.000 A 
ENDBRANCH  24  25
ENDBRANCH  23  24
ENDBRANCH  10  23
TORSDOF 7
ENDMDL
MODEL 7
REMARK VINA RESULT:      -8.0      1.590      2.093
REMARK  Name = 
REMARK  8 active torsions:
REMARK  status: ('A' for Active; 'I' for Inactive)
REMARK    1  A    between atoms: C_1  and  O_2
REMARK    2  A    between atoms: O_2  and  C_3
REMARK    3  A    between atoms: C_6  and  C_7
REMARK    4  A    between atoms: C_7  and  C_9
REMARK    5  A    between atoms: C_14  and  O_15
REMARK    6  A    between atoms: C_21  and  O_22
REMARK    7  A    between atoms: O_22  and  C_23
REMARK    8  A    between atoms: C_23  and  C_24
REMARK                            x       y       z     vdW  Elec       q    Type
REMARK                         _______ _______ _______ _____ _____    ______ ____
ROOT
ATOM      1  C   UNL     1       2.446   7.105  19.505  0.00  0.00    +0.000 A 
ATOM      2  C   UNL     1       3.589   6.376  19.147  0.00  0.00    +0.000 A 
ATOM      3  C   UNL     1       3.787   5.030  19.552  0.00  0.00    +0.000 A 
ATOM      4  C   UNL     1       4.908   4.209  19.280  0.00  0.00    +0.000 A 
ATOM      5  N   UNL     1       5.038   2.929  19.743  0.00  0.00    +0.000 NA
ATOM      6  C   UNL     1       4.008   2.397  20.417  0.00  0.00    +0.000 A 
ATOM      7  C   UNL     1       2.858   3.093  20.709  0.00  0.00    +0.000 A 
ATOM      8  C   UNL     1       2.757   4.423  20.299  0.00  0.00    +0.000 A 
ATOM      9  C   UNL     1       1.626   5.156  20.665  0.00  0.00    +0.000 A 
ATOM     10  C   UNL     1       1.497   6.514  20.348  0.00  0.00    +0.000 A 
ENDROOT
BRANCH   1  12
ATOM     11  C   UNL     1       2.289   8.617  17.679  0.00  0.00    +0.000 C 
ATOM     12  O   UNL     1       2.218   8.394  19.088  0.00  0.00    +0.000 OA
ENDBRANCH   1  12
BRANCH   4  13
ATOM     13  C   UNL     1       6.084   4.695  18.469  0.00  0.00    +0.000 C 
ATOM     14  O   UNL     1       7.112   5.103  18.996  0.00  0.00    +0.000 OA
BRANCH  13  15
ATOM     15  C   UNL     1       6.053   4.590  16.991  0.00  0.00    +0.000 A 
ATOM     16  C   UNL     1       5.266   3.575  16.433  0.00  0.00    +0.000 A 
ATOM     17  C   UNL     1       5.087   3.506  15.052  0.00  0.00    +0.000 A 
ATOM     18  C   UNL     1       5.693   4.451  14.224  0.00  0.00    +0.000 A 
ATOM     19  C   UNL     1       6.527   5.429  14.768  0.00  0.00    +0.000 A 
ATOM     20  C   UNL     1       6.732   5.475  16.146  0.00  0.00    +0.000 A 
BRANCH  20  21
ATOM     21  O   UNL     1       7.636   6.369  16.650  0.00  0.00    +0.000 OA
ATOM     22  H   UNL     1       7.998   6.879  15.906  0.00  0.00    +0.000 HD
ENDBRANCH  20  21
ENDBRANCH  13  15
ENDBRANCH   4  13
BRANCH  10  23
ATOM     23  O   UNL     1       0.477   7.294  20.852  0.00  0.00    +0.000 OA
BRANCH  23  24
ATOM     24  C   UNL     1       0.922   8.312  21.764  0.00  0.00    +0.000 C 
BRANCH  24  25
ATOM     25  C   UNL     1       0.069   9.554  21.803  0.00  0.00    +0.000 A 
ATOM     26  C   UNL     1      -0.160  10.349  20.684  0.00  0.00    +0.000 A 
ATOM     27  C   UNL     1      -0.937  11.507  20.797  0.00  0.00    +0.000 A 
ATOM     28  C   UNL     1      -1.495  11.868  22.023  0.00  0.00    +0.000 A 
ATOM     29  C   UNL     1      -1.294  11.065  23.143  0.00  0.00    +0.000 A 
ATOM     30  C   UNL     1      -0.523   9.912  23.031  0.00  0.00    +0.000 A 
ENDBRANCH  24  25
ENDBRANCH  23  24
ENDBRANCH  10  23
TORSDOF 7
ENDMDL
MODEL 8
REMARK VINA RESULT:      -8.0      3.264      8.613
REMARK  Name = 
REMARK  8 active torsions:
REMARK  status: ('A' for Active; 'I' for Inactive)
REMARK    1  A    between atoms: C_1  and  O_2
REMARK    2  A    between atoms: O_2  and  C_3
REMARK    3  A    between atoms: C_6  and  C_7
REMARK    4  A    between atoms: C_7  and  C_9
REMARK    5  A    between atoms: C_14  and  O_15
REMARK    6  A    between atoms: C_21  and  O_22
REMARK    7  A    between atoms: O_22  and  C_23
REMARK    8  A    between atoms: C_23  and  C_24
REMARK                            x       y       z     vdW  Elec       q    Type
REMARK                         _______ _______ _______ _____ _____    ______ ____
ROOT
ATOM      1  C   UNL     1       1.486   8.493  19.088  0.00  0.00    +0.000 A 
ATOM      2  C   UNL     1       0.673   9.635  19.041  0.00  0.00    +0.000 A 
ATOM      3  C   UNL     1       0.108  10.212  20.208  0.00  0.00    +0.000 A 
ATOM      4  C   UNL     1      -0.748  11.338  20.280  0.00  0.00    +0.000 A 
ATOM      5  N   UNL     1      -1.283  11.808  21.448  0.00  0.00    +0.000 NA
ATOM      6  C   UNL     1      -0.904  11.222  22.593  0.00  0.00    +0.000 A 
ATOM      7  C   UNL     1      -0.053  10.143  22.642  0.00  0.00    +0.000 A 
ATOM      8  C   UNL     1       0.435   9.619  21.444  0.00  0.00    +0.000 A 
ATOM      9  C   UNL     1       1.234   8.474  21.487  0.00  0.00    +0.000 A 
ATOM     10  C   UNL     1       1.694   7.856  20.318  0.00  0.00    +0.000 A 
ENDROOT
BRANCH   1  12
ATOM     11  C   UNL     1       3.350   8.478  17.616  0.00  0.00    +0.000 C 
ATOM     12  O   UNL     1       2.075   7.946  17.974  0.00  0.00    +0.000 OA
ENDBRANCH   1  12
BRANCH   4  13
ATOM     13  C   UNL     1      -1.171  12.107  19.053  0.00  0.00    +0.000 C 
ATOM     14  O   UNL     1      -0.473  12.989  18.567  0.00  0.00    +0.000 OA
BRANCH  13  15
ATOM     15  C   UNL     1      -2.415  11.732  18.341  0.00  0.00    +0.000 A 
ATOM     16  C   UNL     1      -2.284  10.970  17.173  0.00  0.00    +0.000 A 
ATOM     17  C   UNL     1      -3.418  10.471  16.531  0.00  0.00    +0.000 A 
ATOM     18  C   UNL     1      -4.684  10.731  17.055  0.00  0.00    +0.000 A 
ATOM     19  C   UNL     1      -4.825  11.538  18.185  0.00  0.00    +0.000 A 
ATOM     20  C   UNL     1      -3.693  12.065  18.804  0.00  0.00    +0.000 A 
BRANCH  20  21
ATOM     21  O   UNL     1      -3.855  12.941  19.842  0.00  0.00    +0.000 OA
ATOM     22  H   UNL     1      -3.306  12.632  20.582  0.00  0.00    +0.000 HD
ENDBRANCH  20  21
ENDBRANCH  13  15
ENDBRANCH   4  13
BRANCH  10  23
ATOM     23  O   UNL     1       2.329   6.632  20.332  0.00  0.00    +0.000 OA
BRANCH  23  24
ATOM     24  C   UNL     1       1.442   5.519  20.530  0.00  0.00    +0.000 C 
BRANCH  24  25
ATOM     25  C   UNL     1       1.657   4.354  19.598  0.00  0.00    +0.000 A 
ATOM     26  C   UNL     1       1.112   3.094  19.825  0.00  0.00    +0.000 A 
ATOM     27  C   UNL     1       1.377   2.048  18.936  0.00  0.00    +0.000 A 
ATOM     28  C   UNL     1       2.178   2.258  17.814  0.00  0.00    +0.000 A 
ATOM     29  C   UNL     1       2.707   3.522  17.563  0.00  0.00    +0.000 A 
ATOM     30  C   UNL     1       2.442   4.564  18.447  0.00  0.00    +0.000 A 
ENDBRANCH  24  25
ENDBRANCH  23  24
ENDBRANCH  10  23
TORSDOF 7
ENDMDL
MODEL 9
REMARK VINA RESULT:      -8.0      1.640      1.880
REMARK  Name = 
REMARK  8 active torsions:
REMARK  status: ('A' for Active; 'I' for Inactive)
REMARK    1  A    between atoms: C_1  and  O_2
REMARK    2  A    between atoms: O_2  and  C_3
REMARK    3  A    between atoms: C_6  and  C_7
REMARK    4  A    between atoms: C_7  and  C_9
REMARK    5  A    between atoms: C_14  and  O_15
REMARK    6  A    between atoms: C_21  and  O_22
REMARK    7  A    between atoms: O_22  and  C_23
REMARK    8  A    between atoms: C_23  and  C_24
REMARK                            x       y       z     vdW  Elec       q    Type
REMARK                         _______ _______ _______ _____ _____    ______ ____
ROOT
ATOM      1  C   UNL     1       1.997   7.508  19.450  0.00  0.00    +0.000 A 
ATOM      2  C   UNL     1       2.951   6.763  18.742  0.00  0.00    +0.000 A 
ATOM      3  C   UNL     1       3.251   5.413  19.064  0.00  0.00    +0.000 A 
ATOM      4  C   UNL     1       4.211   4.577  18.445  0.00  0.00    +0.000 A 
ATOM      5  N   UNL     1       4.465   3.293  18.843  0.00  0.00    +0.000 NA
ATOM      6  C   UNL     1       3.702   2.775  19.816  0.00  0.00    +0.000 A 
ATOM      7  C   UNL     1       2.719   3.487  20.464  0.00  0.00    +0.000 A 
ATOM      8  C   UNL     1       2.510   4.820  20.105  0.00  0.00    +0.000 A 
ATOM      9  C   UNL     1       1.569   5.567  20.817  0.00  0.00    +0.000 A 
ATOM     10  C   UNL     1       1.364   6.928  20.556  0.00  0.00    +0.000 A 
ENDROOT
BRANCH   1  12
ATOM     11  C   UNL     1       1.759   9.143  17.743  0.00  0.00    +0.000 C 
ATOM     12  O   UNL     1       1.665   8.801  19.126  0.00  0.00    +0.000 OA
ENDBRANCH   1  12
BRANCH   4  13
ATOM     13  C   UNL     1       5.067   5.048  17.295  0.00  0.00    +0.000 C 
ATOM     14  O   UNL     1       4.806   4.761  16.132  0.00  0.00    +0.000 OA
BRANCH  13  15
ATOM     15  C   UNL     1       6.201   5.967  17.549  0.00  0.00    +0.000 A 
ATOM     16  C   UNL     1       6.097   7.272  17.050  0.00  0.00    +0.000 A 
ATOM     17  C   UNL     1       7.065   8.224  17.369  0.00  0.00    +0.000 A 
ATOM     18  C   UNL     1       8.139   7.875  18.188  0.00  0.00    +0.000 A 
ATOM     19  C   UNL     1       8.281   6.562  18.639  0.00  0.00    +0.000 A 
ATOM     20  C   UNL     1       7.330   5.604  18.291  0.00  0.00    +0.000 A 
BRANCH  20  21
ATOM     21  O   UNL     1       7.542   4.301  18.650  0.00  0.00    +0.000 OA
ATOM     22  H   UNL     1       8.103   4.298  19.443  0.00  0.00    +0.000 HD
ENDBRANCH  20  21
ENDBRANCH  13  15
ENDBRANCH   4  13
BRANCH  10  23
ATOM     23  O   UNL     1       0.575   7.722  21.361  0.00  0.00    +0.000 OA
BRANCH  23  24
ATOM     24  C   UNL     1       1.259   8.864  21.901  0.00  0.00    +0.000 C 
BRANCH  24  25
ATOM     25  C   UNL     1       0.415  10.102  22.058  0.00  0.00    +0.000 A 
ATOM     26  C   UNL     1       0.635  11.265  21.326  0.00  0.00    +0.000 A 
ATOM     27  C   UNL     1      -0.167  12.390  21.543  0.00  0.00    +0.000 A 
ATOM     28  C   UNL     1      -1.197  12.354  22.483  0.00  0.00    +0.000 A 
ATOM     29  C   UNL     1      -1.443  11.187  23.202  0.00  0.00    +0.000 A 
ATOM     30  C   UNL     1      -0.646  10.067  22.985  0.00  0.00    +0.000 A 
ENDBRANCH  24  25
ENDBRANCH  23  24
ENDBRANCH  10  23
TORSDOF 7
ENDMDL
