MODEL 1
REMARK VINA RESULT:      -7.7      0.000      0.000
REMARK  Name = 
REMARK  7 active torsions:
REMARK  status: ('A' for Active; 'I' for Inactive)
REMARK    1  A    between atoms: C_1  and  C_2
REMARK    2  A    between atoms: C_2  and  C_3
REMARK    3  A    between atoms: C_3  and  C_4
REMARK    4  A    between atoms: C_3  and  N_18
REMARK    5  A    between atoms: N_6  and  C_7
REMARK    6  A    between atoms: N_12  and  C_13
REMARK    7  A    between atoms: C_13  and  C_14
REMARK                            x       y       z     vdW  Elec       q    Type
REMARK                         _______ _______ _______ _____ _____    ______ ____
ROOT
ATOM      1  C   UNL     1       4.366   5.974  18.025  0.00  0.00    +0.000 C 
ATOM      2  O   UNL     1       4.723   6.792  17.175  0.00  0.00    +0.000 OA
ATOM      3  N   UNL     1       3.387   6.202  18.993  0.00  0.00    +0.000 N 
ATOM      4  H   UNL     1       3.332   5.547  19.760  0.00  0.00    +0.000 HD
ENDROOT
BRANCH   3   5
ATOM      5  C   UNL     1       2.540   7.341  19.077  0.00  0.00    +0.000 A 
ATOM      6  C   UNL     1       2.347   8.208  17.946  0.00  0.00    +0.000 A 
ATOM      7  C   UNL     1       1.562   9.379  17.949  0.00  0.00    +0.000 A 
ATOM      8  C   UNL     1       0.997   9.590  19.193  0.00  0.00    +0.000 A 
ATOM      9  C   UNL     1       0.210  10.654  19.526  0.00  0.00    +0.000 A 
ATOM     10  N   UNL     1      -0.099  10.452  20.842  0.00  0.00    +0.000 N 
ATOM     11  N   UNL     1       0.420   9.317  21.370  0.00  0.00    +0.000 NA
ATOM     12  C   UNL     1       1.120   8.759  20.361  0.00  0.00    +0.000 A 
ATOM     13  C   UNL     1       1.891   7.577  20.320  0.00  0.00    +0.000 A 
BRANCH  10  14
ATOM     14  C   UNL     1      -0.928  11.326  21.652  0.00  0.00    +0.000 C 
ATOM     15  C   UNL     1      -1.096  10.819  23.076  0.00  0.00    +0.000 C 
ENDBRANCH  10  14
ENDBRANCH   3   5
BRANCH   1  16
ATOM     16  C   UNL     1       5.080   4.601  18.154  0.00  0.00    +0.000 C 
BRANCH  16  17
ATOM     17  N   UNL     1       4.058   3.538  18.190  0.00  0.00    +0.000 N 
ATOM     18  C   UNL     1       2.922   3.482  17.299  0.00  0.00    +0.000 C 
ATOM     19  C   UNL     1       1.918   2.607  18.021  0.00  0.00    +0.000 C 
ATOM     20  C   UNL     1       2.768   1.731  18.931  0.00  0.00    +0.000 C 
ATOM     21  C   UNL     1       3.986   2.583  19.190  0.00  0.00    +0.000 C 
ATOM     22  O   UNL     1       4.790   2.421  20.092  0.00  0.00    +0.000 OA
ENDBRANCH  16  17
BRANCH  16  24
ATOM     23  C   UNL     1       7.526   4.695  17.339  0.00  0.00    +0.000 C 
ATOM     24  C   UNL     1       6.081   4.365  17.010  0.00  0.00    +0.000 C 
ENDBRANCH  16  24
ENDBRANCH   1  16
TORSDOF 5
ENDMDL
MODEL 2
REMARK VINA RESULT:      -7.7      1.316      2.676
REMARK  Name = 
REMARK  7 active torsions:
REMARK  status: ('A' for Active; 'I' for Inactive)
REMARK    1  A    between atoms: C_1  and  C_2
REMARK    2  A    between atoms: C_2  and  C_3
REMARK    3  A    between atoms: C_3  and  C_4
REMARK    4  A    between atoms: C_3  and  N_18
REMARK    5  A    between atoms: N_6  and  C_7
REMARK    6  A    between atoms: N_12  and  C_13
REMARK    7  A    between atoms: C_13  and  C_14
REMARK                            x       y       z     vdW  Elec       q    Type
REMARK                         _______ _______ _______ _____ _____    ______ ____
ROOT
ATOM      1  C   UNL     1       2.899   4.906  18.191  0.00  0.00    +0.000 C 
ATOM      2  O   UNL     1       1.805   4.718  17.654  0.00  0.00    +0.000 OA
ATOM      3  N   UNL     1       3.322   6.117  18.741  0.00  0.00    +0.000 N 
ATOM      4  H   UNL     1       4.305   6.209  18.957  0.00  0.00    +0.000 HD
ENDROOT
BRANCH   3   5
ATOM      5  C   UNL     1       2.530   7.286  18.907  0.00  0.00    +0.000 A 
ATOM      6  C   UNL     1       2.376   8.236  17.840  0.00  0.00    +0.000 A 
ATOM      7  C   UNL     1       1.646   9.440  17.926  0.00  0.00    +0.000 A 
ATOM      8  C   UNL     1       1.093   9.590  19.185  0.00  0.00    +0.000 A 
ATOM      9  C   UNL     1       0.356  10.664  19.594  0.00  0.00    +0.000 A 
ATOM     10  N   UNL     1       0.039  10.386  20.894  0.00  0.00    +0.000 N 
ATOM     11  N   UNL     1       0.506   9.194  21.339  0.00  0.00    +0.000 NA
ATOM     12  C   UNL     1       1.178   8.676  20.292  0.00  0.00    +0.000 A 
ATOM     13  C   UNL     1       1.894   7.465  20.166  0.00  0.00    +0.000 A 
BRANCH  10  14
ATOM     14  C   UNL     1      -0.747  11.238  21.766  0.00  0.00    +0.000 C 
ATOM     15  C   UNL     1      -0.992  10.614  23.131  0.00  0.00    +0.000 C 
ENDBRANCH  10  14
ENDBRANCH   3   5
BRANCH   1  16
ATOM     16  C   UNL     1       3.975   3.788  18.211  0.00  0.00    +0.000 C 
BRANCH  16  17
ATOM     17  N   UNL     1       5.239   4.339  17.688  0.00  0.00    +0.000 N 
ATOM     18  C   UNL     1       5.666   4.210  16.313  0.00  0.00    +0.000 C 
ATOM     19  C   UNL     1       7.167   4.413  16.362  0.00  0.00    +0.000 C 
ATOM     20  C   UNL     1       7.391   5.257  17.610  0.00  0.00    +0.000 C 
ATOM     21  C   UNL     1       6.226   4.884  18.493  0.00  0.00    +0.000 C 
ATOM     22  O   UNL     1       6.150   5.079  19.694  0.00  0.00    +0.000 OA
ENDBRANCH  16  17
BRANCH  16  24
ATOM     23  C   UNL     1       2.919   2.627  20.258  0.00  0.00    +0.000 C 
ATOM     24  C   UNL     1       4.170   3.203  19.619  0.00  0.00    +0.000 C 
ENDBRANCH  16  24
ENDBRANCH   1  16
TORSDOF 5
ENDMDL
MODEL 3
REMARK VINA RESULT:      -7.5      1.411      2.902
REMARK  Name = 
REMARK  7 active torsions:
REMARK  status: ('A' for Active; 'I' for Inactive)
REMARK    1  A    between atoms: C_1  and  C_2
REMARK    2  A    between atoms: C_2  and  C_3
REMARK    3  A    between atoms: C_3  and  C_4
REMARK    4  A    between atoms: C_3  and  N_18
REMARK    5  A    between atoms: N_6  and  C_7
REMARK    6  A    between atoms: N_12  and  C_13
REMARK    7  A    between atoms: C_13  and  C_14
REMARK                            x       y       z     vdW  Elec       q    Type
REMARK                         _______ _______ _______ _____ _____    ______ ____
ROOT
ATOM      1  C   UNL     1       2.665   4.733  18.023  0.00  0.00    +0.000 C 
ATOM      2  O   UNL     1       1.545   4.658  17.513  0.00  0.00    +0.000 OA
ATOM      3  N   UNL     1       3.205   5.883  18.601  0.00  0.00    +0.000 N 
ATOM      4  H   UNL     1       4.198   5.884  18.790  0.00  0.00    +0.000 HD
ENDROOT
BRANCH   3   5
ATOM      5  C   UNL     1       2.519   7.107  18.832  0.00  0.00    +0.000 A 
ATOM      6  C   UNL     1       2.417   8.106  17.803  0.00  0.00    +0.000 A 
ATOM      7  C   UNL     1       1.795   9.363  17.953  0.00  0.00    +0.000 A 
ATOM      8  C   UNL     1       1.292   9.513  19.233  0.00  0.00    +0.000 A 
ATOM      9  C   UNL     1       0.662  10.628  19.701  0.00  0.00    +0.000 A 
ATOM     10  N   UNL     1       0.359  10.330  21.000  0.00  0.00    +0.000 N 
ATOM     11  N   UNL     1       0.735   9.088  21.390  0.00  0.00    +0.000 NA
ATOM     12  C   UNL     1       1.331   8.554  20.305  0.00  0.00    +0.000 A 
ATOM     13  C   UNL     1       1.937   7.293  20.115  0.00  0.00    +0.000 A 
BRANCH  10  14
ATOM     14  C   UNL     1      -0.327  11.213  21.925  0.00  0.00    +0.000 C 
ATOM     15  C   UNL     1      -0.958  10.467  23.090  0.00  0.00    +0.000 C 
ENDBRANCH  10  14
ENDBRANCH   3   5
BRANCH   1  16
ATOM     16  C   UNL     1       3.642   3.528  17.970  0.00  0.00    +0.000 C 
BRANCH  16  17
ATOM     17  N   UNL     1       5.018   4.041  17.833  0.00  0.00    +0.000 N 
ATOM     18  C   UNL     1       5.853   4.418  18.951  0.00  0.00    +0.000 C 
ATOM     19  C   UNL     1       6.886   5.351  18.354  0.00  0.00    +0.000 C 
ATOM     20  C   UNL     1       6.963   4.940  16.890  0.00  0.00    +0.000 C 
ATOM     21  C   UNL     1       5.590   4.378  16.617  0.00  0.00    +0.000 C 
ATOM     22  O   UNL     1       5.097   4.203  15.516  0.00  0.00    +0.000 OA
ENDBRANCH  16  17
BRANCH  16  24
ATOM     23  C   UNL     1       2.202   1.866  19.318  0.00  0.00    +0.000 C 
ATOM     24  C   UNL     1       3.511   2.628  19.210  0.00  0.00    +0.000 C 
ENDBRANCH  16  24
ENDBRANCH   1  16
TORSDOF 5
ENDMDL
MODEL 4
REMARK VINA RESULT:      -7.4      1.739      2.148
REMARK  Name = 
REMARK  7 active torsions:
REMARK  status: ('A' for Active; 'I' for Inactive)
REMARK    1  A    between atoms: C_1  and  C_2
REMARK    2  A    between atoms: C_2  and  C_3
REMARK    3  A    between atoms: C_3  and  C_4
REMARK    4  A    between atoms: C_3  and  N_18
REMARK    5  A    between atoms: N_6  and  C_7
REMARK    6  A    between atoms: N_12  and  C_13
REMARK    7  A    between atoms: C_13  and  C_14
REMARK                            x       y       z     vdW  Elec       q    Type
REMARK                         _______ _______ _______ _____ _____    ______ ____
ROOT
ATOM      1  C   UNL     1       2.835   6.795  19.144  0.00  0.00    +0.000 C 
ATOM      2  O   UNL     1       2.753   7.356  18.050  0.00  0.00    +0.000 OA
ATOM      3  N   UNL     1       2.292   7.281  20.335  0.00  0.00    +0.000 N 
ATOM      4  H   UNL     1       2.602   6.851  21.195  0.00  0.00    +0.000 HD
ENDROOT
BRANCH   3   5
ATOM      5  C   UNL     1       1.440   8.412  20.468  0.00  0.00    +0.000 A 
ATOM      6  C   UNL     1       0.982   9.136  19.314  0.00  0.00    +0.000 A 
ATOM      7  C   UNL     1       0.173  10.291  19.351  0.00  0.00    +0.000 A 
ATOM      8  C   UNL     1      -0.126  10.640  20.655  0.00  0.00    +0.000 A 
ATOM      9  C   UNL     1      -0.864  11.726  21.026  0.00  0.00    +0.000 A 
ATOM     10  N   UNL     1      -0.884  11.676  22.391  0.00  0.00    +0.000 N 
ATOM     11  N   UNL     1      -0.224  10.618  22.921  0.00  0.00    +0.000 NA
ATOM     12  C   UNL     1       0.269   9.954  21.856  0.00  0.00    +0.000 A 
ATOM     13  C   UNL     1       1.058   8.784  21.785  0.00  0.00    +0.000 A 
BRANCH  10  14
ATOM     14  C   UNL     1      -1.556  12.630  23.256  0.00  0.00    +0.000 C 
ATOM     15  C   UNL     1      -3.033  12.318  23.433  0.00  0.00    +0.000 C 
ENDBRANCH  10  14
ENDBRANCH   3   5
BRANCH   1  16
ATOM     16  C   UNL     1       3.670   5.496  19.310  0.00  0.00    +0.000 C 
BRANCH  16  17
ATOM     17  N   UNL     1       2.753   4.341  19.310  0.00  0.00    +0.000 N 
ATOM     18  C   UNL     1       2.284   3.684  18.111  0.00  0.00    +0.000 C 
ATOM     19  C   UNL     1       1.016   2.975  18.540  0.00  0.00    +0.000 C 
ATOM     20  C   UNL     1       1.199   2.747  20.035  0.00  0.00    +0.000 C 
ATOM     21  C   UNL     1       2.110   3.877  20.446  0.00  0.00    +0.000 C 
ATOM     22  O   UNL     1       2.287   4.272  21.586  0.00  0.00    +0.000 OA
ENDBRANCH  16  17
BRANCH  16  24
ATOM     23  C   UNL     1       6.097   4.886  18.685  0.00  0.00    +0.000 C 
ATOM     24  C   UNL     1       4.734   5.354  18.209  0.00  0.00    +0.000 C 
ENDBRANCH  16  24
ENDBRANCH   1  16
TORSDOF 5
ENDMDL
MODEL 5
REMARK VINA RESULT:      -7.4      2.625      8.187
REMARK  Name = 
REMARK  7 active torsions:
REMARK  status: ('A' for Active; 'I' for Inactive)
REMARK    1  A    between atoms: C_1  and  C_2
REMARK    2  A    between atoms: C_2  and  C_3
REMARK    3  A    between atoms: C_3  and  C_4
REMARK    4  A    between atoms: C_3  and  N_18
REMARK    5  A    between atoms: N_6  and  C_7
REMARK    6  A    between atoms: N_12  and  C_13
REMARK    7  A    between atoms: C_13  and  C_14
REMARK                            x       y       z     vdW  Elec       q    Type
REMARK                         _______ _______ _______ _____ _____    ______ ____
ROOT
ATOM      1  C   UNL     1       1.469   8.881  18.905  0.00  0.00    +0.000 C 
ATOM      2  O   UNL     1       1.179   9.117  17.731  0.00  0.00    +0.000 OA
ATOM      3  N   UNL     1       2.198   7.774  19.342  0.00  0.00    +0.000 N 
ATOM      4  H   UNL     1       2.189   7.574  20.332  0.00  0.00    +0.000 HD
ENDROOT
BRANCH   3   5
ATOM      5  C   UNL     1       2.849   6.819  18.513  0.00  0.00    +0.000 A 
ATOM      6  C   UNL     1       2.497   5.426  18.568  0.00  0.00    +0.000 A 
ATOM      7  C   UNL     1       3.115   4.404  17.818  0.00  0.00    +0.000 A 
ATOM      8  C   UNL     1       4.114   4.921  17.014  0.00  0.00    +0.000 A 
ATOM      9  C   UNL     1       4.917   4.185  16.192  0.00  0.00    +0.000 A 
ATOM     10  N   UNL     1       5.751   5.102  15.617  0.00  0.00    +0.000 N 
ATOM     11  N   UNL     1       5.522   6.382  16.000  0.00  0.00    +0.000 NA
ATOM     12  C   UNL     1       4.506   6.299  16.883  0.00  0.00    +0.000 A 
ATOM     13  C   UNL     1       3.850   7.303  17.628  0.00  0.00    +0.000 A 
BRANCH  10  14
ATOM     14  C   UNL     1       6.794   4.800  14.654  0.00  0.00    +0.000 C 
ATOM     15  C   UNL     1       6.305   3.913  13.520  0.00  0.00    +0.000 C 
ENDBRANCH  10  14
ENDBRANCH   3   5
BRANCH   1  16
ATOM     16  C   UNL     1       0.937   9.784  20.051  0.00  0.00    +0.000 C 
BRANCH  16  17
ATOM     17  N   UNL     1       0.104  10.851  19.464  0.00  0.00    +0.000 N 
ATOM     18  C   UNL     1      -1.282  10.680  19.094  0.00  0.00    +0.000 C 
ATOM     19  C   UNL     1      -1.543  11.780  18.086  0.00  0.00    +0.000 C 
ATOM     20  C   UNL     1      -0.521  12.856  18.430  0.00  0.00    +0.000 C 
ATOM     21  C   UNL     1       0.610  12.071  19.048  0.00  0.00    +0.000 C 
ATOM     22  O   UNL     1       1.753  12.468  19.200  0.00  0.00    +0.000 OA
ENDBRANCH  16  17
BRANCH  16  24
ATOM     23  C   UNL     1       0.008   9.643  22.454  0.00  0.00    +0.000 C 
ATOM     24  C   UNL     1       0.145   8.979  21.095  0.00  0.00    +0.000 C 
ENDBRANCH  16  24
ENDBRANCH   1  16
TORSDOF 5
ENDMDL
MODEL 6
REMARK VINA RESULT:      -7.3      1.328      1.557
REMARK  Name = 
REMARK  7 active torsions:
REMARK  status: ('A' for Active; 'I' for Inactive)
REMARK    1  A    between atoms: C_1  and  C_2
REMARK    2  A    between atoms: C_2  and  C_3
REMARK    3  A    between atoms: C_3  and  C_4
REMARK    4  A    between atoms: C_3  and  N_18
REMARK    5  A    between atoms: N_6  and  C_7
REMARK    6  A    between atoms: N_12  and  C_13
REMARK    7  A    between atoms: C_13  and  C_14
REMARK                            x       y       z     vdW  Elec       q    Type
REMARK                         _______ _______ _______ _____ _____    ______ ____
ROOT
ATOM      1  C   UNL     1       2.976   5.910  19.647  0.00  0.00    +0.000 C 
ATOM      2  O   UNL     1       2.101   5.372  20.328  0.00  0.00    +0.000 OA
ATOM      3  N   UNL     1       2.914   7.212  19.149  0.00  0.00    +0.000 N 
ATOM      4  H   UNL     1       3.581   7.467  18.434  0.00  0.00    +0.000 HD
ENDROOT
BRANCH   3   5
ATOM      5  C   UNL     1       1.918   8.180  19.455  0.00  0.00    +0.000 A 
ATOM      6  C   UNL     1       1.342   9.003  18.426  0.00  0.00    +0.000 A 
ATOM      7  C   UNL     1       0.383  10.015  18.641  0.00  0.00    +0.000 A 
ATOM      8  C   UNL     1       0.066  10.115  19.983  0.00  0.00    +0.000 A 
ATOM      9  C   UNL     1      -0.806  11.018  20.516  0.00  0.00    +0.000 A 
ATOM     10  N   UNL     1      -0.791  10.758  21.858  0.00  0.00    +0.000 N 
ATOM     11  N   UNL     1       0.019   9.733  22.218  0.00  0.00    +0.000 NA
ATOM     12  C   UNL     1       0.576   9.314  21.064  0.00  0.00    +0.000 A 
ATOM     13  C   UNL     1       1.516   8.290  20.814  0.00  0.00    +0.000 A 
BRANCH  10  14
ATOM     14  C   UNL     1      -1.569  11.465  22.858  0.00  0.00    +0.000 C 
ATOM     15  C   UNL     1      -1.158  12.922  22.998  0.00  0.00    +0.000 C 
ENDBRANCH  10  14
ENDBRANCH   3   5
BRANCH   1  16
ATOM     16  C   UNL     1       4.225   5.111  19.187  0.00  0.00    +0.000 C 
BRANCH  16  17
ATOM     17  N   UNL     1       3.783   3.815  18.639  0.00  0.00    +0.000 N 
ATOM     18  C   UNL     1       2.816   3.679  17.574  0.00  0.00    +0.000 C 
ATOM     19  C   UNL     1       2.287   2.267  17.722  0.00  0.00    +0.000 C 
ATOM     20  C   UNL     1       3.413   1.515  18.418  0.00  0.00    +0.000 C 
ATOM     21  C   UNL     1       4.116   2.595  19.202  0.00  0.00    +0.000 C 
ATOM     22  O   UNL     1       4.883   2.416  20.132  0.00  0.00    +0.000 OA
ENDBRANCH  16  17
BRANCH  16  24
ATOM     23  C   UNL     1       6.547   5.606  18.177  0.00  0.00    +0.000 C 
ATOM     24  C   UNL     1       5.056   5.892  18.154  0.00  0.00    +0.000 C 
ENDBRANCH  16  24
ENDBRANCH   1  16
TORSDOF 5
ENDMDL
MODEL 7
REMARK VINA RESULT:      -7.3      1.449      3.192
REMARK  Name = 
REMARK  7 active torsions:
REMARK  status: ('A' for Active; 'I' for Inactive)
REMARK    1  A    between atoms: C_1  and  C_2
REMARK    2  A    between atoms: C_2  and  C_3
REMARK    3  A    between atoms: C_3  and  C_4
REMARK    4  A    between atoms: C_3  and  N_18
REMARK    5  A    between atoms: N_6  and  C_7
REMARK    6  A    between atoms: N_12  and  C_13
REMARK    7  A    between atoms: C_13  and  C_14
REMARK                            x       y       z     vdW  Elec       q    Type
REMARK                         _______ _______ _______ _____ _____    ______ ____
ROOT
ATOM      1  C   UNL     1       3.200   5.535  18.362  0.00  0.00    +0.000 C 
ATOM      2  O   UNL     1       2.593   4.989  19.285  0.00  0.00    +0.000 OA
ATOM      3  N   UNL     1       3.015   6.857  17.955  0.00  0.00    +0.000 N 
ATOM      4  H   UNL     1       3.406   7.127  17.063  0.00  0.00    +0.000 HD
ENDROOT
BRANCH   3   5
ATOM      5  C   UNL     1       2.217   7.833  18.613  0.00  0.00    +0.000 A 
ATOM      6  C   UNL     1       1.771   9.014  17.924  0.00  0.00    +0.000 A 
ATOM      7  C   UNL     1       1.014  10.053  18.505  0.00  0.00    +0.000 A 
ATOM      8  C   UNL     1       0.755   9.787  19.837  0.00  0.00    +0.000 A 
ATOM      9  C   UNL     1       0.073  10.612  20.682  0.00  0.00    +0.000 A 
ATOM     10  N   UNL     1       0.076   9.954  21.880  0.00  0.00    +0.000 N 
ATOM     11  N   UNL     1       0.698   8.751  21.854  0.00  0.00    +0.000 NA
ATOM     12  C   UNL     1       1.142   8.622  20.587  0.00  0.00    +0.000 A 
ATOM     13  C   UNL     1       1.876   7.585  19.970  0.00  0.00    +0.000 A 
BRANCH  10  14
ATOM     14  C   UNL     1      -0.537  10.437  23.104  0.00  0.00    +0.000 C 
ATOM     15  C   UNL     1      -1.325  11.721  22.898  0.00  0.00    +0.000 C 
ENDBRANCH  10  14
ENDBRANCH   3   5
BRANCH   1  16
ATOM     16  C   UNL     1       4.189   4.730  17.477  0.00  0.00    +0.000 C 
BRANCH  16  17
ATOM     17  N   UNL     1       5.538   5.307  17.630  0.00  0.00    +0.000 N 
ATOM     18  C   UNL     1       6.431   4.991  18.721  0.00  0.00    +0.000 C 
ATOM     19  C   UNL     1       7.395   6.158  18.771  0.00  0.00    +0.000 C 
ATOM     20  C   UNL     1       7.391   6.710  17.352  0.00  0.00    +0.000 C 
ATOM     21  C   UNL     1       6.020   6.339  16.842  0.00  0.00    +0.000 C 
ATOM     22  O   UNL     1       5.463   6.828  15.874  0.00  0.00    +0.000 OA
ENDBRANCH  16  17
BRANCH  16  24
ATOM     23  C   UNL     1       2.952   2.467  17.390  0.00  0.00    +0.000 C 
ATOM     24  C   UNL     1       4.187   3.233  17.830  0.00  0.00    +0.000 C 
ENDBRANCH  16  24
ENDBRANCH   1  16
TORSDOF 5
ENDMDL
MODEL 8
REMARK VINA RESULT:      -7.2      1.975      2.658
REMARK  Name = 
REMARK  7 active torsions:
REMARK  status: ('A' for Active; 'I' for Inactive)
REMARK    1  A    between atoms: C_1  and  C_2
REMARK    2  A    between atoms: C_2  and  C_3
REMARK    3  A    between atoms: C_3  and  C_4
REMARK    4  A    between atoms: C_3  and  N_18
REMARK    5  A    between atoms: N_6  and  C_7
REMARK    6  A    between atoms: N_12  and  C_13
REMARK    7  A    between atoms: C_13  and  C_14
REMARK                            x       y       z     vdW  Elec       q    Type
REMARK                         _______ _______ _______ _____ _____    ______ ____
ROOT
ATOM      1  C   UNL     1       2.573   6.893  19.300  0.00  0.00    +0.000 C 
ATOM      2  O   UNL     1       2.542   7.453  18.202  0.00  0.00    +0.000 OA
ATOM      3  N   UNL     1       2.050   7.421  20.482  0.00  0.00    +0.000 N 
ATOM      4  H   UNL     1       2.321   6.975  21.347  0.00  0.00    +0.000 HD
ENDROOT
BRANCH   3   5
ATOM      5  C   UNL     1       1.275   8.607  20.600  0.00  0.00    +0.000 A 
ATOM      6  C   UNL     1       0.980   9.418  19.451  0.00  0.00    +0.000 A 
ATOM      7  C   UNL     1       0.257  10.629  19.479  0.00  0.00    +0.000 A 
ATOM      8  C   UNL     1      -0.134  10.939  20.768  0.00  0.00    +0.000 A 
ATOM      9  C   UNL     1      -0.821  12.061  21.131  0.00  0.00    +0.000 A 
ATOM     10  N   UNL     1      -0.968  11.949  22.485  0.00  0.00    +0.000 N 
ATOM     11  N   UNL     1      -0.439  10.819  23.013  0.00  0.00    +0.000 NA
ATOM     12  C   UNL     1       0.099  10.169  21.961  0.00  0.00    +0.000 A 
ATOM     13  C   UNL     1       0.803   8.946  21.897  0.00  0.00    +0.000 A 
BRANCH  10  14
ATOM     14  C   UNL     1      -1.645  12.910  23.337  0.00  0.00    +0.000 C 
ATOM     15  C   UNL     1      -3.104  12.558  23.574  0.00  0.00    +0.000 C 
ENDBRANCH  10  14
ENDBRANCH   3   5
BRANCH   1  16
ATOM     16  C   UNL     1       3.317   5.542  19.480  0.00  0.00    +0.000 C 
BRANCH  16  17
ATOM     17  N   UNL     1       2.327   4.497  19.804  0.00  0.00    +0.000 N 
ATOM     18  C   UNL     1       2.236   3.846  21.091  0.00  0.00    +0.000 C 
ATOM     19  C   UNL     1       1.511   2.546  20.806  0.00  0.00    +0.000 C 
ATOM     20  C   UNL     1       0.697   2.837  19.552  0.00  0.00    +0.000 C 
ATOM     21  C   UNL     1       1.500   3.911  18.861  0.00  0.00    +0.000 C 
ATOM     22  O   UNL     1       1.396   4.237  17.691  0.00  0.00    +0.000 OA
ENDBRANCH  16  17
BRANCH  16  24
ATOM     23  C   UNL     1       5.436   4.441  18.506  0.00  0.00    +0.000 C 
ATOM     24  C   UNL     1       4.129   5.163  18.231  0.00  0.00    +0.000 C 
ENDBRANCH  16  24
ENDBRANCH   1  16
TORSDOF 5
ENDMDL
MODEL 9
REMARK VINA RESULT:      -7.2      1.321      1.989
REMARK  Name = 
REMARK  7 active torsions:
REMARK  status: ('A' for Active; 'I' for Inactive)
REMARK    1  A    between atoms: C_1  and  C_2
REMARK    2  A    between atoms: C_2  and  C_3
REMARK    3  A    between atoms: C_3  and  C_4
REMARK    4  A    between atoms: C_3  and  N_18
REMARK    5  A    between atoms: N_6  and  C_7
REMARK    6  A    between atoms: N_12  and  C_13
REMARK    7  A    between atoms: C_13  and  C_14
REMARK                            x       y       z     vdW  Elec       q    Type
REMARK                         _______ _______ _______ _____ _____    ______ ____
ROOT
ATOM      1  C   UNL     1       4.451   5.846  17.867  0.00  0.00    +0.000 C 
ATOM      2  O   UNL     1       5.200   6.820  17.777  0.00  0.00    +0.000 OA
ATOM      3  N   UNL     1       3.198   5.854  18.482  0.00  0.00    +0.000 N 
ATOM      4  H   UNL     1       2.774   4.959  18.682  0.00  0.00    +0.000 HD
ENDROOT
BRANCH   3   5
ATOM      5  C   UNL     1       2.513   6.998  18.975  0.00  0.00    +0.000 A 
ATOM      6  C   UNL     1       2.071   7.067  20.341  0.00  0.00    +0.000 A 
ATOM      7  C   UNL     1       1.350   8.140  20.905  0.00  0.00    +0.000 A 
ATOM      8  C   UNL     1       1.120   9.127  19.964  0.00  0.00    +0.000 A 
ATOM      9  C   UNL     1       0.423  10.278  20.191  0.00  0.00    +0.000 A 
ATOM     10  N   UNL     1       0.440  10.931  18.990  0.00  0.00    +0.000 N 
ATOM     11  N   UNL     1       1.120  10.283  18.013  0.00  0.00    +0.000 NA
ATOM     12  C   UNL     1       1.551   9.144  18.592  0.00  0.00    +0.000 A 
ATOM     13  C   UNL     1       2.296   8.067  18.063  0.00  0.00    +0.000 A 
BRANCH  10  14
ATOM     14  C   UNL     1      -0.175  12.218  18.726  0.00  0.00    +0.000 C 
ATOM     15  C   UNL     1      -1.570  12.090  18.133  0.00  0.00    +0.000 C 
ENDBRANCH  10  14
ENDBRANCH   3   5
BRANCH   1  16
ATOM     16  C   UNL     1       4.906   4.448  17.368  0.00  0.00    +0.000 C 
BRANCH  16  17
ATOM     17  N   UNL     1       3.926   3.442  17.822  0.00  0.00    +0.000 N 
ATOM     18  C   UNL     1       2.665   3.192  17.163  0.00  0.00    +0.000 C 
ATOM     19  C   UNL     1       1.807   2.534  18.225  0.00  0.00    +0.000 C 
ATOM     20  C   UNL     1       2.810   1.889  19.172  0.00  0.00    +0.000 C 
ATOM     21  C   UNL     1       4.035   2.758  19.021  0.00  0.00    +0.000 C 
ATOM     22  O   UNL     1       4.975   2.805  19.796  0.00  0.00    +0.000 OA
ENDBRANCH  16  17
BRANCH  16  24
ATOM     23  C   UNL     1       6.498   4.283  15.345  0.00  0.00    +0.000 C 
ATOM     24  C   UNL     1       5.068   4.408  15.840  0.00  0.00    +0.000 C 
ENDBRANCH  16  24
ENDBRANCH   1  16
TORSDOF 5
ENDMDL
