MODEL 1
REMARK VINA RESULT:      -7.5      0.000      0.000
REMARK  Name = 
REMARK  7 active torsions:
REMARK  status: ('A' for Active; 'I' for Inactive)
REMARK    1  A    between atoms: C_1  and  C_2
REMARK    2  A    between atoms: C_2  and  C_3
REMARK    3  A    between atoms: C_2  and  C_4
REMARK    4  A    between atoms: C_4  and  C_5
REMARK    5  A    between atoms: C_8  and  C_10
REMARK    6  A    between atoms: C_15  and  O_16
REMARK    7  A    between atoms: C_15  and  C_17
REMARK                            x       y       z     vdW  Elec       q    Type
REMARK                         _______ _______ _______ _____ _____    ______ ____
ROOT
ATOM      1  C   UNL     1       2.358   5.300  19.422  0.00  0.00    +0.000 C 
ATOM      2  N   UNL     1       3.575   5.469  19.019  0.00  0.00    +0.000 NA
ATOM      3  N   UNL     1       3.797   4.516  18.050  0.00  0.00    +0.000 N 
ATOM      4  C   UNL     1       5.046   4.308  17.462  0.00  0.00    +0.000 C 
ATOM      5  O   UNL     1       5.183   3.405  16.629  0.00  0.00    +0.000 OA
ATOM      6  C   UNL     1       2.720   3.515  18.004  0.00  0.00    +0.000 C 
ATOM      7  C   UNL     1       1.570   4.286  18.661  0.00  0.00    +0.000 C 
ENDROOT
BRANCH   4   8
ATOM      8  C   UNL     1       6.140   5.176  17.897  0.00  0.00    +0.000 A 
ATOM      9  C   UNL     1       6.643   6.365  17.397  0.00  0.00    +0.000 A 
ATOM     10  C   UNL     1       7.720   6.752  18.230  0.00  0.00    +0.000 A 
ATOM     11  C   UNL     1       7.803   5.793  19.202  0.00  0.00    +0.000 A 
ATOM     12  O   UNL     1       6.843   4.843  19.029  0.00  0.00    +0.000 OA
ENDBRANCH   4   8
BRANCH   6  13
ATOM     13  C   UNL     1       3.102   2.224  18.795  0.00  0.00    +0.000 C 
ATOM     14  F   UNL     1       3.544   1.229  17.990  0.00  0.00    +0.000 F 
ATOM     15  F   UNL     1       4.083   2.449  19.703  0.00  0.00    +0.000 F 
ATOM     16  F   UNL     1       2.034   1.740  19.476  0.00  0.00    +0.000 F 
ENDBRANCH   6  13
BRANCH   6  17
ATOM     17  O   UNL     1       2.339   3.267  16.643  0.00  0.00    +0.000 OA
ATOM     18  H   UNL     1       1.722   3.988  16.402  0.00  0.00    +0.000 HD
ENDBRANCH   6  17
BRANCH   1  19
ATOM     19  C   UNL     1       1.778   6.100  20.550  0.00  0.00    +0.000 C 
BRANCH  19  21
ATOM     20  C   UNL     1       1.823   8.036  18.898  0.00  0.00    +0.000 C 
ATOM     21  C   UNL     1       1.991   7.608  20.359  0.00  0.00    +0.000 C 
ATOM     22  C   UNL     1       1.014   8.384  21.242  0.00  0.00    +0.000 C 
ENDBRANCH  19  21
ENDBRANCH   1  19
TORSDOF 5
ENDMDL
MODEL 2
REMARK VINA RESULT:      -7.4      3.466      5.115
REMARK  Name = 
REMARK  7 active torsions:
REMARK  status: ('A' for Active; 'I' for Inactive)
REMARK    1  A    between atoms: C_1  and  C_2
REMARK    2  A    between atoms: C_2  and  C_3
REMARK    3  A    between atoms: C_2  and  C_4
REMARK    4  A    between atoms: C_4  and  C_5
REMARK    5  A    between atoms: C_8  and  C_10
REMARK    6  A    between atoms: C_15  and  O_16
REMARK    7  A    between atoms: C_15  and  C_17
REMARK                            x       y       z     vdW  Elec       q    Type
REMARK                         _______ _______ _______ _____ _____    ______ ____
ROOT
ATOM      1  C   UNL     1       4.495   3.439  17.405  0.00  0.00    +0.000 C 
ATOM      2  N   UNL     1       4.969   3.466  16.201  0.00  0.00    +0.000 NA
ATOM      3  N   UNL     1       6.006   4.372  16.215  0.00  0.00    +0.000 N 
ATOM      4  C   UNL     1       6.688   4.761  15.061  0.00  0.00    +0.000 C 
ATOM      5  O   UNL     1       7.581   5.612  15.141  0.00  0.00    +0.000 OA
ATOM      6  C   UNL     1       6.039   5.153  17.461  0.00  0.00    +0.000 C 
ATOM      7  C   UNL     1       5.260   4.235  18.409  0.00  0.00    +0.000 C 
ENDROOT
BRANCH   4   8
ATOM      8  C   UNL     1       6.277   4.141  13.802  0.00  0.00    +0.000 A 
ATOM      9  C   UNL     1       5.034   3.857  13.264  0.00  0.00    +0.000 A 
ATOM     10  C   UNL     1       5.246   3.243  12.007  0.00  0.00    +0.000 A 
ATOM     11  C   UNL     1       6.603   3.203  11.836  0.00  0.00    +0.000 A 
ATOM     12  O   UNL     1       7.242   3.761  12.902  0.00  0.00    +0.000 OA
ENDBRANCH   4   8
BRANCH   6  13
ATOM     13  C   UNL     1       5.354   6.546  17.282  0.00  0.00    +0.000 C 
ATOM     14  F   UNL     1       6.227   7.575  17.388  0.00  0.00    +0.000 F 
ATOM     15  F   UNL     1       4.754   6.672  16.074  0.00  0.00    +0.000 F 
ATOM     16  F   UNL     1       4.397   6.739  18.223  0.00  0.00    +0.000 F 
ENDBRANCH   6  13
BRANCH   6  17
ATOM     17  O   UNL     1       7.384   5.230  17.956  0.00  0.00    +0.000 OA
ATOM     18  H   UNL     1       7.889   5.726  17.280  0.00  0.00    +0.000 HD
ENDBRANCH   6  17
BRANCH   1  19
ATOM     19  C   UNL     1       3.284   2.629  17.761  0.00  0.00    +0.000 C 
BRANCH  19  21
ATOM     20  C   UNL     1       1.704   4.624  17.679  0.00  0.00    +0.000 C 
ATOM     21  C   UNL     1       2.236   3.457  18.518  0.00  0.00    +0.000 C 
ATOM     22  C   UNL     1       1.077   2.558  18.947  0.00  0.00    +0.000 C 
ENDBRANCH  19  21
ENDBRANCH   1  19
TORSDOF 5
ENDMDL
MODEL 3
REMARK VINA RESULT:      -7.3      3.534      5.197
REMARK  Name = 
REMARK  7 active torsions:
REMARK  status: ('A' for Active; 'I' for Inactive)
REMARK    1  A    between atoms: C_1  and  C_2
REMARK    2  A    between atoms: C_2  and  C_3
REMARK    3  A    between atoms: C_2  and  C_4
REMARK    4  A    between atoms: C_4  and  C_5
REMARK    5  A    between atoms: C_8  and  C_10
REMARK    6  A    between atoms: C_15  and  O_16
REMARK    7  A    between atoms: C_15  and  C_17
REMARK                            x       y       z     vdW  Elec       q    Type
REMARK                         _______ _______ _______ _____ _____    ______ ____
ROOT
ATOM      1  C   UNL     1       4.532   3.479  17.311  0.00  0.00    +0.000 C 
ATOM      2  N   UNL     1       4.975   3.461  16.095  0.00  0.00    +0.000 NA
ATOM      3  N   UNL     1       6.026   4.350  16.054  0.00  0.00    +0.000 N 
ATOM      4  C   UNL     1       6.684   4.691  14.872  0.00  0.00    +0.000 C 
ATOM      5  O   UNL     1       7.593   5.529  14.902  0.00  0.00    +0.000 OA
ATOM      6  C   UNL     1       6.104   5.168  17.273  0.00  0.00    +0.000 C 
ATOM      7  C   UNL     1       5.336   4.293  18.270  0.00  0.00    +0.000 C 
ENDROOT
BRANCH   4   8
ATOM      8  C   UNL     1       6.230   4.039  13.644  0.00  0.00    +0.000 A 
ATOM      9  C   UNL     1       6.901   3.332  12.660  0.00  0.00    +0.000 A 
ATOM     10  C   UNL     1       5.943   2.935  11.697  0.00  0.00    +0.000 A 
ATOM     11  C   UNL     1       4.740   3.401  12.153  0.00  0.00    +0.000 A 
ATOM     12  O   UNL     1       4.891   4.053  13.339  0.00  0.00    +0.000 OA
ENDBRANCH   4   8
BRANCH   6  13
ATOM     13  C   UNL     1       5.438   6.566  17.069  0.00  0.00    +0.000 C 
ATOM     14  F   UNL     1       4.827   6.684  15.868  0.00  0.00    +0.000 F 
ATOM     15  F   UNL     1       4.496   6.828  18.008  0.00  0.00    +0.000 F 
ATOM     16  F   UNL     1       6.360   7.558  17.146  0.00  0.00    +0.000 F 
ENDBRANCH   6  13
BRANCH   6  17
ATOM     17  O   UNL     1       7.463   5.237  17.731  0.00  0.00    +0.000 OA
ATOM     18  H   UNL     1       7.869   4.378  17.494  0.00  0.00    +0.000 HD
ENDBRANCH   6  17
BRANCH   1  19
ATOM     19  C   UNL     1       3.318   2.702  17.724  0.00  0.00    +0.000 C 
BRANCH  19  21
ATOM     20  C   UNL     1       1.801   4.747  17.738  0.00  0.00    +0.000 C 
ATOM     21  C   UNL     1       2.334   3.554  18.538  0.00  0.00    +0.000 C 
ATOM     22  C   UNL     1       1.168   2.687  19.013  0.00  0.00    +0.000 C 
ENDBRANCH  19  21
ENDBRANCH   1  19
TORSDOF 5
ENDMDL
MODEL 4
REMARK VINA RESULT:      -7.3      3.618      5.348
REMARK  Name = 
REMARK  7 active torsions:
REMARK  status: ('A' for Active; 'I' for Inactive)
REMARK    1  A    between atoms: C_1  and  C_2
REMARK    2  A    between atoms: C_2  and  C_3
REMARK    3  A    between atoms: C_2  and  C_4
REMARK    4  A    between atoms: C_4  and  C_5
REMARK    5  A    between atoms: C_8  and  C_10
REMARK    6  A    between atoms: C_15  and  O_16
REMARK    7  A    between atoms: C_15  and  C_17
REMARK                            x       y       z     vdW  Elec       q    Type
REMARK                         _______ _______ _______ _____ _____    ______ ____
ROOT
ATOM      1  C   UNL     1       4.826   3.607  17.371  0.00  0.00    +0.000 C 
ATOM      2  N   UNL     1       5.169   3.537  16.125  0.00  0.00    +0.000 NA
ATOM      3  N   UNL     1       6.231   4.401  15.968  0.00  0.00    +0.000 N 
ATOM      4  C   UNL     1       6.797   4.687  14.725  0.00  0.00    +0.000 C 
ATOM      5  O   UNL     1       7.721   5.505  14.653  0.00  0.00    +0.000 OA
ATOM      6  C   UNL     1       6.423   5.258  17.147  0.00  0.00    +0.000 C 
ATOM      7  C   UNL     1       5.721   4.434  18.232  0.00  0.00    +0.000 C 
ENDROOT
BRANCH   4   8
ATOM      8  C   UNL     1       6.233   4.004  13.561  0.00  0.00    +0.000 A 
ATOM      9  C   UNL     1       6.802   3.220  12.573  0.00  0.00    +0.000 A 
ATOM     10  C   UNL     1       5.765   2.829  11.693  0.00  0.00    +0.000 A 
ATOM     11  C   UNL     1       4.618   3.376  12.202  0.00  0.00    +0.000 A 
ATOM     12  O   UNL     1       4.879   4.072  13.342  0.00  0.00    +0.000 OA
ENDBRANCH   4   8
BRANCH   6  13
ATOM     13  C   UNL     1       5.770   6.663  16.948  0.00  0.00    +0.000 C 
ATOM     14  F   UNL     1       6.682   7.661  16.887  0.00  0.00    +0.000 F 
ATOM     15  F   UNL     1       5.044   6.734  15.805  0.00  0.00    +0.000 F 
ATOM     16  F   UNL     1       4.928   6.955  17.970  0.00  0.00    +0.000 F 
ENDBRANCH   6  13
BRANCH   6  17
ATOM     17  O   UNL     1       7.815   5.313  17.492  0.00  0.00    +0.000 OA
ATOM     18  H   UNL     1       8.188   6.060  16.980  0.00  0.00    +0.000 HD
ENDBRANCH   6  17
BRANCH   1  19
ATOM     19  C   UNL     1       3.635   2.871  17.907  0.00  0.00    +0.000 C 
BRANCH  19  21
ATOM     20  C   UNL     1       1.129   2.986  18.340  0.00  0.00    +0.000 C 
ATOM     21  C   UNL     1       2.317   3.590  17.586  0.00  0.00    +0.000 C 
ATOM     22  C   UNL     1       2.444   5.076  17.922  0.00  0.00    +0.000 C 
ENDBRANCH  19  21
ENDBRANCH   1  19
TORSDOF 5
ENDMDL
MODEL 5
REMARK VINA RESULT:      -7.2      3.271      6.171
REMARK  Name = 
REMARK  7 active torsions:
REMARK  status: ('A' for Active; 'I' for Inactive)
REMARK    1  A    between atoms: C_1  and  C_2
REMARK    2  A    between atoms: C_2  and  C_3
REMARK    3  A    between atoms: C_2  and  C_4
REMARK    4  A    between atoms: C_4  and  C_5
REMARK    5  A    between atoms: C_8  and  C_10
REMARK    6  A    between atoms: C_15  and  O_16
REMARK    7  A    between atoms: C_15  and  C_17
REMARK                            x       y       z     vdW  Elec       q    Type
REMARK                         _______ _______ _______ _____ _____    ______ ____
ROOT
ATOM      1  C   UNL     1       5.759   4.218  15.146  0.00  0.00    +0.000 C 
ATOM      2  N   UNL     1       4.773   4.137  15.980  0.00  0.00    +0.000 NA
ATOM      3  N   UNL     1       4.981   5.121  16.921  0.00  0.00    +0.000 N 
ATOM      4  C   UNL     1       4.182   5.265  18.056  0.00  0.00    +0.000 C 
ATOM      5  O   UNL     1       4.453   6.144  18.882  0.00  0.00    +0.000 OA
ATOM      6  C   UNL     1       6.322   5.715  16.810  0.00  0.00    +0.000 C 
ATOM      7  C   UNL     1       6.681   5.373  15.360  0.00  0.00    +0.000 C 
ENDROOT
BRANCH   4   8
ATOM      8  C   UNL     1       3.068   4.330  18.210  0.00  0.00    +0.000 A 
ATOM      9  C   UNL     1       1.735   4.399  17.842  0.00  0.00    +0.000 A 
ATOM     10  C   UNL     1       1.120   3.193  18.255  0.00  0.00    +0.000 A 
ATOM     11  C   UNL     1       2.111   2.446  18.832  0.00  0.00    +0.000 A 
ATOM     12  O   UNL     1       3.299   3.109  18.795  0.00  0.00    +0.000 OA
ENDBRANCH   4   8
BRANCH   6  13
ATOM     13  C   UNL     1       7.316   5.082  17.836  0.00  0.00    +0.000 C 
ATOM     14  F   UNL     1       8.225   4.268  17.251  0.00  0.00    +0.000 F 
ATOM     15  F   UNL     1       8.020   6.021  18.514  0.00  0.00    +0.000 F 
ATOM     16  F   UNL     1       6.653   4.341  18.758  0.00  0.00    +0.000 F 
ENDBRANCH   6  13
BRANCH   6  17
ATOM     17  O   UNL     1       6.234   7.144  16.898  0.00  0.00    +0.000 OA
ATOM     18  H   UNL     1       5.388   7.332  17.355  0.00  0.00    +0.000 HD
ENDBRANCH   6  17
BRANCH   1  19
ATOM     19  C   UNL     1       5.930   3.239  14.023  0.00  0.00    +0.000 C 
BRANCH  19  21
ATOM     20  C   UNL     1       7.129   3.921  11.883  0.00  0.00    +0.000 C 
ATOM     21  C   UNL     1       5.802   3.907  12.647  0.00  0.00    +0.000 C 
ATOM     22  C   UNL     1       4.736   3.189  11.820  0.00  0.00    +0.000 C 
ENDBRANCH  19  21
ENDBRANCH   1  19
TORSDOF 5
ENDMDL
MODEL 6
REMARK VINA RESULT:      -7.2      0.706      1.189
REMARK  Name = 
REMARK  7 active torsions:
REMARK  status: ('A' for Active; 'I' for Inactive)
REMARK    1  A    between atoms: C_1  and  C_2
REMARK    2  A    between atoms: C_2  and  C_3
REMARK    3  A    between atoms: C_2  and  C_4
REMARK    4  A    between atoms: C_4  and  C_5
REMARK    5  A    between atoms: C_8  and  C_10
REMARK    6  A    between atoms: C_15  and  O_16
REMARK    7  A    between atoms: C_15  and  C_17
REMARK                            x       y       z     vdW  Elec       q    Type
REMARK                         _______ _______ _______ _____ _____    ______ ____
ROOT
ATOM      1  C   UNL     1       2.399   5.371  19.365  0.00  0.00    +0.000 C 
ATOM      2  N   UNL     1       3.588   5.589  18.903  0.00  0.00    +0.000 NA
ATOM      3  N   UNL     1       3.815   4.622  17.948  0.00  0.00    +0.000 N 
ATOM      4  C   UNL     1       5.045   4.461  17.310  0.00  0.00    +0.000 C 
ATOM      5  O   UNL     1       5.191   3.544  16.494  0.00  0.00    +0.000 OA
ATOM      6  C   UNL     1       2.788   3.569  17.975  0.00  0.00    +0.000 C 
ATOM      7  C   UNL     1       1.630   4.300  18.665  0.00  0.00    +0.000 C 
ENDROOT
BRANCH   4   8
ATOM      8  C   UNL     1       6.113   5.392  17.675  0.00  0.00    +0.000 A 
ATOM      9  C   UNL     1       7.093   5.351  18.651  0.00  0.00    +0.000 A 
ATOM     10  C   UNL     1       7.851   6.541  18.539  0.00  0.00    +0.000 A 
ATOM     11  C   UNL     1       7.308   7.232  17.491  0.00  0.00    +0.000 A 
ATOM     12  O   UNL     1       6.270   6.543  16.943  0.00  0.00    +0.000 OA
ENDBRANCH   4   8
BRANCH   6  13
ATOM     13  C   UNL     1       3.268   2.319  18.779  0.00  0.00    +0.000 C 
ATOM     14  F   UNL     1       4.337   2.583  19.567  0.00  0.00    +0.000 F 
ATOM     15  F   UNL     1       2.301   1.829  19.592  0.00  0.00    +0.000 F 
ATOM     16  F   UNL     1       3.629   1.315  17.942  0.00  0.00    +0.000 F 
ENDBRANCH   6  13
BRANCH   6  17
ATOM     17  O   UNL     1       2.361   3.267  16.639  0.00  0.00    +0.000 OA
ATOM     18  H   UNL     1       1.638   3.898  16.440  0.00  0.00    +0.000 HD
ENDBRANCH   6  17
BRANCH   1  19
ATOM     19  C   UNL     1       1.831   6.171  20.499  0.00  0.00    +0.000 C 
BRANCH  19  21
ATOM     20  C   UNL     1       1.746   8.089  18.827  0.00  0.00    +0.000 C 
ATOM     21  C   UNL     1       1.997   7.681  20.282  0.00  0.00    +0.000 C 
ATOM     22  C   UNL     1       1.048   8.444  21.205  0.00  0.00    +0.000 C 
ENDBRANCH  19  21
ENDBRANCH   1  19
TORSDOF 5
ENDMDL
MODEL 7
REMARK VINA RESULT:      -7.2      1.751      2.061
REMARK  Name = 
REMARK  7 active torsions:
REMARK  status: ('A' for Active; 'I' for Inactive)
REMARK    1  A    between atoms: C_1  and  C_2
REMARK    2  A    between atoms: C_2  and  C_3
REMARK    3  A    between atoms: C_2  and  C_4
REMARK    4  A    between atoms: C_4  and  C_5
REMARK    5  A    between atoms: C_8  and  C_10
REMARK    6  A    between atoms: C_15  and  O_16
REMARK    7  A    between atoms: C_15  and  C_17
REMARK                            x       y       z     vdW  Elec       q    Type
REMARK                         _______ _______ _______ _____ _____    ______ ____
ROOT
ATOM      1  C   UNL     1       2.234   5.558  18.092  0.00  0.00    +0.000 C 
ATOM      2  N   UNL     1       3.508   5.357  18.203  0.00  0.00    +0.000 NA
ATOM      3  N   UNL     1       3.654   4.093  18.729  0.00  0.00    +0.000 N 
ATOM      4  C   UNL     1       4.892   3.567  19.105  0.00  0.00    +0.000 C 
ATOM      5  O   UNL     1       4.944   2.440  19.611  0.00  0.00    +0.000 OA
ATOM      6  C   UNL     1       2.377   3.544  19.210  0.00  0.00    +0.000 C 
ATOM      7  C   UNL     1       1.374   4.380  18.409  0.00  0.00    +0.000 C 
ENDROOT
BRANCH   4   8
ATOM      8  C   UNL     1       6.067   4.410  18.892  0.00  0.00    +0.000 A 
ATOM      9  C   UNL     1       6.831   4.681  17.770  0.00  0.00    +0.000 A 
ATOM     10  C   UNL     1       7.857   5.573  18.161  0.00  0.00    +0.000 A 
ATOM     11  C   UNL     1       7.653   5.816  19.492  0.00  0.00    +0.000 A 
ATOM     12  O   UNL     1       6.563   5.138  19.946  0.00  0.00    +0.000 OA
ENDBRANCH   4   8
BRANCH   6  13
ATOM     13  C   UNL     1       2.216   3.732  20.752  0.00  0.00    +0.000 C 
ATOM     14  F   UNL     1       2.693   2.682  21.460  0.00  0.00    +0.000 F 
ATOM     15  F   UNL     1       2.868   4.831  21.206  0.00  0.00    +0.000 F 
ATOM     16  F   UNL     1       0.910   3.879  21.088  0.00  0.00    +0.000 F 
ENDBRANCH   6  13
BRANCH   6  17
ATOM     17  O   UNL     1       2.234   2.183  18.776  0.00  0.00    +0.000 OA
ATOM     18  H   UNL     1       2.652   2.139  17.891  0.00  0.00    +0.000 HD
ENDBRANCH   6  17
BRANCH   1  19
ATOM     19  C   UNL     1       1.676   6.874  17.637  0.00  0.00    +0.000 C 
BRANCH  19  21
ATOM     20  C   UNL     1       1.781   9.405  17.891  0.00  0.00    +0.000 C 
ATOM     21  C   UNL     1       2.256   8.053  18.432  0.00  0.00    +0.000 C 
ATOM     22  C   UNL     1       1.873   7.922  19.906  0.00  0.00    +0.000 C 
ENDBRANCH  19  21
ENDBRANCH   1  19
TORSDOF 5
ENDMDL
MODEL 8
REMARK VINA RESULT:      -7.1      2.237      4.312
REMARK  Name = 
REMARK  7 active torsions:
REMARK  status: ('A' for Active; 'I' for Inactive)
REMARK    1  A    between atoms: C_1  and  C_2
REMARK    2  A    between atoms: C_2  and  C_3
REMARK    3  A    between atoms: C_2  and  C_4
REMARK    4  A    between atoms: C_4  and  C_5
REMARK    5  A    between atoms: C_8  and  C_10
REMARK    6  A    between atoms: C_15  and  O_16
REMARK    7  A    between atoms: C_15  and  C_17
REMARK                            x       y       z     vdW  Elec       q    Type
REMARK                         _______ _______ _______ _____ _____    ______ ____
ROOT
ATOM      1  C   UNL     1       2.253   3.783  18.015  0.00  0.00    +0.000 C 
ATOM      2  N   UNL     1       2.205   5.076  18.036  0.00  0.00    +0.000 NA
ATOM      3  N   UNL     1       3.429   5.516  17.584  0.00  0.00    +0.000 N 
ATOM      4  C   UNL     1       3.797   6.862  17.580  0.00  0.00    +0.000 C 
ATOM      5  O   UNL     1       4.929   7.181  17.200  0.00  0.00    +0.000 OA
ATOM      6  C   UNL     1       4.409   4.422  17.496  0.00  0.00    +0.000 C 
ATOM      7  C   UNL     1       3.486   3.202  17.408  0.00  0.00    +0.000 C 
ENDROOT
BRANCH   4   8
ATOM      8  C   UNL     1       2.806   7.825  18.059  0.00  0.00    +0.000 A 
ATOM      9  C   UNL     1       2.154   7.968  19.271  0.00  0.00    +0.000 A 
ATOM     10  C   UNL     1       1.293   9.086  19.159  0.00  0.00    +0.000 A 
ATOM     11  C   UNL     1       1.481   9.577  17.896  0.00  0.00    +0.000 A 
ATOM     12  O   UNL     1       2.408   8.840  17.223  0.00  0.00    +0.000 OA
ENDBRANCH   4   8
BRANCH   6  13
ATOM     13  C   UNL     1       5.337   4.381  18.752  0.00  0.00    +0.000 C 
ATOM     14  F   UNL     1       5.037   5.343  19.656  0.00  0.00    +0.000 F 
ATOM     15  F   UNL     1       5.259   3.197  19.409  0.00  0.00    +0.000 F 
ATOM     16  F   UNL     1       6.635   4.555  18.401  0.00  0.00    +0.000 F 
ENDBRANCH   6  13
BRANCH   6  17
ATOM     17  O   UNL     1       5.123   4.503  16.254  0.00  0.00    +0.000 OA
ATOM     18  H   UNL     1       5.300   3.577  15.987  0.00  0.00    +0.000 HD
ENDBRANCH   6  17
BRANCH   1  19
ATOM     19  C   UNL     1       1.126   2.940  18.531  0.00  0.00    +0.000 C 
BRANCH  19  21
ATOM     20  C   UNL     1       2.265   2.402  20.744  0.00  0.00    +0.000 C 
ATOM     21  C   UNL     1       1.023   2.984  20.063  0.00  0.00    +0.000 C 
ATOM     22  C   UNL     1       0.807   4.425  20.525  0.00  0.00    +0.000 C 
ENDBRANCH  19  21
ENDBRANCH   1  19
TORSDOF 5
ENDMDL
MODEL 9
REMARK VINA RESULT:      -7.1      2.394      4.869
REMARK  Name = 
REMARK  7 active torsions:
REMARK  status: ('A' for Active; 'I' for Inactive)
REMARK    1  A    between atoms: C_1  and  C_2
REMARK    2  A    between atoms: C_2  and  C_3
REMARK    3  A    between atoms: C_2  and  C_4
REMARK    4  A    between atoms: C_4  and  C_5
REMARK    5  A    between atoms: C_8  and  C_10
REMARK    6  A    between atoms: C_15  and  O_16
REMARK    7  A    between atoms: C_15  and  C_17
REMARK                            x       y       z     vdW  Elec       q    Type
REMARK                         _______ _______ _______ _____ _____    ______ ____
ROOT
ATOM      1  C   UNL     1       4.250   4.282  17.360  0.00  0.00    +0.000 C 
ATOM      2  N   UNL     1       3.725   5.390  17.772  0.00  0.00    +0.000 NA
ATOM      3  N   UNL     1       3.071   5.094  18.948  0.00  0.00    +0.000 N 
ATOM      4  C   UNL     1       2.279   6.020  19.629  0.00  0.00    +0.000 C 
ATOM      5  O   UNL     1       1.686   5.672  20.656  0.00  0.00    +0.000 OA
ATOM      6  C   UNL     1       2.973   3.644  19.173  0.00  0.00    +0.000 C 
ATOM      7  C   UNL     1       4.120   3.128  18.298  0.00  0.00    +0.000 C 
ENDROOT
BRANCH   4   8
ATOM      8  C   UNL     1       2.182   7.362  19.058  0.00  0.00    +0.000 A 
ATOM      9  C   UNL     1       2.585   7.891  17.844  0.00  0.00    +0.000 A 
ATOM     10  C   UNL     1       2.233   9.261  17.841  0.00  0.00    +0.000 A 
ATOM     11  C   UNL     1       1.615   9.491  19.040  0.00  0.00    +0.000 A 
ATOM     12  O   UNL     1       1.557   8.349  19.780  0.00  0.00    +0.000 OA
ENDBRANCH   4   8
BRANCH   6  13
ATOM     13  C   UNL     1       1.584   3.086  18.728  0.00  0.00    +0.000 C 
ATOM     14  F   UNL     1       0.940   3.911  17.868  0.00  0.00    +0.000 F 
ATOM     15  F   UNL     1       1.688   1.887  18.105  0.00  0.00    +0.000 F 
ATOM     16  F   UNL     1       0.767   2.910  19.796  0.00  0.00    +0.000 F 
ENDBRANCH   6  13
BRANCH   6  17
ATOM     17  O   UNL     1       3.309   3.336  20.534  0.00  0.00    +0.000 OA
ATOM     18  H   UNL     1       3.994   2.637  20.489  0.00  0.00    +0.000 HD
ENDBRANCH   6  17
BRANCH   1  19
ATOM     19  C   UNL     1       4.971   4.187  16.048  0.00  0.00    +0.000 C 
BRANCH  19  21
ATOM     20  C   UNL     1       7.242   4.587  17.127  0.00  0.00    +0.000 C 
ATOM     21  C   UNL     1       6.260   5.020  16.034  0.00  0.00    +0.000 C 
ATOM     22  C   UNL     1       6.929   4.913  14.664  0.00  0.00    +0.000 C 
ENDBRANCH  19  21
ENDBRANCH   1  19
TORSDOF 5
ENDMDL
