MODEL 1
REMARK VINA RESULT:      -8.1      0.000      0.000
REMARK  Name = 
REMARK  3 active torsions:
REMARK  status: ('A' for Active; 'I' for Inactive)
REMARK    1  A    between atoms: C_1  and  C_2
REMARK    2  A    between atoms: C_2  and  C_3
REMARK    3  A    between atoms: N_5  and  C_6
REMARK                            x       y       z     vdW  Elec       q    Type
REMARK                         _______ _______ _______ _____ _____    ______ ____
ROOT
ATOM      1  C   UNL     1       5.102   4.792  17.488  0.00  0.00    +0.000 C 
ATOM      2  O   UNL     1       4.209   5.645  17.399  0.00  0.00    +0.000 OA
ATOM      3  N   UNL     1       4.929   3.678  18.266  0.00  0.00    +0.000 N 
ATOM      4  H   UNL     1       5.557   2.889  18.187  0.00  0.00    +0.000 HD
ENDROOT
BRANCH   3   5
ATOM      5  C   UNL     1       3.665   3.465  18.969  0.00  0.00    +0.000 C 
ATOM      6  C   UNL     1       2.662   2.747  18.054  0.00  0.00    +0.000 C 
ATOM      7  C   UNL     1       1.200   2.929  18.459  0.00  0.00    +0.000 C 
ATOM      8  C   UNL     1       0.824   2.395  19.842  0.00  0.00    +0.000 C 
ATOM      9  C   UNL     1       1.549   3.099  20.985  0.00  0.00    +0.000 C 
ATOM     10  N   UNL     1       2.890   2.590  21.163  0.00  0.00    +0.000 N 
ATOM     11  C   UNL     1       3.891   2.626  20.235  0.00  0.00    +0.000 C 
ATOM     12  O   UNL     1       4.906   1.943  20.418  0.00  0.00    +0.000 OA
ATOM     13  H   UNL     1       3.099   2.022  21.976  0.00  0.00    +0.000 HD
ENDBRANCH   3   5
BRANCH   1  15
ATOM     14  C   UNL     1       6.449   3.926  15.547  0.00  0.00    +0.000 C 
ATOM     15  C   UNL     1       6.442   4.912  16.730  0.00  0.00    +0.000 C 
ATOM     16  C   UNL     1       7.616   4.555  17.679  0.00  0.00    +0.000 C 
ATOM     17  C   UNL     1       7.816   5.571  18.809  0.00  0.00    +0.000 C 
ATOM     18  C   UNL     1       7.921   6.996  18.281  0.00  0.00    +0.000 C 
ATOM     19  C   UNL     1       6.762   7.355  17.357  0.00  0.00    +0.000 C 
ATOM     20  C   UNL     1       6.626   6.352  16.213  0.00  0.00    +0.000 C 
ENDBRANCH   1  15
TORSDOF 2
ENDMDL
MODEL 2
REMARK VINA RESULT:      -7.7      1.624      2.907
REMARK  Name = 
REMARK  3 active torsions:
REMARK  status: ('A' for Active; 'I' for Inactive)
REMARK    1  A    between atoms: C_1  and  C_2
REMARK    2  A    between atoms: C_2  and  C_3
REMARK    3  A    between atoms: N_5  and  C_6
REMARK                            x       y       z     vdW  Elec       q    Type
REMARK                         _______ _______ _______ _____ _____    ______ ____
ROOT
ATOM      1  C   UNL     1       5.665   4.823  18.424  0.00  0.00    +0.000 C 
ATOM      2  O   UNL     1       5.988   4.023  19.312  0.00  0.00    +0.000 OA
ATOM      3  N   UNL     1       4.346   5.041  18.125  0.00  0.00    +0.000 N 
ATOM      4  H   UNL     1       4.067   5.828  17.555  0.00  0.00    +0.000 HD
ENDROOT
BRANCH   3   5
ATOM      5  C   UNL     1       3.301   4.356  18.886  0.00  0.00    +0.000 C 
ATOM      6  C   UNL     1       2.311   5.376  19.467  0.00  0.00    +0.000 C 
ATOM      7  C   UNL     1       1.513   4.864  20.666  0.00  0.00    +0.000 C 
ATOM      8  C   UNL     1       0.619   3.653  20.399  0.00  0.00    +0.000 C 
ATOM      9  C   UNL     1       1.392   2.404  19.988  0.00  0.00    +0.000 C 
ATOM     10  N   UNL     1       1.754   2.432  18.590  0.00  0.00    +0.000 N 
ATOM     11  C   UNL     1       2.546   3.368  17.986  0.00  0.00    +0.000 C 
ATOM     12  O   UNL     1       2.578   3.421  16.751  0.00  0.00    +0.000 OA
ATOM     13  H   UNL     1       1.284   1.809  17.944  0.00  0.00    +0.000 HD
ENDBRANCH   3   5
BRANCH   1  15
ATOM     14  C   UNL     1       7.693   6.304  18.587  0.00  0.00    +0.000 C 
ATOM     15  C   UNL     1       6.704   5.631  17.617  0.00  0.00    +0.000 C 
ATOM     16  C   UNL     1       5.988   6.734  16.795  0.00  0.00    +0.000 C 
ATOM     17  C   UNL     1       5.101   6.181  15.675  0.00  0.00    +0.000 C 
ATOM     18  C   UNL     1       5.854   5.201  14.783  0.00  0.00    +0.000 C 
ATOM     19  C   UNL     1       6.549   4.107  15.587  0.00  0.00    +0.000 C 
ATOM     20  C   UNL     1       7.467   4.696  16.658  0.00  0.00    +0.000 C 
ENDBRANCH   1  15
TORSDOF 2
ENDMDL
MODEL 3
REMARK VINA RESULT:      -7.7      0.896      2.220
REMARK  Name = 
REMARK  3 active torsions:
REMARK  status: ('A' for Active; 'I' for Inactive)
REMARK    1  A    between atoms: C_1  and  C_2
REMARK    2  A    between atoms: C_2  and  C_3
REMARK    3  A    between atoms: N_5  and  C_6
REMARK                            x       y       z     vdW  Elec       q    Type
REMARK                         _______ _______ _______ _____ _____    ______ ____
ROOT
ATOM      1  C   UNL     1       5.223   5.437  18.438  0.00  0.00    +0.000 C 
ATOM      2  O   UNL     1       4.406   6.333  18.687  0.00  0.00    +0.000 OA
ATOM      3  N   UNL     1       4.991   4.147  18.837  0.00  0.00    +0.000 N 
ATOM      4  H   UNL     1       5.542   3.384  18.468  0.00  0.00    +0.000 HD
ENDROOT
BRANCH   3   5
ATOM      5  C   UNL     1       3.748   3.808  19.527  0.00  0.00    +0.000 C 
ATOM      6  C   UNL     1       2.656   3.445  18.510  0.00  0.00    +0.000 C 
ATOM      7  C   UNL     1       1.230   3.580  19.043  0.00  0.00    +0.000 C 
ATOM      8  C   UNL     1       0.881   2.687  20.234  0.00  0.00    +0.000 C 
ATOM      9  C   UNL     1       1.705   2.985  21.482  0.00  0.00    +0.000 C 
ATOM     10  N   UNL     1       3.013   2.374  21.420  0.00  0.00    +0.000 N 
ATOM     11  C   UNL     1       3.971   2.624  20.480  0.00  0.00    +0.000 C 
ATOM     12  O   UNL     1       4.942   1.864  20.393  0.00  0.00    +0.000 OA
ATOM     13  H   UNL     1       3.218   1.582  22.019  0.00  0.00    +0.000 HD
ENDBRANCH   3   5
BRANCH   1  15
ATOM     14  C   UNL     1       7.624   6.166  18.640  0.00  0.00    +0.000 C 
ATOM     15  C   UNL     1       6.531   5.701  17.660  0.00  0.00    +0.000 C 
ATOM     16  C   UNL     1       6.301   6.818  16.608  0.00  0.00    +0.000 C 
ATOM     17  C   UNL     1       5.355   6.403  15.477  0.00  0.00    +0.000 C 
ATOM     18  C   UNL     1       5.779   5.090  14.832  0.00  0.00    +0.000 C 
ATOM     19  C   UNL     1       5.994   3.985  15.861  0.00  0.00    +0.000 C 
ATOM     20  C   UNL     1       6.985   4.413  16.943  0.00  0.00    +0.000 C 
ENDBRANCH   1  15
TORSDOF 2
ENDMDL
MODEL 4
REMARK VINA RESULT:      -7.5      1.607      1.880
REMARK  Name = 
REMARK  3 active torsions:
REMARK  status: ('A' for Active; 'I' for Inactive)
REMARK    1  A    between atoms: C_1  and  C_2
REMARK    2  A    between atoms: C_2  and  C_3
REMARK    3  A    between atoms: N_5  and  C_6
REMARK                            x       y       z     vdW  Elec       q    Type
REMARK                         _______ _______ _______ _____ _____    ______ ____
ROOT
ATOM      1  C   UNL     1       5.308   4.283  17.703  0.00  0.00    +0.000 C 
ATOM      2  O   UNL     1       5.836   3.948  18.771  0.00  0.00    +0.000 OA
ATOM      3  N   UNL     1       3.949   4.220  17.544  0.00  0.00    +0.000 N 
ATOM      4  H   UNL     1       3.497   4.676  16.763  0.00  0.00    +0.000 HD
ENDROOT
BRANCH   3   5
ATOM      5  C   UNL     1       3.101   3.792  18.657  0.00  0.00    +0.000 C 
ATOM      6  C   UNL     1       2.100   4.899  19.018  0.00  0.00    +0.000 C 
ATOM      7  C   UNL     1       1.539   4.800  20.437  0.00  0.00    +0.000 C 
ATOM      8  C   UNL     1       0.752   3.527  20.751  0.00  0.00    +0.000 C 
ATOM      9  C   UNL     1       1.588   2.255  20.661  0.00  0.00    +0.000 C 
ATOM     10  N   UNL     1       1.744   1.810  19.296  0.00  0.00    +0.000 N 
ATOM     11  C   UNL     1       2.337   2.514  18.286  0.00  0.00    +0.000 C 
ATOM     12  O   UNL     1       2.189   2.132  17.119  0.00  0.00    +0.000 OA
ATOM     13  H   UNL     1       1.257   0.976  18.988  0.00  0.00    +0.000 HD
ENDBRANCH   3   5
BRANCH   1  15
ATOM     14  C   UNL     1       6.150   3.731  15.396  0.00  0.00    +0.000 C 
ATOM     15  C   UNL     1       6.126   4.804  16.501  0.00  0.00    +0.000 C 
ATOM     16  C   UNL     1       7.584   5.092  16.943  0.00  0.00    +0.000 C 
ATOM     17  C   UNL     1       7.704   6.266  17.921  0.00  0.00    +0.000 C 
ATOM     18  C   UNL     1       7.008   7.517  17.397  0.00  0.00    +0.000 C 
ATOM     19  C   UNL     1       5.569   7.240  16.973  0.00  0.00    +0.000 C 
ATOM     20  C   UNL     1       5.494   6.101  15.957  0.00  0.00    +0.000 C 
ENDBRANCH   1  15
TORSDOF 2
ENDMDL
MODEL 5
REMARK VINA RESULT:      -7.3      1.572      6.054
REMARK  Name = 
REMARK  3 active torsions:
REMARK  status: ('A' for Active; 'I' for Inactive)
REMARK    1  A    between atoms: C_1  and  C_2
REMARK    2  A    between atoms: C_2  and  C_3
REMARK    3  A    between atoms: N_5  and  C_6
REMARK                            x       y       z     vdW  Elec       q    Type
REMARK                         _______ _______ _______ _____ _____    ______ ____
ROOT
ATOM      1  C   UNL     1       4.128   3.911  19.523  0.00  0.00    +0.000 C 
ATOM      2  O   UNL     1       3.635   4.960  19.954  0.00  0.00    +0.000 OA
ATOM      3  N   UNL     1       5.202   3.940  18.672  0.00  0.00    +0.000 N 
ATOM      4  H   UNL     1       5.732   3.101  18.479  0.00  0.00    +0.000 HD
ENDROOT
BRANCH   3   5
ATOM      5  C   UNL     1       5.804   5.218  18.297  0.00  0.00    +0.000 C 
ATOM      6  C   UNL     1       7.314   5.197  18.574  0.00  0.00    +0.000 C 
ATOM      7  C   UNL     1       7.946   6.580  18.720  0.00  0.00    +0.000 C 
ATOM      8  C   UNL     1       7.849   7.487  17.492  0.00  0.00    +0.000 C 
ATOM      9  C   UNL     1       6.416   7.842  17.109  0.00  0.00    +0.000 C 
ATOM     10  N   UNL     1       5.781   6.780  16.363  0.00  0.00    +0.000 N 
ATOM     11  C   UNL     1       5.561   5.507  16.809  0.00  0.00    +0.000 C 
ATOM     12  O   UNL     1       5.237   4.633  15.997  0.00  0.00    +0.000 OA
ATOM     13  H   UNL     1       5.602   6.908  15.374  0.00  0.00    +0.000 HD
ENDBRANCH   3   5
BRANCH   1  15
ATOM     14  C   UNL     1       4.686   1.744  20.676  0.00  0.00    +0.000 C 
ATOM     15  C   UNL     1       3.591   2.518  19.918  0.00  0.00    +0.000 C 
ATOM     16  C   UNL     1       3.210   1.720  18.644  0.00  0.00    +0.000 C 
ATOM     17  C   UNL     1       2.010   2.305  17.894  0.00  0.00    +0.000 C 
ATOM     18  C   UNL     1       0.813   2.518  18.813  0.00  0.00    +0.000 C 
ATOM     19  C   UNL     1       1.179   3.314  20.061  0.00  0.00    +0.000 C 
ATOM     20  C   UNL     1       2.344   2.671  20.813  0.00  0.00    +0.000 C 
ENDBRANCH   1  15
TORSDOF 2
ENDMDL
MODEL 6
REMARK VINA RESULT:      -7.3      1.714      2.386
REMARK  Name = 
REMARK  3 active torsions:
REMARK  status: ('A' for Active; 'I' for Inactive)
REMARK    1  A    between atoms: C_1  and  C_2
REMARK    2  A    between atoms: C_2  and  C_3
REMARK    3  A    between atoms: N_5  and  C_6
REMARK                            x       y       z     vdW  Elec       q    Type
REMARK                         _______ _______ _______ _____ _____    ______ ____
ROOT
ATOM      1  C   UNL     1       4.716   4.103  16.869  0.00  0.00    +0.000 C 
ATOM      2  O   UNL     1       4.902   2.897  17.076  0.00  0.00    +0.000 OA
ATOM      3  N   UNL     1       3.767   4.796  17.574  0.00  0.00    +0.000 N 
ATOM      4  H   UNL     1       3.747   5.806  17.560  0.00  0.00    +0.000 HD
ENDROOT
BRANCH   3   5
ATOM      5  C   UNL     1       2.988   4.121  18.611  0.00  0.00    +0.000 C 
ATOM      6  C   UNL     1       2.784   5.053  19.814  0.00  0.00    +0.000 C 
ATOM      7  C   UNL     1       2.462   4.331  21.122  0.00  0.00    +0.000 C 
ATOM      8  C   UNL     1       1.175   3.504  21.123  0.00  0.00    +0.000 C 
ATOM      9  C   UNL     1       1.193   2.348  20.129  0.00  0.00    +0.000 C 
ATOM     10  N   UNL     1       0.896   2.789  18.786  0.00  0.00    +0.000 N 
ATOM     11  C   UNL     1       1.621   3.691  18.060  0.00  0.00    +0.000 C 
ATOM     12  O   UNL     1       1.131   4.167  17.029  0.00  0.00    +0.000 OA
ATOM     13  H   UNL     1       0.005   2.545  18.371  0.00  0.00    +0.000 HD
ENDBRANCH   3   5
BRANCH   1  15
ATOM     14  C   UNL     1       5.229   4.377  14.420  0.00  0.00    +0.000 C 
ATOM     15  C   UNL     1       5.537   4.903  15.835  0.00  0.00    +0.000 C 
ATOM     16  C   UNL     1       7.052   4.721  16.112  0.00  0.00    +0.000 C 
ATOM     17  C   UNL     1       7.513   5.362  17.425  0.00  0.00    +0.000 C 
ATOM     18  C   UNL     1       7.086   6.821  17.527  0.00  0.00    +0.000 C 
ATOM     19  C   UNL     1       5.594   7.004  17.267  0.00  0.00    +0.000 C 
ATOM     20  C   UNL     1       5.180   6.400  15.925  0.00  0.00    +0.000 C 
ENDBRANCH   1  15
TORSDOF 2
ENDMDL
MODEL 7
REMARK VINA RESULT:      -7.2      1.930      6.027
REMARK  Name = 
REMARK  3 active torsions:
REMARK  status: ('A' for Active; 'I' for Inactive)
REMARK    1  A    between atoms: C_1  and  C_2
REMARK    2  A    between atoms: C_2  and  C_3
REMARK    3  A    between atoms: N_5  and  C_6
REMARK                            x       y       z     vdW  Elec       q    Type
REMARK                         _______ _______ _______ _____ _____    ______ ____
ROOT
ATOM      1  C   UNL     1       3.147   5.008  18.841  0.00  0.00    +0.000 C 
ATOM      2  O   UNL     1       2.995   6.091  19.419  0.00  0.00    +0.000 OA
ATOM      3  N   UNL     1       4.305   4.733  18.163  0.00  0.00    +0.000 N 
ATOM      4  H   UNL     1       4.520   3.791  17.866  0.00  0.00    +0.000 HD
ENDROOT
BRANCH   3   5
ATOM      5  C   UNL     1       5.396   5.707  18.153  0.00  0.00    +0.000 C 
ATOM      6  C   UNL     1       6.676   5.078  18.720  0.00  0.00    +0.000 C 
ATOM      7  C   UNL     1       7.699   6.090  19.236  0.00  0.00    +0.000 C 
ATOM      8  C   UNL     1       8.245   7.070  18.197  0.00  0.00    +0.000 C 
ATOM      9  C   UNL     1       7.179   7.985  17.603  0.00  0.00    +0.000 C 
ATOM     10  N   UNL     1       6.421   7.323  16.566  0.00  0.00    +0.000 N 
ATOM     11  C   UNL     1       5.659   6.200  16.723  0.00  0.00    +0.000 C 
ATOM     12  O   UNL     1       5.263   5.596  15.719  0.00  0.00    +0.000 OA
ATOM     13  H   UNL     1       6.557   7.599  15.601  0.00  0.00    +0.000 HD
ENDBRANCH   3   5
BRANCH   1  15
ATOM     14  C   UNL     1       1.235   3.985  17.563  0.00  0.00    +0.000 C 
ATOM     15  C   UNL     1       2.069   3.902  18.855  0.00  0.00    +0.000 C 
ATOM     16  C   UNL     1       1.124   4.105  20.068  0.00  0.00    +0.000 C 
ATOM     17  C   UNL     1       1.810   3.876  21.419  0.00  0.00    +0.000 C 
ATOM     18  C   UNL     1       2.529   2.533  21.473  0.00  0.00    +0.000 C 
ATOM     19  C   UNL     1       3.468   2.335  20.288  0.00  0.00    +0.000 C 
ATOM     20  C   UNL     1       2.739   2.517  18.958  0.00  0.00    +0.000 C 
ENDBRANCH   1  15
TORSDOF 2
ENDMDL
MODEL 8
REMARK VINA RESULT:      -7.2      1.719      6.032
REMARK  Name = 
REMARK  3 active torsions:
REMARK  status: ('A' for Active; 'I' for Inactive)
REMARK    1  A    between atoms: C_1  and  C_2
REMARK    2  A    between atoms: C_2  and  C_3
REMARK    3  A    between atoms: N_5  and  C_6
REMARK                            x       y       z     vdW  Elec       q    Type
REMARK                         _______ _______ _______ _____ _____    ______ ____
ROOT
ATOM      1  C   UNL     1       3.424   4.256  18.568  0.00  0.00    +0.000 C 
ATOM      2  O   UNL     1       2.964   5.356  18.898  0.00  0.00    +0.000 OA
ATOM      3  N   UNL     1       4.708   4.145  18.104  0.00  0.00    +0.000 N 
ATOM      4  H   UNL     1       5.154   3.241  18.028  0.00  0.00    +0.000 HD
ENDROOT
BRANCH   3   5
ATOM      5  C   UNL     1       5.566   5.327  18.035  0.00  0.00    +0.000 C 
ATOM      6  C   UNL     1       6.989   4.980  18.495  0.00  0.00    +0.000 C 
ATOM      7  C   UNL     1       7.811   6.183  18.956  0.00  0.00    +0.000 C 
ATOM      8  C   UNL     1       8.060   7.260  17.899  0.00  0.00    +0.000 C 
ATOM      9  C   UNL     1       6.784   7.932  17.401  0.00  0.00    +0.000 C 
ATOM     10  N   UNL     1       6.107   7.129  16.410  0.00  0.00    +0.000 N 
ATOM     11  C   UNL     1       5.612   5.870  16.599  0.00  0.00    +0.000 C 
ATOM     12  O   UNL     1       5.278   5.200  15.614  0.00  0.00    +0.000 OA
ATOM     13  H   UNL     1       6.110   7.431  15.442  0.00  0.00    +0.000 HD
ENDBRANCH   3   5
BRANCH   1  15
ATOM     14  C   UNL     1       2.717   2.172  17.345  0.00  0.00    +0.000 C 
ATOM     15  C   UNL     1       2.605   2.951  18.669  0.00  0.00    +0.000 C 
ATOM     16  C   UNL     1       1.111   3.286  18.922  0.00  0.00    +0.000 C 
ATOM     17  C   UNL     1       0.851   3.913  20.295  0.00  0.00    +0.000 C 
ATOM     18  C   UNL     1       1.449   3.082  21.424  0.00  0.00    +0.000 C 
ATOM     19  C   UNL     1       2.920   2.760  21.186  0.00  0.00    +0.000 C 
ATOM     20  C   UNL     1       3.135   2.086  19.831  0.00  0.00    +0.000 C 
ENDBRANCH   1  15
TORSDOF 2
ENDMDL
MODEL 9
REMARK VINA RESULT:      -7.1      1.981      5.899
REMARK  Name = 
REMARK  3 active torsions:
REMARK  status: ('A' for Active; 'I' for Inactive)
REMARK    1  A    between atoms: C_1  and  C_2
REMARK    2  A    between atoms: C_2  and  C_3
REMARK    3  A    between atoms: N_5  and  C_6
REMARK                            x       y       z     vdW  Elec       q    Type
REMARK                         _______ _______ _______ _____ _____    ______ ____
ROOT
ATOM      1  C   UNL     1       2.824   4.844  19.091  0.00  0.00    +0.000 C 
ATOM      2  O   UNL     1       2.411   4.378  18.022  0.00  0.00    +0.000 OA
ATOM      3  N   UNL     1       4.142   5.185  19.243  0.00  0.00    +0.000 N 
ATOM      4  H   UNL     1       4.444   5.746  20.027  0.00  0.00    +0.000 HD
ENDROOT
BRANCH   3   5
ATOM      5  C   UNL     1       5.070   5.038  18.122  0.00  0.00    +0.000 C 
ATOM      6  C   UNL     1       4.976   6.256  17.192  0.00  0.00    +0.000 C 
ATOM      7  C   UNL     1       5.477   6.001  15.771  0.00  0.00    +0.000 C 
ATOM      8  C   UNL     1       6.949   5.605  15.648  0.00  0.00    +0.000 C 
ATOM      9  C   UNL     1       7.284   4.284  16.334  0.00  0.00    +0.000 C 
ATOM     10  N   UNL     1       7.457   4.448  17.759  0.00  0.00    +0.000 N 
ATOM     11  C   UNL     1       6.510   4.897  18.635  0.00  0.00    +0.000 C 
ATOM     12  O   UNL     1       6.854   5.225  19.777  0.00  0.00    +0.000 OA
ATOM     13  H   UNL     1       8.386   4.375  18.157  0.00  0.00    +0.000 HD
ENDBRANCH   3   5
BRANCH   1  15
ATOM     14  C   UNL     1       1.692   6.602  20.493  0.00  0.00    +0.000 C 
ATOM     15  C   UNL     1       1.897   5.087  20.302  0.00  0.00    +0.000 C 
ATOM     16  C   UNL     1       2.549   4.510  21.586  0.00  0.00    +0.000 C 
ATOM     17  C   UNL     1       2.649   2.982  21.585  0.00  0.00    +0.000 C 
ATOM     18  C   UNL     1       1.309   2.323  21.279  0.00  0.00    +0.000 C 
ATOM     19  C   UNL     1       0.671   2.879  20.010  0.00  0.00    +0.000 C 
ATOM     20  C   UNL     1       0.537   4.400  20.070  0.00  0.00    +0.000 C 
ENDBRANCH   1  15
TORSDOF 2
ENDMDL
