MODEL 1
REMARK VINA RESULT:      -7.0      0.000      0.000
REMARK  Name = 
REMARK  4 active torsions:
REMARK  status: ('A' for Active; 'I' for Inactive)
REMARK    1  A    between atoms: C_1  and  C_2
REMARK    2  A    between atoms: C_2  and  C_3
REMARK    3  A    between atoms: C_8  and  C_9
REMARK    4  A    between atoms: C_12  and  O_13
REMARK                            x       y       z     vdW  Elec       q    Type
REMARK                         _______ _______ _______ _____ _____    ______ ____
ROOT
ATOM      1  C   UNL     1      -1.686  11.443  18.958  0.00  0.00    +0.000 C 
ATOM      2  C   UNL     1      -0.624  12.241  18.164  0.00  0.00    +0.000 C 
ATOM      3  C   UNL     1       0.305  13.030  19.117  0.00  0.00    +0.000 C 
ATOM      4  C   UNL     1       0.933  12.142  20.202  0.00  0.00    +0.000 C 
ATOM      5  O   UNL     1       1.942  12.479  20.819  0.00  0.00    +0.000 OA
ATOM      6  C   UNL     1       0.289  10.788  20.459  0.00  0.00    +0.000 C 
ATOM      7  C   UNL     1      -1.039  11.033  20.321  0.00  0.00    +0.000 C 
ATOM      8  C   UNL     1      -1.890  11.761  21.388  0.00  0.00    +0.000 A 
ATOM      9  C   UNL     1      -1.700  11.806  22.767  0.00  0.00    +0.000 A 
ATOM     10  C   UNL     1      -2.570  12.619  23.514  0.00  0.00    +0.000 A 
ATOM     11  C   UNL     1      -3.510  13.384  22.820  0.00  0.00    +0.000 A 
ATOM     12  N   UNL     1      -4.433  14.332  23.198  0.00  0.00    +0.000 N 
ATOM     13  N   UNL     1      -5.091  14.857  22.144  0.00  0.00    +0.000 NA
ATOM     14  N   UNL     1      -4.643  14.249  21.049  0.00  0.00    +0.000 NA
ATOM     15  C   UNL     1      -3.711  13.364  21.462  0.00  0.00    +0.000 A 
ATOM     16  C   UNL     1      -2.889  12.488  20.712  0.00  0.00    +0.000 A 
ATOM     17  C   UNL     1      -2.877  12.416  19.251  0.00  0.00    +0.000 C 
ATOM     18  H   UNL     1      -4.645  14.685  24.123  0.00  0.00    +0.000 HD
ENDROOT
BRANCH   6  19
ATOM     19  C   UNL     1       1.011   9.667  19.764  0.00  0.00    +0.000 A 
ATOM     20  C   UNL     1       1.503   9.775  18.446  0.00  0.00    +0.000 A 
ATOM     21  C   UNL     1       2.217   8.746  17.827  0.00  0.00    +0.000 A 
ATOM     22  C   UNL     1       2.511   7.602  18.545  0.00  0.00    +0.000 A 
ATOM     23  C   UNL     1       2.070   7.469  19.859  0.00  0.00    +0.000 A 
ATOM     24  C   UNL     1       1.309   8.488  20.461  0.00  0.00    +0.000 A 
BRANCH  22  25
ATOM     25  O   UNL     1       3.254   6.602  18.002  0.00  0.00    +0.000 OA
ATOM     26  H   UNL     1       3.370   6.780  17.050  0.00  0.00    +0.000 HD
ENDBRANCH  22  25
ENDBRANCH   6  19
BRANCH   1  28
ATOM     27  C   UNL     1      -2.184  10.298  16.688  0.00  0.00    +0.000 C 
ATOM     28  C   UNL     1      -2.201  10.185  18.218  0.00  0.00    +0.000 C 
ENDBRANCH   1  28
TORSDOF 3
ENDMDL
MODEL 2
REMARK VINA RESULT:      -6.7      2.698      4.391
REMARK  Name = 
REMARK  4 active torsions:
REMARK  status: ('A' for Active; 'I' for Inactive)
REMARK    1  A    between atoms: C_1  and  C_2
REMARK    2  A    between atoms: C_2  and  C_3
REMARK    3  A    between atoms: C_8  and  C_9
REMARK    4  A    between atoms: C_12  and  O_13
REMARK                            x       y       z     vdW  Elec       q    Type
REMARK                         _______ _______ _______ _____ _____    ______ ____
ROOT
ATOM      1  C   UNL     1      -0.976  12.969  22.106  0.00  0.00    +0.000 C 
ATOM      2  C   UNL     1      -0.145  11.663  22.092  0.00  0.00    +0.000 C 
ATOM      3  C   UNL     1      -0.795  10.602  21.172  0.00  0.00    +0.000 C 
ATOM      4  C   UNL     1      -1.070  11.134  19.757  0.00  0.00    +0.000 C 
ATOM      5  O   UNL     1      -1.243  10.384  18.799  0.00  0.00    +0.000 OA
ATOM      6  C   UNL     1      -1.071  12.643  19.563  0.00  0.00    +0.000 C 
ATOM      7  C   UNL     1      -1.645  13.112  20.700  0.00  0.00    +0.000 C 
ATOM      8  C   UNL     1      -3.164  13.040  20.985  0.00  0.00    +0.000 A 
ATOM      9  C   UNL     1      -4.218  13.035  20.075  0.00  0.00    +0.000 A 
ATOM     10  C   UNL     1      -5.515  12.870  20.589  0.00  0.00    +0.000 A 
ATOM     11  C   UNL     1      -5.653  12.642  21.960  0.00  0.00    +0.000 A 
ATOM     12  N   UNL     1      -6.724  12.355  22.775  0.00  0.00    +0.000 N 
ATOM     13  N   UNL     1      -6.354  12.149  24.056  0.00  0.00    +0.000 NA
ATOM     14  N   UNL     1      -5.038  12.327  24.125  0.00  0.00    +0.000 NA
ATOM     15  C   UNL     1      -4.630  12.633  22.875  0.00  0.00    +0.000 A 
ATOM     16  C   UNL     1      -3.329  12.877  22.375  0.00  0.00    +0.000 A 
ATOM     17  C   UNL     1      -2.107  12.791  23.174  0.00  0.00    +0.000 C 
ATOM     18  H   UNL     1      -7.702  12.254  22.534  0.00  0.00    +0.000 HD
ENDROOT
BRANCH   6  19
ATOM     19  C   UNL     1       0.232  13.152  19.010  0.00  0.00    +0.000 A 
ATOM     20  C   UNL     1       0.534  14.526  18.908  0.00  0.00    +0.000 A 
ATOM     21  C   UNL     1       1.767  14.989  18.441  0.00  0.00    +0.000 A 
ATOM     22  C   UNL     1       2.754  14.074  18.123  0.00  0.00    +0.000 A 
ATOM     23  C   UNL     1       2.505  12.708  18.238  0.00  0.00    +0.000 A 
ATOM     24  C   UNL     1       1.246  12.248  18.663  0.00  0.00    +0.000 A 
BRANCH  22  25
ATOM     25  O   UNL     1       3.987  14.481  17.721  0.00  0.00    +0.000 OA
ATOM     26  H   UNL     1       3.890  15.020  16.913  0.00  0.00    +0.000 HD
ENDBRANCH  22  25
ENDBRANCH   6  19
BRANCH   1  28
ATOM     27  C   UNL     1      -0.877  15.557  22.174  0.00  0.00    +0.000 C 
ATOM     28  C   UNL     1      -0.142  14.234  22.426  0.00  0.00    +0.000 C 
ENDBRANCH   1  28
TORSDOF 3
ENDMDL
MODEL 3
REMARK VINA RESULT:      -6.5      3.346      5.280
REMARK  Name = 
REMARK  4 active torsions:
REMARK  status: ('A' for Active; 'I' for Inactive)
REMARK    1  A    between atoms: C_1  and  C_2
REMARK    2  A    between atoms: C_2  and  C_3
REMARK    3  A    between atoms: C_8  and  C_9
REMARK    4  A    between atoms: C_12  and  O_13
REMARK                            x       y       z     vdW  Elec       q    Type
REMARK                         _______ _______ _______ _____ _____    ______ ____
ROOT
ATOM      1  C   UNL     1      -2.294  13.836  22.706  0.00  0.00    +0.000 C 
ATOM      2  C   UNL     1      -1.163  12.834  23.040  0.00  0.00    +0.000 C 
ATOM      3  C   UNL     1      -1.304  11.540  22.204  0.00  0.00    +0.000 C 
ATOM      4  C   UNL     1      -1.411  11.817  20.697  0.00  0.00    +0.000 C 
ATOM      5  O   UNL     1      -1.177  10.952  19.854  0.00  0.00    +0.000 OA
ATOM      6  C   UNL     1      -1.772  13.231  20.268  0.00  0.00    +0.000 C 
ATOM      7  C   UNL     1      -2.672  13.630  21.202  0.00  0.00    +0.000 C 
ATOM      8  C   UNL     1      -4.142  13.150  21.235  0.00  0.00    +0.000 A 
ATOM      9  C   UNL     1      -4.945  12.744  20.172  0.00  0.00    +0.000 A 
ATOM     10  C   UNL     1      -6.230  12.264  20.479  0.00  0.00    +0.000 A 
ATOM     11  C   UNL     1      -6.583  12.151  21.825  0.00  0.00    +0.000 A 
ATOM     12  N   UNL     1      -7.684  11.652  22.483  0.00  0.00    +0.000 N 
ATOM     13  N   UNL     1      -7.545  11.698  23.824  0.00  0.00    +0.000 NA
ATOM     14  N   UNL     1      -6.368  12.257  24.086  0.00  0.00    +0.000 NA
ATOM     15  C   UNL     1      -5.806  12.535  22.890  0.00  0.00    +0.000 A 
ATOM     16  C   UNL     1      -4.541  13.093  22.584  0.00  0.00    +0.000 A 
ATOM     17  C   UNL     1      -3.533  13.450  23.581  0.00  0.00    +0.000 C 
ATOM     18  H   UNL     1      -8.529  11.247  22.100  0.00  0.00    +0.000 HD
ENDROOT
BRANCH   6  19
ATOM     19  C   UNL     1      -0.565  14.036  19.869  0.00  0.00    +0.000 A 
ATOM     20  C   UNL     1       0.743  13.507  19.874  0.00  0.00    +0.000 A 
ATOM     21  C   UNL     1       1.851  14.246  19.453  0.00  0.00    +0.000 A 
ATOM     22  C   UNL     1       1.660  15.521  18.953  0.00  0.00    +0.000 A 
ATOM     23  C   UNL     1       0.381  16.069  18.903  0.00  0.00    +0.000 A 
ATOM     24  C   UNL     1      -0.725  15.338  19.374  0.00  0.00    +0.000 A 
BRANCH  22  25
ATOM     25  O   UNL     1       2.702  16.254  18.478  0.00  0.00    +0.000 OA
ATOM     26  H   UNL     1       3.001  15.863  17.635  0.00  0.00    +0.000 HD
ENDBRANCH  22  25
ENDBRANCH   6  19
BRANCH   1  28
ATOM     27  C   UNL     1      -0.406  15.557  23.137  0.00  0.00    +0.000 C 
ATOM     28  C   UNL     1      -1.910  15.315  22.956  0.00  0.00    +0.000 C 
ENDBRANCH   1  28
TORSDOF 3
ENDMDL
MODEL 4
REMARK VINA RESULT:      -6.5      3.075      4.918
REMARK  Name = 
REMARK  4 active torsions:
REMARK  status: ('A' for Active; 'I' for Inactive)
REMARK    1  A    between atoms: C_1  and  C_2
REMARK    2  A    between atoms: C_2  and  C_3
REMARK    3  A    between atoms: C_8  and  C_9
REMARK    4  A    between atoms: C_12  and  O_13
REMARK                            x       y       z     vdW  Elec       q    Type
REMARK                         _______ _______ _______ _____ _____    ______ ____
ROOT
ATOM      1  C   UNL     1      -1.882  13.684  22.301  0.00  0.00    +0.000 C 
ATOM      2  C   UNL     1      -0.793  12.619  22.571  0.00  0.00    +0.000 C 
ATOM      3  C   UNL     1      -1.071  11.325  21.770  0.00  0.00    +0.000 C 
ATOM      4  C   UNL     1      -1.269  11.589  20.269  0.00  0.00    +0.000 C 
ATOM      5  O   UNL     1      -1.149  10.700  19.428  0.00  0.00    +0.000 OA
ATOM      6  C   UNL     1      -1.573  13.017  19.843  0.00  0.00    +0.000 C 
ATOM      7  C   UNL     1      -2.378  13.482  20.832  0.00  0.00    +0.000 C 
ATOM      8  C   UNL     1      -3.868  13.094  20.976  0.00  0.00    +0.000 A 
ATOM      9  C   UNL     1      -4.769  12.725  19.980  0.00  0.00    +0.000 A 
ATOM     10  C   UNL     1      -6.055  12.329  20.385  0.00  0.00    +0.000 A 
ATOM     11  C   UNL     1      -6.316  12.256  21.755  0.00  0.00    +0.000 A 
ATOM     12  N   UNL     1      -7.396  11.834  22.498  0.00  0.00    +0.000 N 
ATOM     13  N   UNL     1      -7.159  11.888  23.825  0.00  0.00    +0.000 NA
ATOM     14  N   UNL     1      -5.934  12.378  23.993  0.00  0.00    +0.000 NA
ATOM     15  C   UNL     1      -5.444  12.605  22.756  0.00  0.00    +0.000 A 
ATOM     16  C   UNL     1      -4.173  13.080  22.352  0.00  0.00    +0.000 A 
ATOM     17  C   UNL     1      -3.076  13.387  23.269  0.00  0.00    +0.000 C 
ATOM     18  H   UNL     1      -8.289  11.477  22.182  0.00  0.00    +0.000 HD
ENDROOT
BRANCH   6  19
ATOM     19  C   UNL     1      -0.351  13.741  19.346  0.00  0.00    +0.000 A 
ATOM     20  C   UNL     1      -0.362  15.107  18.995  0.00  0.00    +0.000 A 
ATOM     21  C   UNL     1       0.789  15.783  18.582  0.00  0.00    +0.000 A 
ATOM     22  C   UNL     1       1.998  15.113  18.576  0.00  0.00    +0.000 A 
ATOM     23  C   UNL     1       2.057  13.771  18.944  0.00  0.00    +0.000 A 
ATOM     24  C   UNL     1       0.886  13.083  19.312  0.00  0.00    +0.000 A 
BRANCH  22  25
ATOM     25  O   UNL     1       3.152  15.747  18.239  0.00  0.00    +0.000 OA
ATOM     26  H   UNL     1       3.023  16.196  17.382  0.00  0.00    +0.000 HD
ENDBRANCH  22  25
ENDBRANCH   6  19
BRANCH   1  28
ATOM     27  C   UNL     1       0.126  15.279  22.677  0.00  0.00    +0.000 C 
ATOM     28  C   UNL     1      -1.392  15.140  22.498  0.00  0.00    +0.000 C 
ENDBRANCH   1  28
TORSDOF 3
ENDMDL
MODEL 5
REMARK VINA RESULT:      -6.4      4.212      7.514
REMARK  Name = 
REMARK  4 active torsions:
REMARK  status: ('A' for Active; 'I' for Inactive)
REMARK    1  A    between atoms: C_1  and  C_2
REMARK    2  A    between atoms: C_2  and  C_3
REMARK    3  A    between atoms: C_8  and  C_9
REMARK    4  A    between atoms: C_12  and  O_13
REMARK                            x       y       z     vdW  Elec       q    Type
REMARK                         _______ _______ _______ _____ _____    ______ ____
ROOT
ATOM      1  C   UNL     1      -0.832  13.774  21.427  0.00  0.00    +0.000 C 
ATOM      2  C   UNL     1      -2.097  14.174  20.631  0.00  0.00    +0.000 C 
ATOM      3  C   UNL     1      -3.207  13.106  20.778  0.00  0.00    +0.000 C 
ATOM      4  C   UNL     1      -3.520  12.775  22.245  0.00  0.00    +0.000 C 
ATOM      5  O   UNL     1      -4.574  12.240  22.583  0.00  0.00    +0.000 OA
ATOM      6  C   UNL     1      -2.493  13.183  23.290  0.00  0.00    +0.000 C 
ATOM      7  C   UNL     1      -1.304  12.960  22.676  0.00  0.00    +0.000 C 
ATOM      8  C   UNL     1      -0.696  11.552  22.472  0.00  0.00    +0.000 A 
ATOM      9  C   UNL     1      -0.870  10.411  23.252  0.00  0.00    +0.000 A 
ATOM     10  C   UNL     1      -0.276   9.221  22.799  0.00  0.00    +0.000 A 
ATOM     11  C   UNL     1       0.378   9.244  21.565  0.00  0.00    +0.000 A 
ATOM     12  N   UNL     1       0.978   8.280  20.787  0.00  0.00    +0.000 N 
ATOM     13  N   UNL     1       1.430   8.773  19.615  0.00  0.00    +0.000 NA
ATOM     14  N   UNL     1       1.171  10.078  19.605  0.00  0.00    +0.000 NA
ATOM     15  C   UNL     1       0.555  10.352  20.774  0.00  0.00    +0.000 A 
ATOM     16  C   UNL     1       0.026  11.571  21.263  0.00  0.00    +0.000 A 
ATOM     17  C   UNL     1       0.014  12.825  20.512  0.00  0.00    +0.000 C 
ATOM     18  H   UNL     1       1.087   7.289  20.967  0.00  0.00    +0.000 HD
ENDROOT
BRANCH   6  19
ATOM     19  C   UNL     1      -2.853  14.472  23.977  0.00  0.00    +0.000 A 
ATOM     20  C   UNL     1      -2.015  15.091  24.928  0.00  0.00    +0.000 A 
ATOM     21  C   UNL     1      -2.334  16.314  25.523  0.00  0.00    +0.000 A 
ATOM     22  C   UNL     1      -3.480  16.979  25.126  0.00  0.00    +0.000 A 
ATOM     23  C   UNL     1      -4.319  16.415  24.168  0.00  0.00    +0.000 A 
ATOM     24  C   UNL     1      -4.017  15.160  23.608  0.00  0.00    +0.000 A 
BRANCH  22  25
ATOM     25  O   UNL     1      -3.798  18.198  25.635  0.00  0.00    +0.000 OA
ATOM     26  H   UNL     1      -4.321  18.687  24.972  0.00  0.00    +0.000 HD
ENDBRANCH  22  25
ENDBRANCH   6  19
BRANCH   1  28
ATOM     27  C   UNL     1      -0.634  16.346  21.662  0.00  0.00    +0.000 C 
ATOM     28  C   UNL     1       0.029  14.980  21.876  0.00  0.00    +0.000 C 
ENDBRANCH   1  28
TORSDOF 3
ENDMDL
MODEL 6
REMARK VINA RESULT:      -6.4      2.971      4.882
REMARK  Name = 
REMARK  4 active torsions:
REMARK  status: ('A' for Active; 'I' for Inactive)
REMARK    1  A    between atoms: C_1  and  C_2
REMARK    2  A    between atoms: C_2  and  C_3
REMARK    3  A    between atoms: C_8  and  C_9
REMARK    4  A    between atoms: C_12  and  O_13
REMARK                            x       y       z     vdW  Elec       q    Type
REMARK                         _______ _______ _______ _____ _____    ______ ____
ROOT
ATOM      1  C   UNL     1      -2.155  13.644  22.217  0.00  0.00    +0.000 C 
ATOM      2  C   UNL     1      -1.175  12.682  22.931  0.00  0.00    +0.000 C 
ATOM      3  C   UNL     1      -1.166  11.293  22.249  0.00  0.00    +0.000 C 
ATOM      4  C   UNL     1      -0.906  11.376  20.738  0.00  0.00    +0.000 C 
ATOM      5  O   UNL     1      -0.515  10.408  20.088  0.00  0.00    +0.000 OA
ATOM      6  C   UNL     1      -1.099  12.727  20.067  0.00  0.00    +0.000 C 
ATOM      7  C   UNL     1      -2.177  13.250  20.704  0.00  0.00    +0.000 C 
ATOM      8  C   UNL     1      -3.632  12.793  20.444  0.00  0.00    +0.000 A 
ATOM      9  C   UNL     1      -4.178  12.262  19.278  0.00  0.00    +0.000 A 
ATOM     10  C   UNL     1      -5.517  11.837  19.327  0.00  0.00    +0.000 A 
ATOM     11  C   UNL     1      -6.180  11.901  20.554  0.00  0.00    +0.000 A 
ATOM     12  N   UNL     1      -7.424  11.501  20.987  0.00  0.00    +0.000 N 
ATOM     13  N   UNL     1      -7.603  11.717  22.307  0.00  0.00    +0.000 NA
ATOM     14  N   UNL     1      -6.498  12.294  22.771  0.00  0.00    +0.000 NA
ATOM     15  C   UNL     1      -5.661  12.411  21.718  0.00  0.00    +0.000 A 
ATOM     16  C   UNL     1      -4.339  12.913  21.656  0.00  0.00    +0.000 A 
ATOM     17  C   UNL     1      -3.580  13.385  22.813  0.00  0.00    +0.000 C 
ATOM     18  H   UNL     1      -8.171  11.058  20.466  0.00  0.00    +0.000 HD
ENDROOT
BRANCH   6  19
ATOM     19  C   UNL     1       0.198  13.462  19.871  0.00  0.00    +0.000 A 
ATOM     20  C   UNL     1       1.426  12.998  20.389  0.00  0.00    +0.000 A 
ATOM     21  C   UNL     1       2.634  13.662  20.159  0.00  0.00    +0.000 A 
ATOM     22  C   UNL     1       2.645  14.778  19.343  0.00  0.00    +0.000 A 
ATOM     23  C   UNL     1       1.459  15.252  18.789  0.00  0.00    +0.000 A 
ATOM     24  C   UNL     1       0.238  14.608  19.064  0.00  0.00    +0.000 A 
BRANCH  22  25
ATOM     25  O   UNL     1       3.806  15.420  19.045  0.00  0.00    +0.000 OA
ATOM     26  H   UNL     1       4.194  15.764  19.871  0.00  0.00    +0.000 HD
ENDBRANCH  22  25
ENDBRANCH   6  19
BRANCH   1  28
ATOM     27  C   UNL     1      -0.382  15.387  22.945  0.00  0.00    +0.000 C 
ATOM     28  C   UNL     1      -1.783  15.139  22.370  0.00  0.00    +0.000 C 
ENDBRANCH   1  28
TORSDOF 3
ENDMDL
MODEL 7
REMARK VINA RESULT:      -6.3      3.182      5.349
REMARK  Name = 
REMARK  4 active torsions:
REMARK  status: ('A' for Active; 'I' for Inactive)
REMARK    1  A    between atoms: C_1  and  C_2
REMARK    2  A    between atoms: C_2  and  C_3
REMARK    3  A    between atoms: C_8  and  C_9
REMARK    4  A    between atoms: C_12  and  O_13
REMARK                            x       y       z     vdW  Elec       q    Type
REMARK                         _______ _______ _______ _____ _____    ______ ____
ROOT
ATOM      1  C   UNL     1      -0.703  13.804  22.154  0.00  0.00    +0.000 C 
ATOM      2  C   UNL     1       0.190  12.654  21.629  0.00  0.00    +0.000 C 
ATOM      3  C   UNL     1      -0.547  11.829  20.547  0.00  0.00    +0.000 C 
ATOM      4  C   UNL     1      -1.102  12.702  19.412  0.00  0.00    +0.000 C 
ATOM      5  O   UNL     1      -1.398  12.235  18.313  0.00  0.00    +0.000 OA
ATOM      6  C   UNL     1      -1.230  14.195  19.674  0.00  0.00    +0.000 C 
ATOM      7  C   UNL     1      -1.620  14.260  20.972  0.00  0.00    +0.000 C 
ATOM      8  C   UNL     1      -3.056  13.944  21.452  0.00  0.00    +0.000 A 
ATOM      9  C   UNL     1      -4.253  14.079  20.754  0.00  0.00    +0.000 A 
ATOM     10  C   UNL     1      -5.426  13.634  21.388  0.00  0.00    +0.000 A 
ATOM     11  C   UNL     1      -5.302  13.018  22.635  0.00  0.00    +0.000 A 
ATOM     12  N   UNL     1      -6.191  12.397  23.483  0.00  0.00    +0.000 N 
ATOM     13  N   UNL     1      -5.587  11.883  24.574  0.00  0.00    +0.000 NA
ATOM     14  N   UNL     1      -4.292  12.179  24.491  0.00  0.00    +0.000 NA
ATOM     15  C   UNL     1      -4.134  12.865  23.340  0.00  0.00    +0.000 A 
ATOM     16  C   UNL     1      -2.960  13.381  22.740  0.00  0.00    +0.000 A 
ATOM     17  C   UNL     1      -1.612  13.210  23.281  0.00  0.00    +0.000 C 
ATOM     18  H   UNL     1      -7.189  12.261  23.376  0.00  0.00    +0.000 HD
ENDROOT
BRANCH   6  19
ATOM     19  C   UNL     1      -0.081  14.979  19.103  0.00  0.00    +0.000 A 
ATOM     20  C   UNL     1      -0.174  16.349  18.783  0.00  0.00    +0.000 A 
ATOM     21  C   UNL     1       0.914  17.081  18.301  0.00  0.00    +0.000 A 
ATOM     22  C   UNL     1       2.146  16.464  18.189  0.00  0.00    +0.000 A 
ATOM     23  C   UNL     1       2.287  15.119  18.523  0.00  0.00    +0.000 A 
ATOM     24  C   UNL     1       1.177  14.375  18.961  0.00  0.00    +0.000 A 
BRANCH  22  25
ATOM     25  O   UNL     1       3.244  17.153  17.781  0.00  0.00    +0.000 OA
ATOM     26  H   UNL     1       3.825  17.299  18.550  0.00  0.00    +0.000 HD
ENDBRANCH  22  25
ENDBRANCH   6  19
BRANCH   1  28
ATOM     27  C   UNL     1      -0.632  16.359  22.581  0.00  0.00    +0.000 C 
ATOM     28  C   UNL     1       0.095  15.013  22.701  0.00  0.00    +0.000 C 
ENDBRANCH   1  28
TORSDOF 3
ENDMDL
MODEL 8
REMARK VINA RESULT:      -6.3      2.974      4.338
REMARK  Name = 
REMARK  4 active torsions:
REMARK  status: ('A' for Active; 'I' for Inactive)
REMARK    1  A    between atoms: C_1  and  C_2
REMARK    2  A    between atoms: C_2  and  C_3
REMARK    3  A    between atoms: C_8  and  C_9
REMARK    4  A    between atoms: C_12  and  O_13
REMARK                            x       y       z     vdW  Elec       q    Type
REMARK                         _______ _______ _______ _____ _____    ______ ____
ROOT
ATOM      1  C   UNL     1      -0.039  13.807  19.970  0.00  0.00    +0.000 C 
ATOM      2  C   UNL     1       1.083  12.753  19.801  0.00  0.00    +0.000 C 
ATOM      3  C   UNL     1       0.966  11.642  20.872  0.00  0.00    +0.000 C 
ATOM      4  C   UNL     1      -0.431  11.005  20.915  0.00  0.00    +0.000 C 
ATOM      5  O   UNL     1      -0.632   9.904  21.422  0.00  0.00    +0.000 OA
ATOM      6  C   UNL     1      -1.569  11.768  20.255  0.00  0.00    +0.000 C 
ATOM      7  C   UNL     1      -1.293  13.066  20.538  0.00  0.00    +0.000 C 
ATOM      8  C   UNL     1      -1.525  13.708  21.926  0.00  0.00    +0.000 A 
ATOM      9  C   UNL     1      -2.466  13.365  22.894  0.00  0.00    +0.000 A 
ATOM     10  C   UNL     1      -2.413  14.050  24.119  0.00  0.00    +0.000 A 
ATOM     11  C   UNL     1      -1.377  14.966  24.313  0.00  0.00    +0.000 A 
ATOM     12  N   UNL     1      -0.967  15.729  25.383  0.00  0.00    +0.000 N 
ATOM     13  N   UNL     1       0.151  16.433  25.114  0.00  0.00    +0.000 NA
ATOM     14  N   UNL     1       0.489  16.180  23.853  0.00  0.00    +0.000 NA
ATOM     15  C   UNL     1      -0.433  15.315  23.380  0.00  0.00    +0.000 A 
ATOM     16  C   UNL     1      -0.528  14.685  22.115  0.00  0.00    +0.000 A 
ATOM     17  C   UNL     1       0.450  14.840  21.040  0.00  0.00    +0.000 C 
ATOM     18  H   UNL     1      -1.368  15.798  26.311  0.00  0.00    +0.000 HD
ENDROOT
BRANCH   6  19
ATOM     19  C   UNL     1      -1.877  11.258  18.874  0.00  0.00    +0.000 A 
ATOM     20  C   UNL     1      -1.110  10.259  18.238  0.00  0.00    +0.000 A 
ATOM     21  C   UNL     1      -1.434   9.756  16.976  0.00  0.00    +0.000 A 
ATOM     22  C   UNL     1      -2.582  10.202  16.346  0.00  0.00    +0.000 A 
ATOM     23  C   UNL     1      -3.383  11.167  16.953  0.00  0.00    +0.000 A 
ATOM     24  C   UNL     1      -3.025  11.705  18.202  0.00  0.00    +0.000 A 
BRANCH  22  25
ATOM     25  O   UNL     1      -2.966   9.697  15.144  0.00  0.00    +0.000 OA
ATOM     26  H   UNL     1      -2.362  10.033  14.456  0.00  0.00    +0.000 HD
ENDBRANCH  22  25
ENDBRANCH   6  19
BRANCH   1  28
ATOM     27  C   UNL     1      -0.212  16.061  18.705  0.00  0.00    +0.000 C 
ATOM     28  C   UNL     1      -0.407  14.540  18.657  0.00  0.00    +0.000 C 
ENDBRANCH   1  28
TORSDOF 3
ENDMDL
MODEL 9
REMARK VINA RESULT:      -6.2      4.289      6.657
REMARK  Name = 
REMARK  4 active torsions:
REMARK  status: ('A' for Active; 'I' for Inactive)
REMARK    1  A    between atoms: C_1  and  C_2
REMARK    2  A    between atoms: C_2  and  C_3
REMARK    3  A    between atoms: C_8  and  C_9
REMARK    4  A    between atoms: C_12  and  O_13
REMARK                            x       y       z     vdW  Elec       q    Type
REMARK                         _______ _______ _______ _____ _____    ______ ____
ROOT
ATOM      1  C   UNL     1      -1.078  12.841  20.881  0.00  0.00    +0.000 C 
ATOM      2  C   UNL     1      -0.226  14.091  20.552  0.00  0.00    +0.000 C 
ATOM      3  C   UNL     1      -1.100  15.213  19.942  0.00  0.00    +0.000 C 
ATOM      4  C   UNL     1      -2.321  15.551  20.809  0.00  0.00    +0.000 C 
ATOM      5  O   UNL     1      -2.928  16.615  20.698  0.00  0.00    +0.000 OA
ATOM      6  C   UNL     1      -2.735  14.535  21.863  0.00  0.00    +0.000 C 
ATOM      7  C   UNL     1      -2.510  13.339  21.262  0.00  0.00    +0.000 C 
ATOM      8  C   UNL     1      -3.430  12.742  20.171  0.00  0.00    +0.000 A 
ATOM      9  C   UNL     1      -4.796  12.939  19.986  0.00  0.00    +0.000 A 
ATOM     10  C   UNL     1      -5.388  12.349  18.855  0.00  0.00    +0.000 A 
ATOM     11  C   UNL     1      -4.556  11.678  17.957  0.00  0.00    +0.000 A 
ATOM     12  N   UNL     1      -4.762  11.077  16.736  0.00  0.00    +0.000 N 
ATOM     13  N   UNL     1      -3.619  10.603  16.197  0.00  0.00    +0.000 NA
ATOM     14  N   UNL     1      -2.638  10.849  17.061  0.00  0.00    +0.000 NA
ATOM     15  C   UNL     1      -3.207  11.478  18.111  0.00  0.00    +0.000 A 
ATOM     16  C   UNL     1      -2.619  12.003  19.288  0.00  0.00    +0.000 A 
ATOM     17  C   UNL     1      -1.184  11.992  19.570  0.00  0.00    +0.000 C 
ATOM     18  H   UNL     1      -5.620  10.980  16.207  0.00  0.00    +0.000 HD
ENDROOT
BRANCH   6  19
ATOM     19  C   UNL     1      -2.232  14.892  23.234  0.00  0.00    +0.000 A 
ATOM     20  C   UNL     1      -1.078  15.676  23.445  0.00  0.00    +0.000 A 
ATOM     21  C   UNL     1      -0.647  16.046  24.722  0.00  0.00    +0.000 A 
ATOM     22  C   UNL     1      -1.406  15.686  25.820  0.00  0.00    +0.000 A 
ATOM     23  C   UNL     1      -2.568  14.937  25.652  0.00  0.00    +0.000 A 
ATOM     24  C   UNL     1      -2.971  14.527  24.368  0.00  0.00    +0.000 A 
BRANCH  22  25
ATOM     25  O   UNL     1      -1.055  16.074  27.075  0.00  0.00    +0.000 OA
ATOM     26  H   UNL     1      -0.384  16.779  27.008  0.00  0.00    +0.000 HD
ENDBRANCH  22  25
ENDBRANCH   6  19
BRANCH   1  28
ATOM     27  C   UNL     1      -1.554  11.353  22.948  0.00  0.00    +0.000 C 
ATOM     28  C   UNL     1      -0.497  11.975  22.025  0.00  0.00    +0.000 C 
ENDBRANCH   1  28
TORSDOF 3
ENDMDL
