MODEL 1
REMARK VINA RESULT:      -8.4      0.000      0.000
REMARK  Name = 
REMARK  4 active torsions:
REMARK  status: ('A' for Active; 'I' for Inactive)
REMARK    1  A    between atoms: N_1  and  C_2
REMARK    2  A    between atoms: C_5  and  S_6
REMARK    3  A    between atoms: S_6  and  N_9
REMARK    4  A    between atoms: C_11  and  C_12
REMARK                            x       y       z     vdW  Elec       q    Type
REMARK                         _______ _______ _______ _____ _____    ______ ____
ROOT
ATOM      1  N   UNL     1       5.060   6.085  17.679  0.00  0.00    +0.000 N 
ATOM      2  C   UNL     1       4.374   7.266  17.782  0.00  0.00    +0.000 A 
ATOM      3  C   UNL     1       3.151   6.998  18.349  0.00  0.00    +0.000 A 
ATOM      4  C   UNL     1       3.059   5.587  18.526  0.00  0.00    +0.000 A 
ATOM      5  C   UNL     1       2.045   4.738  19.020  0.00  0.00    +0.000 A 
ATOM      6  C   UNL     1       2.246   3.355  19.054  0.00  0.00    +0.000 A 
ATOM      7  C   UNL     1       3.446   2.816  18.609  0.00  0.00    +0.000 A 
ATOM      8 CL   UNL     1       3.672   1.108  18.657  0.00  0.00    +0.000 Cl
ATOM      9  C   UNL     1       4.478   3.629  18.124  0.00  0.00    +0.000 A 
ATOM     10  C   UNL     1       4.269   5.022  18.079  0.00  0.00    +0.000 A 
ENDROOT
BRANCH   3  11
ATOM     11  C   UNL     1       2.162   7.983  18.642  0.00  0.00    +0.000 C 
ATOM     12  C   UNL     1       1.673   8.837  17.727  0.00  0.00    +0.000 C 
ATOM     13  C   UNL     1       0.655   9.892  18.041  0.00  0.00    +0.000 C 
ATOM     14  N   UNL     1       0.056   9.789  19.374  0.00  0.00    +0.000 NA
ATOM     15  C   UNL     1       1.058   9.418  20.379  0.00  0.00    +0.000 C 
ATOM     16  C   UNL     1       1.700   8.052  20.075  0.00  0.00    +0.000 C 
ATOM     17  H   UNL     1      -0.669   9.074  19.349  0.00  0.00    +0.000 HD
ENDBRANCH   3  11
BRANCH   1  18
ATOM     18  S   UNL     1       6.641   5.992  17.031  0.00  0.00    +0.000 S 
ATOM     19  O   UNL     1       7.413   5.179  17.951  0.00  0.00    +0.000 OA
ATOM     20  O   UNL     1       7.021   7.360  16.728  0.00  0.00    +0.000 OA
BRANCH  18  24
ATOM     21  C   UNL     1       6.209   3.785  13.036  0.00  0.00    +0.000 A 
ATOM     22  C   UNL     1       7.378   4.485  13.349  0.00  0.00    +0.000 A 
ATOM     23  C   UNL     1       7.505   5.167  14.562  0.00  0.00    +0.000 A 
ATOM     24  C   UNL     1       6.475   5.108  15.501  0.00  0.00    +0.000 A 
ATOM     25  C   UNL     1       5.299   4.412  15.208  0.00  0.00    +0.000 A 
ATOM     26  C   UNL     1       5.186   3.731  13.989  0.00  0.00    +0.000 A 
BRANCH  21  27
ATOM     27  N   UNL     1       6.167   2.967  11.903  0.00  0.00    +0.000 N 
ATOM     28  H   UNL     1       7.070   2.607  11.611  0.00  0.00    +0.000 HD
ATOM     29  H   UNL     1       5.633   3.346  11.127  0.00  0.00    +0.000 HD
ENDBRANCH  21  27
ENDBRANCH  18  24
ENDBRANCH   1  18
TORSDOF 4
ENDMDL
MODEL 2
REMARK VINA RESULT:      -8.1      0.242      1.368
REMARK  Name = 
REMARK  4 active torsions:
REMARK  status: ('A' for Active; 'I' for Inactive)
REMARK    1  A    between atoms: N_1  and  C_2
REMARK    2  A    between atoms: C_5  and  S_6
REMARK    3  A    between atoms: S_6  and  N_9
REMARK    4  A    between atoms: C_11  and  C_12
REMARK                            x       y       z     vdW  Elec       q    Type
REMARK                         _______ _______ _______ _____ _____    ______ ____
ROOT
ATOM      1  N   UNL     1       5.143   6.000  17.680  0.00  0.00    +0.000 N 
ATOM      2  C   UNL     1       4.501   7.202  17.813  0.00  0.00    +0.000 A 
ATOM      3  C   UNL     1       3.288   6.970  18.417  0.00  0.00    +0.000 A 
ATOM      4  C   UNL     1       3.155   5.562  18.587  0.00  0.00    +0.000 A 
ATOM      5  C   UNL     1       2.129   4.743  19.108  0.00  0.00    +0.000 A 
ATOM      6  C   UNL     1       2.285   3.354  19.126  0.00  0.00    +0.000 A 
ATOM      7  C   UNL     1       3.452   2.779  18.639  0.00  0.00    +0.000 A 
ATOM      8 CL   UNL     1       3.622   1.064  18.667  0.00  0.00    +0.000 Cl
ATOM      9  C   UNL     1       4.494   3.561  18.126  0.00  0.00    +0.000 A 
ATOM     10  C   UNL     1       4.330   4.961  18.098  0.00  0.00    +0.000 A 
ENDROOT
BRANCH   3  11
ATOM     11  C   UNL     1       2.342   7.985  18.749  0.00  0.00    +0.000 C 
ATOM     12  C   UNL     1       1.802   8.123  19.971  0.00  0.00    +0.000 C 
ATOM     13  C   UNL     1       0.784   9.171  20.312  0.00  0.00    +0.000 C 
ATOM     14  N   UNL     1       0.577  10.185  19.275  0.00  0.00    +0.000 NA
ATOM     15  C   UNL     1       0.589   9.585  17.936  0.00  0.00    +0.000 C 
ATOM     16  C   UNL     1       1.931   8.901  17.623  0.00  0.00    +0.000 C 
ATOM     17  H   UNL     1       1.328  10.871  19.338  0.00  0.00    +0.000 HD
ENDBRANCH   3  11
BRANCH   1  18
ATOM     18  S   UNL     1       6.699   5.860  16.981  0.00  0.00    +0.000 S 
ATOM     19  O   UNL     1       7.450   4.957  17.831  0.00  0.00    +0.000 OA
ATOM     20  O   UNL     1       7.144   7.220  16.740  0.00  0.00    +0.000 OA
BRANCH  18  24
ATOM     21  C   UNL     1       6.043   3.746  12.966  0.00  0.00    +0.000 A 
ATOM     22  C   UNL     1       5.056   3.732  13.956  0.00  0.00    +0.000 A 
ATOM     23  C   UNL     1       5.261   4.367  15.184  0.00  0.00    +0.000 A 
ATOM     24  C   UNL     1       6.443   5.072  15.411  0.00  0.00    +0.000 A 
ATOM     25  C   UNL     1       7.441   5.099  14.433  0.00  0.00    +0.000 A 
ATOM     26  C   UNL     1       7.222   4.459  13.205  0.00  0.00    +0.000 A 
BRANCH  21  27
ATOM     27  N   UNL     1       5.755   3.261  11.686  0.00  0.00    +0.000 N 
ATOM     28  H   UNL     1       4.898   3.625  11.283  0.00  0.00    +0.000 HD
ATOM     29  H   UNL     1       5.830   2.253  11.588  0.00  0.00    +0.000 HD
ENDBRANCH  21  27
ENDBRANCH  18  24
ENDBRANCH   1  18
TORSDOF 4
ENDMDL
MODEL 3
REMARK VINA RESULT:      -7.9      5.811     10.628
REMARK  Name = 
REMARK  4 active torsions:
REMARK  status: ('A' for Active; 'I' for Inactive)
REMARK    1  A    between atoms: N_1  and  C_2
REMARK    2  A    between atoms: C_5  and  S_6
REMARK    3  A    between atoms: S_6  and  N_9
REMARK    4  A    between atoms: C_11  and  C_12
REMARK                            x       y       z     vdW  Elec       q    Type
REMARK                         _______ _______ _______ _____ _____    ______ ____
ROOT
ATOM      1  N   UNL     1      -0.196  11.984  19.935  0.00  0.00    +0.000 N 
ATOM      2  C   UNL     1       0.846  11.104  20.057  0.00  0.00    +0.000 A 
ATOM      3  C   UNL     1       0.652  10.089  19.152  0.00  0.00    +0.000 A 
ATOM      4  C   UNL     1      -0.598  10.320  18.508  0.00  0.00    +0.000 A 
ATOM      5  C   UNL     1      -1.330   9.610  17.531  0.00  0.00    +0.000 A 
ATOM      6  C   UNL     1      -2.569  10.091  17.099  0.00  0.00    +0.000 A 
ATOM      7  C   UNL     1      -3.078  11.271  17.625  0.00  0.00    +0.000 A 
ATOM      8 CL   UNL     1      -4.610  11.844  17.081  0.00  0.00    +0.000 Cl
ATOM      9  C   UNL     1      -2.376  12.007  18.586  0.00  0.00    +0.000 A 
ATOM     10  C   UNL     1      -1.131  11.514  19.029  0.00  0.00    +0.000 A 
ENDROOT
BRANCH   3  11
ATOM     11  C   UNL     1       1.543   8.992  18.962  0.00  0.00    +0.000 C 
ATOM     12  C   UNL     1       2.190   8.754  17.808  0.00  0.00    +0.000 C 
ATOM     13  C   UNL     1       3.104   7.584  17.598  0.00  0.00    +0.000 C 
ATOM     14  N   UNL     1       3.424   6.830  18.813  0.00  0.00    +0.000 NA
ATOM     15  C   UNL     1       2.248   6.693  19.679  0.00  0.00    +0.000 C 
ATOM     16  C   UNL     1       1.706   8.059  20.135  0.00  0.00    +0.000 C 
ATOM     17  H   UNL     1       4.153   7.329  19.321  0.00  0.00    +0.000 HD
ENDBRANCH   3  11
BRANCH   1  18
ATOM     18  S   UNL     1      -0.320  13.402  20.886  0.00  0.00    +0.000 S 
ATOM     19  O   UNL     1      -0.628  14.483  19.970  0.00  0.00    +0.000 OA
ATOM     20  O   UNL     1       0.874  13.425  21.710  0.00  0.00    +0.000 OA
BRANCH  18  24
ATOM     21  C   UNL     1      -3.959  12.659  23.573  0.00  0.00    +0.000 A 
ATOM     22  C   UNL     1      -2.819  11.855  23.667  0.00  0.00    +0.000 A 
ATOM     23  C   UNL     1      -1.714  12.075  22.839  0.00  0.00    +0.000 A 
ATOM     24  C   UNL     1      -1.722  13.143  21.943  0.00  0.00    +0.000 A 
ATOM     25  C   UNL     1      -2.852  13.959  21.835  0.00  0.00    +0.000 A 
ATOM     26  C   UNL     1      -3.952  13.729  22.672  0.00  0.00    +0.000 A 
BRANCH  21  27
ATOM     27  N   UNL     1      -4.979  12.538  24.522  0.00  0.00    +0.000 N 
ATOM     28  H   UNL     1      -4.653  12.477  25.482  0.00  0.00    +0.000 HD
ATOM     29  H   UNL     1      -5.678  11.834  24.307  0.00  0.00    +0.000 HD
ENDBRANCH  21  27
ENDBRANCH  18  24
ENDBRANCH   1  18
TORSDOF 4
ENDMDL
MODEL 4
REMARK VINA RESULT:      -7.8      5.992     10.886
REMARK  Name = 
REMARK  4 active torsions:
REMARK  status: ('A' for Active; 'I' for Inactive)
REMARK    1  A    between atoms: N_1  and  C_2
REMARK    2  A    between atoms: C_5  and  S_6
REMARK    3  A    between atoms: S_6  and  N_9
REMARK    4  A    between atoms: C_11  and  C_12
REMARK                            x       y       z     vdW  Elec       q    Type
REMARK                         _______ _______ _______ _____ _____    ______ ____
ROOT
ATOM      1  N   UNL     1      -0.463  12.017  20.107  0.00  0.00    +0.000 N 
ATOM      2  C   UNL     1       0.571  11.123  20.207  0.00  0.00    +0.000 A 
ATOM      3  C   UNL     1       0.353  10.120  19.294  0.00  0.00    +0.000 A 
ATOM      4  C   UNL     1      -0.902  10.372  18.668  0.00  0.00    +0.000 A 
ATOM      5  C   UNL     1      -1.653   9.681  17.692  0.00  0.00    +0.000 A 
ATOM      6  C   UNL     1      -2.892  10.180  17.281  0.00  0.00    +0.000 A 
ATOM      7  C   UNL     1      -3.381  11.361  17.825  0.00  0.00    +0.000 A 
ATOM      8 CL   UNL     1      -4.912  11.957  17.306  0.00  0.00    +0.000 Cl
ATOM      9  C   UNL     1      -2.658  12.079  18.786  0.00  0.00    +0.000 A 
ATOM     10  C   UNL     1      -1.414  11.567  19.208  0.00  0.00    +0.000 A 
ENDROOT
BRANCH   3  11
ATOM     11  C   UNL     1       1.230   9.015  19.081  0.00  0.00    +0.000 C 
ATOM     12  C   UNL     1       1.524   8.109  20.030  0.00  0.00    +0.000 C 
ATOM     13  C   UNL     1       2.469   6.965  19.816  0.00  0.00    +0.000 C 
ATOM     14  N   UNL     1       2.887   6.766  18.426  0.00  0.00    +0.000 NA
ATOM     15  C   UNL     1       3.127   8.048  17.755  0.00  0.00    +0.000 C 
ATOM     16  C   UNL     1       1.863   8.924  17.716  0.00  0.00    +0.000 C 
ATOM     17  H   UNL     1       2.147   6.268  17.934  0.00  0.00    +0.000 HD
ENDBRANCH   3  11
BRANCH   1  18
ATOM     18  S   UNL     1      -0.558  13.426  21.073  0.00  0.00    +0.000 S 
ATOM     19  O   UNL     1      -0.850  14.523  20.170  0.00  0.00    +0.000 OA
ATOM     20  O   UNL     1       0.639  13.419  21.894  0.00  0.00    +0.000 OA
BRANCH  18  24
ATOM     21  C   UNL     1      -4.157  12.861  23.856  0.00  0.00    +0.000 A 
ATOM     22  C   UNL     1      -4.074  13.965  23.003  0.00  0.00    +0.000 A 
ATOM     23  C   UNL     1      -2.971  14.143  22.163  0.00  0.00    +0.000 A 
ATOM     24  C   UNL     1      -1.962  13.180  22.132  0.00  0.00    +0.000 A 
ATOM     25  C   UNL     1      -2.028  12.068  22.976  0.00  0.00    +0.000 A 
ATOM     26  C   UNL     1      -3.140  11.901  23.812  0.00  0.00    +0.000 A 
BRANCH  21  27
ATOM     27  N   UNL     1      -5.341  12.606  24.556  0.00  0.00    +0.000 N 
ATOM     28  H   UNL     1      -5.788  11.727  24.319  0.00  0.00    +0.000 HD
ATOM     29  H   UNL     1      -5.998  13.380  24.573  0.00  0.00    +0.000 HD
ENDBRANCH  21  27
ENDBRANCH  18  24
ENDBRANCH   1  18
TORSDOF 4
ENDMDL
MODEL 5
REMARK VINA RESULT:      -7.6      5.174      7.924
REMARK  Name = 
REMARK  4 active torsions:
REMARK  status: ('A' for Active; 'I' for Inactive)
REMARK    1  A    between atoms: N_1  and  C_2
REMARK    2  A    between atoms: C_5  and  S_6
REMARK    3  A    between atoms: S_6  and  N_9
REMARK    4  A    between atoms: C_11  and  C_12
REMARK                            x       y       z     vdW  Elec       q    Type
REMARK                         _______ _______ _______ _____ _____    ______ ____
ROOT
ATOM      1  N   UNL     1      -0.060  10.226  20.086  0.00  0.00    +0.000 N 
ATOM      2  C   UNL     1      -1.167   9.907  19.344  0.00  0.00    +0.000 A 
ATOM      3  C   UNL     1      -1.461  10.981  18.539  0.00  0.00    +0.000 A 
ATOM      4  C   UNL     1      -0.544  12.024  18.861  0.00  0.00    +0.000 A 
ATOM      5  C   UNL     1      -0.383  13.347  18.397  0.00  0.00    +0.000 A 
ATOM      6  C   UNL     1       0.624  14.157  18.930  0.00  0.00    +0.000 A 
ATOM      7  C   UNL     1       1.471  13.658  19.911  0.00  0.00    +0.000 A 
ATOM      8 CL   UNL     1       2.704  14.674  20.557  0.00  0.00    +0.000 Cl
ATOM      9  C   UNL     1       1.348  12.346  20.386  0.00  0.00    +0.000 A 
ATOM     10  C   UNL     1       0.324  11.535  19.855  0.00  0.00    +0.000 A 
ENDROOT
BRANCH   3  11
ATOM     11  C   UNL     1      -2.535  11.020  17.602  0.00  0.00    +0.000 C 
ATOM     12  C   UNL     1      -2.382  10.773  16.290  0.00  0.00    +0.000 C 
ATOM     13  C   UNL     1      -3.506  10.843  15.299  0.00  0.00    +0.000 C 
ATOM     14  N   UNL     1      -4.839  10.983  15.891  0.00  0.00    +0.000 NA
ATOM     15  C   UNL     1      -4.817  11.898  17.038  0.00  0.00    +0.000 C 
ATOM     16  C   UNL     1      -3.886  11.398  18.156  0.00  0.00    +0.000 C 
ATOM     17  H   UNL     1      -5.151  10.065  16.205  0.00  0.00    +0.000 HD
ENDBRANCH   3  11
BRANCH   1  18
ATOM     18  S   UNL     1       0.638   9.141  21.210  0.00  0.00    +0.000 S 
ATOM     19  O   UNL     1      -0.464   8.442  21.844  0.00  0.00    +0.000 OA
ATOM     20  O   UNL     1       1.579   9.931  21.984  0.00  0.00    +0.000 OA
BRANCH  18  24
ATOM     21  C   UNL     1       2.948   6.131  18.637  0.00  0.00    +0.000 A 
ATOM     22  C   UNL     1       2.755   7.446  18.206  0.00  0.00    +0.000 A 
ATOM     23  C   UNL     1       2.040   8.361  18.986  0.00  0.00    +0.000 A 
ATOM     24  C   UNL     1       1.558   7.976  20.237  0.00  0.00    +0.000 A 
ATOM     25  C   UNL     1       1.743   6.665  20.686  0.00  0.00    +0.000 A 
ATOM     26  C   UNL     1       2.462   5.760  19.895  0.00  0.00    +0.000 A 
BRANCH  21  27
ATOM     27  N   UNL     1       3.810   5.285  17.932  0.00  0.00    +0.000 N 
ATOM     28  H   UNL     1       3.416   4.377  17.709  0.00  0.00    +0.000 HD
ATOM     29  H   UNL     1       4.746   5.215  18.320  0.00  0.00    +0.000 HD
ENDBRANCH  21  27
ENDBRANCH  18  24
ENDBRANCH   1  18
TORSDOF 4
ENDMDL
MODEL 6
REMARK VINA RESULT:      -7.6      5.099      7.935
REMARK  Name = 
REMARK  4 active torsions:
REMARK  status: ('A' for Active; 'I' for Inactive)
REMARK    1  A    between atoms: N_1  and  C_2
REMARK    2  A    between atoms: C_5  and  S_6
REMARK    3  A    between atoms: S_6  and  N_9
REMARK    4  A    between atoms: C_11  and  C_12
REMARK                            x       y       z     vdW  Elec       q    Type
REMARK                         _______ _______ _______ _____ _____    ______ ____
ROOT
ATOM      1  N   UNL     1      -0.054  10.312  20.106  0.00  0.00    +0.000 N 
ATOM      2  C   UNL     1      -1.259  10.112  19.485  0.00  0.00    +0.000 A 
ATOM      3  C   UNL     1      -1.527  11.217  18.714  0.00  0.00    +0.000 A 
ATOM      4  C   UNL     1      -0.482  12.160  18.935  0.00  0.00    +0.000 A 
ATOM      5  C   UNL     1      -0.238  13.465  18.454  0.00  0.00    +0.000 A 
ATOM      6  C   UNL     1       0.895  14.165  18.877  0.00  0.00    +0.000 A 
ATOM      7  C   UNL     1       1.786  13.576  19.764  0.00  0.00    +0.000 A 
ATOM      8 CL   UNL     1       3.175  14.459  20.276  0.00  0.00    +0.000 Cl
ATOM      9  C   UNL     1       1.583  12.279  20.252  0.00  0.00    +0.000 A 
ATOM     10  C   UNL     1       0.433  11.579  19.834  0.00  0.00    +0.000 A 
ENDROOT
BRANCH   3  11
ATOM     11  C   UNL     1      -2.684  11.370  17.894  0.00  0.00    +0.000 C 
ATOM     12  C   UNL     1      -3.893  11.706  18.374  0.00  0.00    +0.000 C 
ATOM     13  C   UNL     1      -5.117  11.837  17.517  0.00  0.00    +0.000 C 
ATOM     14  N   UNL     1      -4.863  11.792  16.075  0.00  0.00    +0.000 NA
ATOM     15  C   UNL     1      -3.844  10.789  15.746  0.00  0.00    +0.000 C 
ATOM     16  C   UNL     1      -2.496  11.093  16.424  0.00  0.00    +0.000 C 
ATOM     17  H   UNL     1      -4.534  12.708  15.775  0.00  0.00    +0.000 HD
ENDBRANCH   3  11
BRANCH   1  18
ATOM     18  S   UNL     1       0.646   9.153  21.153  0.00  0.00    +0.000 S 
ATOM     19  O   UNL     1      -0.453   8.389  21.711  0.00  0.00    +0.000 OA
ATOM     20  O   UNL     1       1.561   9.895  22.002  0.00  0.00    +0.000 OA
BRANCH  18  24
ATOM     21  C   UNL     1       3.043   6.387  18.392  0.00  0.00    +0.000 A 
ATOM     22  C   UNL     1       2.745   7.699  18.013  0.00  0.00    +0.000 A 
ATOM     23  C   UNL     1       2.004   8.539  18.850  0.00  0.00    +0.000 A 
ATOM     24  C   UNL     1       1.600   8.084  20.106  0.00  0.00    +0.000 A 
ATOM     25  C   UNL     1       1.890   6.776  20.504  0.00  0.00    +0.000 A 
ATOM     26  C   UNL     1       2.635   5.946  19.655  0.00  0.00    +0.000 A 
BRANCH  21  27
ATOM     27  N   UNL     1       3.929   5.623  17.627  0.00  0.00    +0.000 N 
ATOM     28  H   UNL     1       4.142   4.711  18.017  0.00  0.00    +0.000 HD
ATOM     29  H   UNL     1       4.763   6.118  17.325  0.00  0.00    +0.000 HD
ENDBRANCH  21  27
ENDBRANCH  18  24
ENDBRANCH   1  18
TORSDOF 4
ENDMDL
MODEL 7
REMARK VINA RESULT:      -7.5      6.012      9.087
REMARK  Name = 
REMARK  4 active torsions:
REMARK  status: ('A' for Active; 'I' for Inactive)
REMARK    1  A    between atoms: N_1  and  C_2
REMARK    2  A    between atoms: C_5  and  S_6
REMARK    3  A    between atoms: S_6  and  N_9
REMARK    4  A    between atoms: C_11  and  C_12
REMARK                            x       y       z     vdW  Elec       q    Type
REMARK                         _______ _______ _______ _____ _____    ______ ____
ROOT
ATOM      1  N   UNL     1      -0.805  12.395  20.019  0.00  0.00    +0.000 N 
ATOM      2  C   UNL     1      -1.362  12.805  21.202  0.00  0.00    +0.000 A 
ATOM      3  C   UNL     1      -2.725  12.662  21.101  0.00  0.00    +0.000 A 
ATOM      4  C   UNL     1      -3.014  12.223  19.777  0.00  0.00    +0.000 A 
ATOM      5  C   UNL     1      -4.216  11.944  19.091  0.00  0.00    +0.000 A 
ATOM      6  C   UNL     1      -4.180  11.536  17.755  0.00  0.00    +0.000 A 
ATOM      7  C   UNL     1      -2.962  11.398  17.103  0.00  0.00    +0.000 A 
ATOM      8 CL   UNL     1      -2.940  10.898  15.454  0.00  0.00    +0.000 Cl
ATOM      9  C   UNL     1      -1.749  11.655  17.755  0.00  0.00    +0.000 A 
ATOM     10  C   UNL     1      -1.789  12.077  19.099  0.00  0.00    +0.000 A 
ENDROOT
BRANCH   3  11
ATOM     11  C   UNL     1      -3.649  12.963  22.145  0.00  0.00    +0.000 C 
ATOM     12  C   UNL     1      -4.662  13.836  22.009  0.00  0.00    +0.000 C 
ATOM     13  C   UNL     1      -5.616  14.175  23.115  0.00  0.00    +0.000 C 
ATOM     14  N   UNL     1      -5.509  13.321  24.301  0.00  0.00    +0.000 NA
ATOM     15  C   UNL     1      -4.108  13.016  24.611  0.00  0.00    +0.000 C 
ATOM     16  C   UNL     1      -3.413  12.266  23.461  0.00  0.00    +0.000 C 
ATOM     17  H   UNL     1      -6.005  12.450  24.118  0.00  0.00    +0.000 HD
ENDBRANCH   3  11
BRANCH   1  18
ATOM     18  S   UNL     1       0.884  12.406  19.744  0.00  0.00    +0.000 S 
ATOM     19  O   UNL     1       1.500  12.796  20.998  0.00  0.00    +0.000 OA
ATOM     20  O   UNL     1       1.078  13.180  18.532  0.00  0.00    +0.000 OA
BRANCH  18  24
ATOM     21  C   UNL     1       1.943   8.045  18.808  0.00  0.00    +0.000 A 
ATOM     22  C   UNL     1       2.153   9.055  17.865  0.00  0.00    +0.000 A 
ATOM     23  C   UNL     1       1.819  10.383  18.146  0.00  0.00    +0.000 A 
ATOM     24  C   UNL     1       1.319  10.719  19.404  0.00  0.00    +0.000 A 
ATOM     25  C   UNL     1       1.103   9.724  20.362  0.00  0.00    +0.000 A 
ATOM     26  C   UNL     1       1.444   8.397  20.067  0.00  0.00    +0.000 A 
BRANCH  21  27
ATOM     27  N   UNL     1       2.442   6.759  18.578  0.00  0.00    +0.000 N 
ATOM     28  H   UNL     1       3.338   6.573  19.017  0.00  0.00    +0.000 HD
ATOM     29  H   UNL     1       2.420   6.463  17.607  0.00  0.00    +0.000 HD
ENDBRANCH  21  27
ENDBRANCH  18  24
ENDBRANCH   1  18
TORSDOF 4
ENDMDL
MODEL 8
REMARK VINA RESULT:      -7.4      5.878      9.026
REMARK  Name = 
REMARK  4 active torsions:
REMARK  status: ('A' for Active; 'I' for Inactive)
REMARK    1  A    between atoms: N_1  and  C_2
REMARK    2  A    between atoms: C_5  and  S_6
REMARK    3  A    between atoms: S_6  and  N_9
REMARK    4  A    between atoms: C_11  and  C_12
REMARK                            x       y       z     vdW  Elec       q    Type
REMARK                         _______ _______ _______ _____ _____    ______ ____
ROOT
ATOM      1  N   UNL     1      -0.674  12.281  19.969  0.00  0.00    +0.000 N 
ATOM      2  C   UNL     1      -1.186  12.691  21.172  0.00  0.00    +0.000 A 
ATOM      3  C   UNL     1      -2.554  12.584  21.109  0.00  0.00    +0.000 A 
ATOM      4  C   UNL     1      -2.893  12.167  19.789  0.00  0.00    +0.000 A 
ATOM      5  C   UNL     1      -4.121  11.926  19.135  0.00  0.00    +0.000 A 
ATOM      6  C   UNL     1      -4.134  11.533  17.794  0.00  0.00    +0.000 A 
ATOM      7  C   UNL     1      -2.938  11.371  17.106  0.00  0.00    +0.000 A 
ATOM      8 CL   UNL     1      -2.977  10.890  15.452  0.00  0.00    +0.000 Cl
ATOM      9  C   UNL     1      -1.702  11.590  17.725  0.00  0.00    +0.000 A 
ATOM     10  C   UNL     1      -1.692  11.997  19.075  0.00  0.00    +0.000 A 
ENDROOT
BRANCH   3  11
ATOM     11  C   UNL     1      -3.441  12.896  22.182  0.00  0.00    +0.000 C 
ATOM     12  C   UNL     1      -3.391  12.295  23.383  0.00  0.00    +0.000 C 
ATOM     13  C   UNL     1      -4.342  12.601  24.501  0.00  0.00    +0.000 C 
ATOM     14  N   UNL     1      -5.200  13.767  24.275  0.00  0.00    +0.000 NA
ATOM     15  C   UNL     1      -5.664  13.824  22.884  0.00  0.00    +0.000 C 
ATOM     16  C   UNL     1      -4.494  13.935  21.890  0.00  0.00    +0.000 C 
ATOM     17  H   UNL     1      -4.663  14.609  24.479  0.00  0.00    +0.000 HD
ENDBRANCH   3  11
BRANCH   1  18
ATOM     18  S   UNL     1       1.006  12.252  19.645  0.00  0.00    +0.000 S 
ATOM     19  O   UNL     1       1.667  12.629  20.880  0.00  0.00    +0.000 OA
ATOM     20  O   UNL     1       1.183  13.020  18.426  0.00  0.00    +0.000 OA
BRANCH  18  24
ATOM     21  C   UNL     1       2.070   7.874  18.800  0.00  0.00    +0.000 A 
ATOM     22  C   UNL     1       1.540   8.259  20.034  0.00  0.00    +0.000 A 
ATOM     23  C   UNL     1       1.226   9.596  20.296  0.00  0.00    +0.000 A 
ATOM     24  C   UNL     1       1.392  10.555  19.296  0.00  0.00    +0.000 A 
ATOM     25  C   UNL     1       1.920  10.189  18.054  0.00  0.00    +0.000 A 
ATOM     26  C   UNL     1       2.228   8.845  17.805  0.00  0.00    +0.000 A 
BRANCH  21  27
ATOM     27  N   UNL     1       2.212   6.516  18.494  0.00  0.00    +0.000 N 
ATOM     28  H   UNL     1       1.393   6.095  18.067  0.00  0.00    +0.000 HD
ATOM     29  H   UNL     1       2.589   5.950  19.247  0.00  0.00    +0.000 HD
ENDBRANCH  21  27
ENDBRANCH  18  24
ENDBRANCH   1  18
TORSDOF 4
ENDMDL
MODEL 9
REMARK VINA RESULT:      -7.3      4.971      7.728
REMARK  Name = 
REMARK  4 active torsions:
REMARK  status: ('A' for Active; 'I' for Inactive)
REMARK    1  A    between atoms: N_1  and  C_2
REMARK    2  A    between atoms: C_5  and  S_6
REMARK    3  A    between atoms: S_6  and  N_9
REMARK    4  A    between atoms: C_11  and  C_12
REMARK                            x       y       z     vdW  Elec       q    Type
REMARK                         _______ _______ _______ _____ _____    ______ ____
ROOT
ATOM      1  N   UNL     1       0.587  10.594  20.589  0.00  0.00    +0.000 N 
ATOM      2  C   UNL     1       1.400  11.688  20.726  0.00  0.00    +0.000 A 
ATOM      3  C   UNL     1       0.940  12.667  19.878  0.00  0.00    +0.000 A 
ATOM      4  C   UNL     1      -0.148  12.119  19.138  0.00  0.00    +0.000 A 
ATOM      5  C   UNL     1      -0.978  12.629  18.116  0.00  0.00    +0.000 A 
ATOM      6  C   UNL     1      -1.975  11.824  17.559  0.00  0.00    +0.000 A 
ATOM      7  C   UNL     1      -2.156  10.524  18.015  0.00  0.00    +0.000 A 
ATOM      8 CL   UNL     1      -3.389   9.548  17.311  0.00  0.00    +0.000 Cl
ATOM      9  C   UNL     1      -1.359   9.989  19.034  0.00  0.00    +0.000 A 
ATOM     10  C   UNL     1      -0.346  10.799  19.587  0.00  0.00    +0.000 A 
ENDROOT
BRANCH   3  11
ATOM     11  C   UNL     1       1.513  13.967  19.755  0.00  0.00    +0.000 C 
ATOM     12  C   UNL     1       0.981  15.067  20.313  0.00  0.00    +0.000 C 
ATOM     13  C   UNL     1       1.567  16.439  20.160  0.00  0.00    +0.000 C 
ATOM     14  N   UNL     1       2.894  16.473  19.540  0.00  0.00    +0.000 NA
ATOM     15  C   UNL     1       2.990  15.509  18.438  0.00  0.00    +0.000 C 
ATOM     16  C   UNL     1       2.762  14.064  18.915  0.00  0.00    +0.000 C 
ATOM     17  H   UNL     1       3.588  16.238  20.247  0.00  0.00    +0.000 HD
ENDBRANCH   3  11
BRANCH   1  18
ATOM     18  S   UNL     1       0.819   9.157  21.488  0.00  0.00    +0.000 S 
ATOM     19  O   UNL     1      -0.503   8.682  21.850  0.00  0.00    +0.000 OA
ATOM     20  O   UNL     1       1.809   9.483  22.499  0.00  0.00    +0.000 OA
BRANCH  18  24
ATOM     21  C   UNL     1       2.754   6.158  18.612  0.00  0.00    +0.000 A 
ATOM     22  C   UNL     1       2.282   5.752  19.863  0.00  0.00    +0.000 A 
ATOM     23  C   UNL     1       1.702   6.669  20.745  0.00  0.00    +0.000 A 
ATOM     24  C   UNL     1       1.541   7.998  20.354  0.00  0.00    +0.000 A 
ATOM     25  C   UNL     1       2.006   8.423  19.106  0.00  0.00    +0.000 A 
ATOM     26  C   UNL     1       2.583   7.493  18.231  0.00  0.00    +0.000 A 
BRANCH  21  27
ATOM     27  N   UNL     1       3.167   5.202  17.677  0.00  0.00    +0.000 N 
ATOM     28  H   UNL     1       4.155   5.241  17.447  0.00  0.00    +0.000 HD
ATOM     29  H   UNL     1       2.581   5.136  16.852  0.00  0.00    +0.000 HD
ENDBRANCH  21  27
ENDBRANCH  18  24
ENDBRANCH   1  18
TORSDOF 4
ENDMDL
