MODEL 1
REMARK VINA RESULT:      -8.4      0.000      0.000
REMARK  Name = 
REMARK  7 active torsions:
REMARK  status: ('A' for Active; 'I' for Inactive)
REMARK    1  A    between atoms: C_2  and  C_3
REMARK    2  A    between atoms: C_6  and  C_7
REMARK    3  A    between atoms: C_7  and  N_8
REMARK    4  A    between atoms: C_12  and  C_13
REMARK    5  A    between atoms: C_13  and  N_14
REMARK    6  A    between atoms: N_14  and  C_15
REMARK    7  A    between atoms: C_19  and  C_21
REMARK                            x       y       z     vdW  Elec       q    Type
REMARK                         _______ _______ _______ _____ _____    ______ ____
ROOT
ATOM      1  N   UNL     1       1.648   7.305  20.951  0.00  0.00    +0.000 NA
ATOM      2  H   UNL     1       0.746   7.009  21.311  0.00  0.00    +0.000 HD
ENDROOT
BRANCH   1   3
ATOM      3  C   UNL     1       1.910   6.632  19.677  0.00  0.00    +0.000 C 
ATOM      4  C   UNL     1       2.576   7.559  18.679  0.00  0.00    +0.000 C 
ATOM      5  C   UNL     1       3.345   6.609  17.808  0.00  0.00    +0.000 C 
ATOM      6  N   UNL     1       3.753   5.516  18.667  0.00  0.00    +0.000 N 
ATOM      7  C   UNL     1       4.761   4.588  18.402  0.00  0.00    +0.000 C 
ATOM      8  O   UNL     1       5.088   3.688  19.171  0.00  0.00    +0.000 OA
ATOM      9  C   UNL     1       2.940   5.501  19.826  0.00  0.00    +0.000 C 
ATOM     10  O   UNL     1       2.959   4.723  20.768  0.00  0.00    +0.000 OA
BRANCH   7  11
ATOM     11  C   UNL     1       5.561   4.693  17.149  0.00  0.00    +0.000 A 
ATOM     12  C   UNL     1       6.715   5.472  17.172  0.00  0.00    +0.000 A 
ATOM     13  N   UNL     1       7.494   5.711  16.083  0.00  0.00    +0.000 NA
ATOM     14  C   UNL     1       7.107   5.141  14.918  0.00  0.00    +0.000 A 
ATOM     15  C   UNL     1       6.002   4.318  14.808  0.00  0.00    +0.000 A 
ATOM     16 BR   UNL     1       5.489   3.591  13.145  0.00  0.00    +0.000 Br
ATOM     17  C   UNL     1       5.244   4.056  15.947  0.00  0.00    +0.000 A 
ENDBRANCH   7  11
ENDBRANCH   1   3
BRANCH   1  18
ATOM     18  C   UNL     1       1.800   8.754  20.920  0.00  0.00    +0.000 C 
BRANCH  18  23
ATOM     19  N   UNL     1       0.168  10.681  21.373  0.00  0.00    +0.000 N 
ATOM     20  C   UNL     1      -0.695  10.997  22.390  0.00  0.00    +0.000 A 
ATOM     21  N   UNL     1      -0.648  10.120  23.364  0.00  0.00    +0.000 NA
ATOM     22  C   UNL     1       0.267   9.190  22.960  0.00  0.00    +0.000 A 
ATOM     23  C   UNL     1       0.805   9.510  21.726  0.00  0.00    +0.000 A 
BRANCH  19  24
ATOM     24  C   UNL     1       0.440  11.563  20.252  0.00  0.00    +0.000 C 
BRANCH  24  28
ATOM     25  C   UNL     1      -2.139  10.632  16.914  0.00  0.00    +0.000 A 
ATOM     26  C   UNL     1      -1.143   9.734  17.308  0.00  0.00    +0.000 A 
ATOM     27  C   UNL     1      -0.280  10.057  18.359  0.00  0.00    +0.000 A 
ATOM     28  C   UNL     1      -0.406  11.278  19.037  0.00  0.00    +0.000 A 
ATOM     29  C   UNL     1      -1.384  12.189  18.612  0.00  0.00    +0.000 A 
ATOM     30  C   UNL     1      -2.247  11.866  17.559  0.00  0.00    +0.000 A 
BRANCH  25  32
ATOM     31  N   UNL     1      -3.797   9.999  15.021  0.00  0.00    +0.000 NA
ATOM     32  C   UNL     1      -3.057  10.276  15.874  0.00  0.00    +0.000 C 
ENDBRANCH  25  32
ENDBRANCH  24  28
ENDBRANCH  19  24
ENDBRANCH  18  23
ENDBRANCH   1  18
TORSDOF 7
ENDMDL
MODEL 2
REMARK VINA RESULT:      -8.2      1.870      2.838
REMARK  Name = 
REMARK  7 active torsions:
REMARK  status: ('A' for Active; 'I' for Inactive)
REMARK    1  A    between atoms: C_2  and  C_3
REMARK    2  A    between atoms: C_6  and  C_7
REMARK    3  A    between atoms: C_7  and  N_8
REMARK    4  A    between atoms: C_12  and  C_13
REMARK    5  A    between atoms: C_13  and  N_14
REMARK    6  A    between atoms: N_14  and  C_15
REMARK    7  A    between atoms: C_19  and  C_21
REMARK                            x       y       z     vdW  Elec       q    Type
REMARK                         _______ _______ _______ _____ _____    ______ ____
ROOT
ATOM      1  N   UNL     1       1.946   7.825  20.537  0.00  0.00    +0.000 NA
ATOM      2  H   UNL     1       2.614   7.496  21.227  0.00  0.00    +0.000 HD
ENDROOT
BRANCH   1   3
ATOM      3  C   UNL     1       2.143   7.098  19.281  0.00  0.00    +0.000 C 
ATOM      4  C   UNL     1       2.888   7.934  18.259  0.00  0.00    +0.000 C 
ATOM      5  C   UNL     1       3.567   6.895  17.414  0.00  0.00    +0.000 C 
ATOM      6  N   UNL     1       3.877   5.794  18.303  0.00  0.00    +0.000 N 
ATOM      7  C   UNL     1       4.797   4.772  18.063  0.00  0.00    +0.000 C 
ATOM      8  O   UNL     1       5.043   3.867  18.857  0.00  0.00    +0.000 OA
ATOM      9  C   UNL     1       3.068   5.883  19.462  0.00  0.00    +0.000 C 
ATOM     10  O   UNL     1       3.020   5.132  20.425  0.00  0.00    +0.000 OA
BRANCH   7  11
ATOM     11  C   UNL     1       5.600   4.771  16.808  0.00  0.00    +0.000 A 
ATOM     12  C   UNL     1       6.782   5.507  16.785  0.00  0.00    +0.000 A 
ATOM     13  N   UNL     1       7.569   5.651  15.685  0.00  0.00    +0.000 NA
ATOM     14  C   UNL     1       7.162   5.024  14.558  0.00  0.00    +0.000 A 
ATOM     15  C   UNL     1       6.027   4.236  14.496  0.00  0.00    +0.000 A 
ATOM     16 BR   UNL     1       5.488   3.427  12.880  0.00  0.00    +0.000 Br
ATOM     17  C   UNL     1       5.261   4.073  15.646  0.00  0.00    +0.000 A 
ENDBRANCH   7  11
ENDBRANCH   1   3
BRANCH   1  18
ATOM     18  C   UNL     1       0.575   7.832  21.031  0.00  0.00    +0.000 C 
BRANCH  18  23
ATOM     19  N   UNL     1      -0.476  10.170  21.128  0.00  0.00    +0.000 N 
ATOM     20  C   UNL     1      -0.716  11.081  22.124  0.00  0.00    +0.000 A 
ATOM     21  N   UNL     1      -0.279  10.662  23.288  0.00  0.00    +0.000 NA
ATOM     22  C   UNL     1       0.250   9.428  23.044  0.00  0.00    +0.000 A 
ATOM     23  C   UNL     1       0.154   9.088  21.706  0.00  0.00    +0.000 A 
BRANCH  19  24
ATOM     24  C   UNL     1      -0.705  10.446  19.720  0.00  0.00    +0.000 C 
BRANCH  24  28
ATOM     25  C   UNL     1       1.932  13.576  18.339  0.00  0.00    +0.000 A 
ATOM     26  C   UNL     1       0.626  13.878  18.733  0.00  0.00    +0.000 A 
ATOM     27  C   UNL     1      -0.241  12.858  19.136  0.00  0.00    +0.000 A 
ATOM     28  C   UNL     1       0.190  11.522  19.160  0.00  0.00    +0.000 A 
ATOM     29  C   UNL     1       1.490  11.224  18.729  0.00  0.00    +0.000 A 
ATOM     30  C   UNL     1       2.357  12.245  18.323  0.00  0.00    +0.000 A 
BRANCH  25  32
ATOM     31  N   UNL     1       3.561  15.485  17.675  0.00  0.00    +0.000 NA
ATOM     32  C   UNL     1       2.836  14.628  17.979  0.00  0.00    +0.000 C 
ENDBRANCH  25  32
ENDBRANCH  24  28
ENDBRANCH  19  24
ENDBRANCH  18  23
ENDBRANCH   1  18
TORSDOF 7
ENDMDL
MODEL 3
REMARK VINA RESULT:      -8.1      1.294      1.602
REMARK  Name = 
REMARK  7 active torsions:
REMARK  status: ('A' for Active; 'I' for Inactive)
REMARK    1  A    between atoms: C_2  and  C_3
REMARK    2  A    between atoms: C_6  and  C_7
REMARK    3  A    between atoms: C_7  and  N_8
REMARK    4  A    between atoms: C_12  and  C_13
REMARK    5  A    between atoms: C_13  and  N_14
REMARK    6  A    between atoms: N_14  and  C_15
REMARK    7  A    between atoms: C_19  and  C_21
REMARK                            x       y       z     vdW  Elec       q    Type
REMARK                         _______ _______ _______ _____ _____    ______ ____
ROOT
ATOM      1  N   UNL     1       2.161   7.858  20.362  0.00  0.00    +0.000 NA
ATOM      2  H   UNL     1       2.905   7.586  20.996  0.00  0.00    +0.000 HD
ENDROOT
BRANCH   1   3
ATOM      3  C   UNL     1       2.306   7.135  19.097  0.00  0.00    +0.000 C 
ATOM      4  C   UNL     1       3.045   7.958  18.061  0.00  0.00    +0.000 C 
ATOM      5  C   UNL     1       3.675   6.909  17.192  0.00  0.00    +0.000 C 
ATOM      6  N   UNL     1       3.980   5.794  18.065  0.00  0.00    +0.000 N 
ATOM      7  C   UNL     1       4.868   4.751  17.796  0.00  0.00    +0.000 C 
ATOM      8  O   UNL     1       5.112   3.835  18.577  0.00  0.00    +0.000 OA
ATOM      9  C   UNL     1       3.205   5.896  19.246  0.00  0.00    +0.000 C 
ATOM     10  O   UNL     1       3.163   5.140  20.206  0.00  0.00    +0.000 OA
BRANCH   7  11
ATOM     11  C   UNL     1       5.638   4.738  16.520  0.00  0.00    +0.000 A 
ATOM     12  C   UNL     1       6.835   5.448  16.469  0.00  0.00    +0.000 A 
ATOM     13  N   UNL     1       7.596   5.579  15.350  0.00  0.00    +0.000 NA
ATOM     14  C   UNL     1       7.145   4.968  14.230  0.00  0.00    +0.000 A 
ATOM     15  C   UNL     1       5.992   4.206  14.195  0.00  0.00    +0.000 A 
ATOM     16 BR   UNL     1       5.392   3.418  12.590  0.00  0.00    +0.000 Br
ATOM     17  C   UNL     1       5.252   4.055  15.364  0.00  0.00    +0.000 A 
ENDBRANCH   7  11
ENDBRANCH   1   3
BRANCH   1  18
ATOM     18  C   UNL     1       0.838   7.770  20.968  0.00  0.00    +0.000 C 
BRANCH  18  23
ATOM     19  N   UNL     1      -0.127  10.143  21.090  0.00  0.00    +0.000 N 
ATOM     20  C   UNL     1      -0.459  11.000  22.107  0.00  0.00    +0.000 A 
ATOM     21  N   UNL     1      -0.192  10.490  23.285  0.00  0.00    +0.000 NA
ATOM     22  C   UNL     1       0.317   9.250  23.027  0.00  0.00    +0.000 A 
ATOM     23  C   UNL     1       0.382   9.000  21.668  0.00  0.00    +0.000 A 
BRANCH  19  24
ATOM     24  C   UNL     1      -0.163  10.517  19.687  0.00  0.00    +0.000 C 
BRANCH  24  28
ATOM     25  C   UNL     1      -4.029  11.578  18.079  0.00  0.00    +0.000 A 
ATOM     26  C   UNL     1      -3.488  12.297  19.148  0.00  0.00    +0.000 A 
ATOM     27  C   UNL     1      -2.258  11.924  19.697  0.00  0.00    +0.000 A 
ATOM     28  C   UNL     1      -1.546  10.832  19.178  0.00  0.00    +0.000 A 
ATOM     29  C   UNL     1      -2.112  10.093  18.129  0.00  0.00    +0.000 A 
ATOM     30  C   UNL     1      -3.345  10.466  17.581  0.00  0.00    +0.000 A 
BRANCH  25  32
ATOM     31  N   UNL     1      -6.262  12.322  16.987  0.00  0.00    +0.000 NA
ATOM     32  C   UNL     1      -5.263  11.995  17.481  0.00  0.00    +0.000 C 
ENDBRANCH  25  32
ENDBRANCH  24  28
ENDBRANCH  19  24
ENDBRANCH  18  23
ENDBRANCH   1  18
TORSDOF 7
ENDMDL
MODEL 4
REMARK VINA RESULT:      -7.9      4.009      9.069
REMARK  Name = 
REMARK  7 active torsions:
REMARK  status: ('A' for Active; 'I' for Inactive)
REMARK    1  A    between atoms: C_2  and  C_3
REMARK    2  A    between atoms: C_6  and  C_7
REMARK    3  A    between atoms: C_7  and  N_8
REMARK    4  A    between atoms: C_12  and  C_13
REMARK    5  A    between atoms: C_13  and  N_14
REMARK    6  A    between atoms: N_14  and  C_15
REMARK    7  A    between atoms: C_19  and  C_21
REMARK                            x       y       z     vdW  Elec       q    Type
REMARK                         _______ _______ _______ _____ _____    ______ ____
ROOT
ATOM      1  N   UNL     1       3.823   7.023  17.326  0.00  0.00    +0.000 NA
ATOM      2  H   UNL     1       3.659   6.505  16.468  0.00  0.00    +0.000 HD
ENDROOT
BRANCH   1   3
ATOM      3  C   UNL     1       2.555   7.208  18.036  0.00  0.00    +0.000 C 
ATOM      4  C   UNL     1       2.686   6.892  19.512  0.00  0.00    +0.000 C 
ATOM      5  C   UNL     1       1.618   7.747  20.130  0.00  0.00    +0.000 C 
ATOM      6  N   UNL     1       1.534   8.938  19.310  0.00  0.00    +0.000 N 
ATOM      7  C   UNL     1       0.948  10.152  19.674  0.00  0.00    +0.000 C 
ATOM      8  O   UNL     1       0.918  11.146  18.952  0.00  0.00    +0.000 OA
ATOM      9  C   UNL     1       2.113   8.681  18.044  0.00  0.00    +0.000 C 
ATOM     10  O   UNL     1       2.212   9.423  17.079  0.00  0.00    +0.000 OA
BRANCH   7  11
ATOM     11  C   UNL     1       0.365  10.321  21.035  0.00  0.00    +0.000 A 
ATOM     12  C   UNL     1       0.914   9.580  22.080  0.00  0.00    +0.000 A 
ATOM     13  N   UNL     1       0.432   9.584  23.351  0.00  0.00    +0.000 NA
ATOM     14  C   UNL     1      -0.643  10.369  23.594  0.00  0.00    +0.000 A 
ATOM     15  C   UNL     1      -1.228  11.172  22.632  0.00  0.00    +0.000 A 
ATOM     16 BR   UNL     1      -2.755  12.207  23.024  0.00  0.00    +0.000 Br
ATOM     17  C   UNL     1      -0.691  11.180  21.348  0.00  0.00    +0.000 A 
ENDBRANCH   7  11
ENDBRANCH   1   3
BRANCH   1  18
ATOM     18  C   UNL     1       4.898   6.459  18.133  0.00  0.00    +0.000 C 
BRANCH  18  23
ATOM     19  N   UNL     1       5.519   4.539  16.550  0.00  0.00    +0.000 N 
ATOM     20  C   UNL     1       6.695   4.033  16.059  0.00  0.00    +0.000 A 
ATOM     21  N   UNL     1       7.739   4.668  16.535  0.00  0.00    +0.000 NA
ATOM     22  C   UNL     1       7.224   5.631  17.355  0.00  0.00    +0.000 A 
ATOM     23  C   UNL     1       5.842   5.577  17.397  0.00  0.00    +0.000 A 
BRANCH  19  24
ATOM     24  C   UNL     1       4.225   3.920  16.318  0.00  0.00    +0.000 C 
BRANCH  24  28
ATOM     25  C   UNL     1       2.292   2.835  20.025  0.00  0.00    +0.000 A 
ATOM     26  C   UNL     1       3.671   2.666  19.873  0.00  0.00    +0.000 A 
ATOM     27  C   UNL     1       4.288   2.974  18.657  0.00  0.00    +0.000 A 
ATOM     28  C   UNL     1       3.536   3.466  17.579  0.00  0.00    +0.000 A 
ATOM     29  C   UNL     1       2.148   3.598  17.728  0.00  0.00    +0.000 A 
ATOM     30  C   UNL     1       1.530   3.287  18.944  0.00  0.00    +0.000 A 
BRANCH  25  32
ATOM     31  N   UNL     1       1.168   2.370  22.318  0.00  0.00    +0.000 NA
ATOM     32  C   UNL     1       1.670   2.570  21.288  0.00  0.00    +0.000 C 
ENDBRANCH  25  32
ENDBRANCH  24  28
ENDBRANCH  19  24
ENDBRANCH  18  23
ENDBRANCH   1  18
TORSDOF 7
ENDMDL
MODEL 5
REMARK VINA RESULT:      -7.8      1.982      2.835
REMARK  Name = 
REMARK  7 active torsions:
REMARK  status: ('A' for Active; 'I' for Inactive)
REMARK    1  A    between atoms: C_2  and  C_3
REMARK    2  A    between atoms: C_6  and  C_7
REMARK    3  A    between atoms: C_7  and  N_8
REMARK    4  A    between atoms: C_12  and  C_13
REMARK    5  A    between atoms: C_13  and  N_14
REMARK    6  A    between atoms: N_14  and  C_15
REMARK    7  A    between atoms: C_19  and  C_21
REMARK                            x       y       z     vdW  Elec       q    Type
REMARK                         _______ _______ _______ _____ _____    ______ ____
ROOT
ATOM      1  N   UNL     1       1.860   7.366  20.543  0.00  0.00    +0.000 NA
ATOM      2  H   UNL     1       1.149   6.889  21.090  0.00  0.00    +0.000 HD
ENDROOT
BRANCH   1   3
ATOM      3  C   UNL     1       2.105   6.623  19.305  0.00  0.00    +0.000 C 
ATOM      4  C   UNL     1       2.682   7.512  18.222  0.00  0.00    +0.000 C 
ATOM      5  C   UNL     1       3.464   6.545  17.382  0.00  0.00    +0.000 C 
ATOM      6  N   UNL     1       3.962   5.534  18.292  0.00  0.00    +0.000 N 
ATOM      7  C   UNL     1       5.006   4.640  18.044  0.00  0.00    +0.000 C 
ATOM      8  O   UNL     1       5.409   3.811  18.856  0.00  0.00    +0.000 OA
ATOM      9  C   UNL     1       3.197   5.556  19.484  0.00  0.00    +0.000 C 
ATOM     10  O   UNL     1       3.295   4.845  20.473  0.00  0.00    +0.000 OA
BRANCH   7  11
ATOM     11  C   UNL     1       5.748   4.701  16.754  0.00  0.00    +0.000 A 
ATOM     12  C   UNL     1       6.879   5.511  16.685  0.00  0.00    +0.000 A 
ATOM     13  N   UNL     1       7.603   5.713  15.553  0.00  0.00    +0.000 NA
ATOM     14  C   UNL     1       7.185   5.071  14.437  0.00  0.00    +0.000 A 
ATOM     15  C   UNL     1       6.101   4.213  14.419  0.00  0.00    +0.000 A 
ATOM     16 BR   UNL     1       5.540   3.385  12.820  0.00  0.00    +0.000 Br
ATOM     17  C   UNL     1       5.400   3.992  15.601  0.00  0.00    +0.000 A 
ENDBRANCH   7  11
ENDBRANCH   1   3
BRANCH   1  18
ATOM     18  C   UNL     1       1.579   8.784  20.360  0.00  0.00    +0.000 C 
BRANCH  18  23
ATOM     19  N   UNL     1      -0.275  10.276  21.318  0.00  0.00    +0.000 N 
ATOM     20  C   UNL     1      -0.717  10.578  22.579  0.00  0.00    +0.000 A 
ATOM     21  N   UNL     1      -0.003   9.984  23.505  0.00  0.00    +0.000 NA
ATOM     22  C   UNL     1       0.928   9.256  22.821  0.00  0.00    +0.000 A 
ATOM     23  C   UNL     1       0.796   9.418  21.454  0.00  0.00    +0.000 A 
BRANCH  19  24
ATOM     24  C   UNL     1      -0.777  10.924  20.118  0.00  0.00    +0.000 C 
BRANCH  24  28
ATOM     25  C   UNL     1       0.991  14.733  19.105  0.00  0.00    +0.000 A 
ATOM     26  C   UNL     1       1.772  13.574  19.118  0.00  0.00    +0.000 A 
ATOM     27  C   UNL     1       1.209  12.350  19.490  0.00  0.00    +0.000 A 
ATOM     28  C   UNL     1      -0.146  12.266  19.846  0.00  0.00    +0.000 A 
ATOM     29  C   UNL     1      -0.914  13.439  19.866  0.00  0.00    +0.000 A 
ATOM     30  C   UNL     1      -0.349  14.665  19.495  0.00  0.00    +0.000 A 
BRANCH  25  32
ATOM     31  N   UNL     1       2.025  16.982  18.326  0.00  0.00    +0.000 NA
ATOM     32  C   UNL     1       1.555  15.976  18.669  0.00  0.00    +0.000 C 
ENDBRANCH  25  32
ENDBRANCH  24  28
ENDBRANCH  19  24
ENDBRANCH  18  23
ENDBRANCH   1  18
TORSDOF 7
ENDMDL
MODEL 6
REMARK VINA RESULT:      -7.7      3.389      8.339
REMARK  Name = 
REMARK  7 active torsions:
REMARK  status: ('A' for Active; 'I' for Inactive)
REMARK    1  A    between atoms: C_2  and  C_3
REMARK    2  A    between atoms: C_6  and  C_7
REMARK    3  A    between atoms: C_7  and  N_8
REMARK    4  A    between atoms: C_12  and  C_13
REMARK    5  A    between atoms: C_13  and  N_14
REMARK    6  A    between atoms: N_14  and  C_15
REMARK    7  A    between atoms: C_19  and  C_21
REMARK                            x       y       z     vdW  Elec       q    Type
REMARK                         _______ _______ _______ _____ _____    ______ ____
ROOT
ATOM      1  N   UNL     1       2.623   5.557  20.965  0.00  0.00    +0.000 NA
ATOM      2  H   UNL     1       3.403   5.581  20.316  0.00  0.00    +0.000 HD
ENDROOT
BRANCH   1   3
ATOM      3  C   UNL     1       1.591   6.497  20.523  0.00  0.00    +0.000 C 
ATOM      4  C   UNL     1       1.426   7.648  21.496  0.00  0.00    +0.000 C 
ATOM      5  C   UNL     1       0.921   8.755  20.616  0.00  0.00    +0.000 C 
ATOM      6  N   UNL     1       1.535   8.549  19.320  0.00  0.00    +0.000 N 
ATOM      7  C   UNL     1       1.645   9.494  18.298  0.00  0.00    +0.000 C 
ATOM      8  O   UNL     1       2.194   9.281  17.219  0.00  0.00    +0.000 OA
ATOM      9  C   UNL     1       1.985   7.211  19.220  0.00  0.00    +0.000 C 
ATOM     10  O   UNL     1       2.530   6.651  18.280  0.00  0.00    +0.000 OA
BRANCH   7  11
ATOM     11  C   UNL     1       1.137  10.880  18.506  0.00  0.00    +0.000 A 
ATOM     12  C   UNL     1      -0.240  11.068  18.586  0.00  0.00    +0.000 A 
ATOM     13  N   UNL     1      -0.837  12.284  18.700  0.00  0.00    +0.000 NA
ATOM     14  C   UNL     1      -0.022  13.363  18.743  0.00  0.00    +0.000 A 
ATOM     15  C   UNL     1       1.358  13.272  18.714  0.00  0.00    +0.000 A 
ATOM     16 BR   UNL     1       2.438  14.817  18.731  0.00  0.00    +0.000 Br
ATOM     17  C   UNL     1       1.945  12.012  18.638  0.00  0.00    +0.000 A 
ENDBRANCH   7  11
ENDBRANCH   1   3
BRANCH   1  18
ATOM     18  C   UNL     1       2.146   4.205  21.230  0.00  0.00    +0.000 C 
BRANCH  18  23
ATOM     19  N   UNL     1       2.670   2.634  19.271  0.00  0.00    +0.000 N 
ATOM     20  C   UNL     1       1.929   2.044  18.281  0.00  0.00    +0.000 A 
ATOM     21  N   UNL     1       0.665   2.390  18.341  0.00  0.00    +0.000 NA
ATOM     22  C   UNL     1       0.577   3.223  19.419  0.00  0.00    +0.000 A 
ATOM     23  C   UNL     1       1.809   3.408  20.021  0.00  0.00    +0.000 A 
BRANCH  19  24
ATOM     24  C   UNL     1       4.119   2.557  19.338  0.00  0.00    +0.000 C 
BRANCH  24  28
ATOM     25  C   UNL     1       6.310   5.968  17.846  0.00  0.00    +0.000 A 
ATOM     26  C   UNL     1       6.379   5.622  19.199  0.00  0.00    +0.000 A 
ATOM     27  C   UNL     1       5.634   4.546  19.688  0.00  0.00    +0.000 A 
ATOM     28  C   UNL     1       4.816   3.794  18.831  0.00  0.00    +0.000 A 
ATOM     29  C   UNL     1       4.724   4.170  17.483  0.00  0.00    +0.000 A 
ATOM     30  C   UNL     1       5.469   5.249  16.994  0.00  0.00    +0.000 A 
BRANCH  25  32
ATOM     31  N   UNL     1       7.784   7.895  16.925  0.00  0.00    +0.000 NA
ATOM     32  C   UNL     1       7.117   7.036  17.335  0.00  0.00    +0.000 C 
ENDBRANCH  25  32
ENDBRANCH  24  28
ENDBRANCH  19  24
ENDBRANCH  18  23
ENDBRANCH   1  18
TORSDOF 7
ENDMDL
MODEL 7
REMARK VINA RESULT:      -7.6      3.475      8.764
REMARK  Name = 
REMARK  7 active torsions:
REMARK  status: ('A' for Active; 'I' for Inactive)
REMARK    1  A    between atoms: C_2  and  C_3
REMARK    2  A    between atoms: C_6  and  C_7
REMARK    3  A    between atoms: C_7  and  N_8
REMARK    4  A    between atoms: C_12  and  C_13
REMARK    5  A    between atoms: C_13  and  N_14
REMARK    6  A    between atoms: N_14  and  C_15
REMARK    7  A    between atoms: C_19  and  C_21
REMARK                            x       y       z     vdW  Elec       q    Type
REMARK                         _______ _______ _______ _____ _____    ______ ____
ROOT
ATOM      1  N   UNL     1       2.142   5.755  19.477  0.00  0.00    +0.000 NA
ATOM      2  H   UNL     1       2.691   5.297  20.198  0.00  0.00    +0.000 HD
ENDROOT
BRANCH   1   3
ATOM      3  C   UNL     1       2.469   7.182  19.445  0.00  0.00    +0.000 C 
ATOM      4  C   UNL     1       2.127   7.806  18.107  0.00  0.00    +0.000 C 
ATOM      5  C   UNL     1       1.867   9.240  18.468  0.00  0.00    +0.000 C 
ATOM      6  N   UNL     1       1.297   9.223  19.799  0.00  0.00    +0.000 N 
ATOM      7  C   UNL     1       0.584  10.258  20.408  0.00  0.00    +0.000 C 
ATOM      8  O   UNL     1       0.099  10.190  21.534  0.00  0.00    +0.000 OA
ATOM      9  C   UNL     1       1.602   7.990  20.426  0.00  0.00    +0.000 C 
ATOM     10  O   UNL     1       1.318   7.608  21.551  0.00  0.00    +0.000 OA
BRANCH   7  11
ATOM     11  C   UNL     1       0.316  11.518  19.659  0.00  0.00    +0.000 A 
ATOM     12  C   UNL     1      -0.844  11.590  18.892  0.00  0.00    +0.000 A 
ATOM     13  N   UNL     1      -1.171  12.650  18.105  0.00  0.00    +0.000 NA
ATOM     14  C   UNL     1      -0.305  13.690  18.089  0.00  0.00    +0.000 A 
ATOM     15  C   UNL     1       0.849  13.726  18.850  0.00  0.00    +0.000 A 
ATOM     16 BR   UNL     1       2.039  15.185  18.747  0.00  0.00    +0.000 Br
ATOM     17  C   UNL     1       1.140  12.646  19.678  0.00  0.00    +0.000 A 
ENDBRANCH   7  11
ENDBRANCH   1   3
BRANCH   1  18
ATOM     18  C   UNL     1       2.225   5.080  18.188  0.00  0.00    +0.000 C 
BRANCH  18  23
ATOM     19  N   UNL     1       3.749   3.109  17.578  0.00  0.00    +0.000 N 
ATOM     20  C   UNL     1       3.826   1.794  17.956  0.00  0.00    +0.000 A 
ATOM     21  N   UNL     1       2.881   1.472  18.807  0.00  0.00    +0.000 NA
ATOM     22  C   UNL     1       2.172   2.622  19.001  0.00  0.00    +0.000 A 
ATOM     23  C   UNL     1       2.678   3.665  18.245  0.00  0.00    +0.000 A 
BRANCH  19  24
ATOM     24  C   UNL     1       4.566   3.686  16.524  0.00  0.00    +0.000 C 
BRANCH  24  28
ATOM     25  C   UNL     1       7.001   7.086  17.606  0.00  0.00    +0.000 A 
ATOM     26  C   UNL     1       7.289   5.820  18.122  0.00  0.00    +0.000 A 
ATOM     27  C   UNL     1       6.473   4.730  17.807  0.00  0.00    +0.000 A 
ATOM     28  C   UNL     1       5.362   4.888  16.964  0.00  0.00    +0.000 A 
ATOM     29  C   UNL     1       5.059   6.168  16.480  0.00  0.00    +0.000 A 
ATOM     30  C   UNL     1       5.875   7.260  16.797  0.00  0.00    +0.000 A 
BRANCH  25  32
ATOM     31  N   UNL     1       8.566   9.091  18.123  0.00  0.00    +0.000 NA
ATOM     32  C   UNL     1       7.869   8.191  17.885  0.00  0.00    +0.000 C 
ENDBRANCH  25  32
ENDBRANCH  24  28
ENDBRANCH  19  24
ENDBRANCH  18  23
ENDBRANCH   1  18
TORSDOF 7
ENDMDL
MODEL 8
REMARK VINA RESULT:      -7.6      3.896      9.153
REMARK  Name = 
REMARK  7 active torsions:
REMARK  status: ('A' for Active; 'I' for Inactive)
REMARK    1  A    between atoms: C_2  and  C_3
REMARK    2  A    between atoms: C_6  and  C_7
REMARK    3  A    between atoms: C_7  and  N_8
REMARK    4  A    between atoms: C_12  and  C_13
REMARK    5  A    between atoms: C_13  and  N_14
REMARK    6  A    between atoms: N_14  and  C_15
REMARK    7  A    between atoms: C_19  and  C_21
REMARK                            x       y       z     vdW  Elec       q    Type
REMARK                         _______ _______ _______ _____ _____    ______ ____
ROOT
ATOM      1  N   UNL     1       3.562   6.866  18.665  0.00  0.00    +0.000 NA
ATOM      2  H   UNL     1       4.207   7.305  19.314  0.00  0.00    +0.000 HD
ENDROOT
BRANCH   1   3
ATOM      3  C   UNL     1       2.196   7.300  18.964  0.00  0.00    +0.000 C 
ATOM      4  C   UNL     1       1.909   7.268  20.452  0.00  0.00    +0.000 C 
ATOM      5  C   UNL     1       0.850   8.321  20.607  0.00  0.00    +0.000 C 
ATOM      6  N   UNL     1       1.139   9.332  19.611  0.00  0.00    +0.000 N 
ATOM      7  C   UNL     1       0.655  10.641  19.597  0.00  0.00    +0.000 C 
ATOM      8  O   UNL     1       0.944  11.473  18.741  0.00  0.00    +0.000 OA
ATOM      9  C   UNL     1       1.974   8.780  18.609  0.00  0.00    +0.000 C 
ATOM     10  O   UNL     1       2.413   9.307  17.598  0.00  0.00    +0.000 OA
BRANCH   7  11
ATOM     11  C   UNL     1      -0.219  11.125  20.703  0.00  0.00    +0.000 A 
ATOM     12  C   UNL     1       0.163  10.843  22.012  0.00  0.00    +0.000 A 
ATOM     13  N   UNL     1      -0.579  11.160  23.106  0.00  0.00    +0.000 NA
ATOM     14  C   UNL     1      -1.752  11.796  22.886  0.00  0.00    +0.000 A 
ATOM     15  C   UNL     1      -2.194  12.156  21.626  0.00  0.00    +0.000 A 
ATOM     16 BR   UNL     1      -3.863  12.998  21.381  0.00  0.00    +0.000 Br
ATOM     17  C   UNL     1      -1.397  11.854  20.525  0.00  0.00    +0.000 A 
ENDBRANCH   7  11
ENDBRANCH   1   3
BRANCH   1  18
ATOM     18  C   UNL     1       3.963   7.024  17.272  0.00  0.00    +0.000 C 
BRANCH  18  23
ATOM     19  N   UNL     1       5.548   5.223  16.365  0.00  0.00    +0.000 N 
ATOM     20  C   UNL     1       6.903   5.131  16.184  0.00  0.00    +0.000 A 
ATOM     21  N   UNL     1       7.528   6.208  16.597  0.00  0.00    +0.000 NA
ATOM     22  C   UNL     1       6.542   7.037  17.050  0.00  0.00    +0.000 A 
ATOM     23  C   UNL     1       5.293   6.455  16.930  0.00  0.00    +0.000 A 
BRANCH  19  24
ATOM     24  C   UNL     1       4.636   4.113  16.150  0.00  0.00    +0.000 C 
BRANCH  24  28
ATOM     25  C   UNL     1       2.545   3.098  19.791  0.00  0.00    +0.000 A 
ATOM     26  C   UNL     1       3.942   3.089  19.754  0.00  0.00    +0.000 A 
ATOM     27  C   UNL     1       4.616   3.373  18.563  0.00  0.00    +0.000 A 
ATOM     28  C   UNL     1       3.903   3.680  17.394  0.00  0.00    +0.000 A 
ATOM     29  C   UNL     1       2.502   3.651  17.430  0.00  0.00    +0.000 A 
ATOM     30  C   UNL     1       1.827   3.364  18.622  0.00  0.00    +0.000 A 
BRANCH  25  32
ATOM     31  N   UNL     1       1.285   2.669  22.019  0.00  0.00    +0.000 NA
ATOM     32  C   UNL     1       1.856   2.861  21.025  0.00  0.00    +0.000 C 
ENDBRANCH  25  32
ENDBRANCH  24  28
ENDBRANCH  19  24
ENDBRANCH  18  23
ENDBRANCH   1  18
TORSDOF 7
ENDMDL
MODEL 9
REMARK VINA RESULT:      -7.6      4.192      9.316
REMARK  Name = 
REMARK  7 active torsions:
REMARK  status: ('A' for Active; 'I' for Inactive)
REMARK    1  A    between atoms: C_2  and  C_3
REMARK    2  A    between atoms: C_6  and  C_7
REMARK    3  A    between atoms: C_7  and  N_8
REMARK    4  A    between atoms: C_12  and  C_13
REMARK    5  A    between atoms: C_13  and  N_14
REMARK    6  A    between atoms: N_14  and  C_15
REMARK    7  A    between atoms: C_19  and  C_21
REMARK                            x       y       z     vdW  Elec       q    Type
REMARK                         _______ _______ _______ _____ _____    ______ ____
ROOT
ATOM      1  N   UNL     1       2.900   7.234  18.741  0.00  0.00    +0.000 NA
ATOM      2  H   UNL     1       3.473   7.863  18.188  0.00  0.00    +0.000 HD
ENDROOT
BRANCH   1   3
ATOM      3  C   UNL     1       1.681   7.927  19.164  0.00  0.00    +0.000 C 
ATOM      4  C   UNL     1       1.651   8.145  20.664  0.00  0.00    +0.000 C 
ATOM      5  C   UNL     1       0.796   9.371  20.803  0.00  0.00    +0.000 C 
ATOM      6  N   UNL     1       1.054  10.175  19.626  0.00  0.00    +0.000 N 
ATOM      7  C   UNL     1       0.767  11.533  19.474  0.00  0.00    +0.000 C 
ATOM      8  O   UNL     1       1.023  12.182  18.463  0.00  0.00    +0.000 OA
ATOM      9  C   UNL     1       1.617   9.361  18.614  0.00  0.00    +0.000 C 
ATOM     10  O   UNL     1       1.948   9.667  17.478  0.00  0.00    +0.000 OA
BRANCH   7  11
ATOM     11  C   UNL     1       0.173  12.301  20.605  0.00  0.00    +0.000 A 
ATOM     12  C   UNL     1       0.945  13.296  21.199  0.00  0.00    +0.000 A 
ATOM     13  N   UNL     1       0.553  14.018  22.282  0.00  0.00    +0.000 NA
ATOM     14  C   UNL     1      -0.670  13.741  22.792  0.00  0.00    +0.000 A 
ATOM     15  C   UNL     1      -1.524  12.803  22.243  0.00  0.00    +0.000 A 
ATOM     16 BR   UNL     1      -3.197  12.429  23.029  0.00  0.00    +0.000 Br
ATOM     17  C   UNL     1      -1.114  12.105  21.110  0.00  0.00    +0.000 A 
ENDBRANCH   7  11
ENDBRANCH   1   3
BRANCH   1  18
ATOM     18  C   UNL     1       2.677   5.949  18.090  0.00  0.00    +0.000 C 
BRANCH  18  23
ATOM     19  N   UNL     1       4.306   4.053  18.667  0.00  0.00    +0.000 N 
ATOM     20  C   UNL     1       4.348   3.074  19.625  0.00  0.00    +0.000 A 
ATOM     21  N   UNL     1       3.293   3.104  20.405  0.00  0.00    +0.000 NA
ATOM     22  C   UNL     1       2.545   4.151  19.948  0.00  0.00    +0.000 A 
ATOM     23  C   UNL     1       3.140   4.764  18.859  0.00  0.00    +0.000 A 
BRANCH  19  24
ATOM     24  C   UNL     1       5.259   4.143  17.575  0.00  0.00    +0.000 C 
BRANCH  24  28
ATOM     25  C   UNL     1       7.676   7.704  17.947  0.00  0.00    +0.000 A 
ATOM     26  C   UNL     1       6.665   7.635  16.984  0.00  0.00    +0.000 A 
ATOM     27  C   UNL     1       5.914   6.466  16.834  0.00  0.00    +0.000 A 
ATOM     28  C   UNL     1       6.157   5.351  17.652  0.00  0.00    +0.000 A 
ATOM     29  C   UNL     1       7.197   5.416  18.590  0.00  0.00    +0.000 A 
ATOM     30  C   UNL     1       7.950   6.586  18.738  0.00  0.00    +0.000 A 
BRANCH  25  32
ATOM     31  N   UNL     1       9.007   9.907  18.277  0.00  0.00    +0.000 NA
ATOM     32  C   UNL     1       8.407   8.922  18.136  0.00  0.00    +0.000 C 
ENDBRANCH  25  32
ENDBRANCH  24  28
ENDBRANCH  19  24
ENDBRANCH  18  23
ENDBRANCH   1  18
TORSDOF 7
ENDMDL
