MODEL 1
REMARK VINA RESULT:      -7.6      0.000      0.000
REMARK  Name = 
REMARK  12 active torsions:
REMARK  status: ('A' for Active; 'I' for Inactive)
REMARK    1  A    between atoms: C_1  and  C_2
REMARK    2  A    between atoms: C_2  and  C_3
REMARK    3  A    between atoms: C_3  and  C_4
REMARK    4  A    between atoms: C_4  and  C_5
REMARK    5  A    between atoms: C_5  and  C_6
REMARK    6  A    between atoms: N_8  and  C_9
REMARK    7  A    between atoms: C_12  and  C_13
REMARK    8  A    between atoms: C_13  and  C_14
REMARK    9  A    between atoms: C_14  and  N_15
REMARK   10  A    between atoms: C_16  and  C_18
REMARK   11  A    between atoms: C_27  and  C_28
REMARK   12  A    between atoms: C_28  and  C_29
REMARK                            x       y       z     vdW  Elec       q    Type
REMARK                         _______ _______ _______ _____ _____    ______ ____
ROOT
ATOM      1  C   UNL     1       1.710   3.684  21.311  0.00  0.00    +0.000 C 
ENDROOT
BRANCH   1   2
ATOM      2  N   UNL     1       1.360   5.014  20.871  0.00  0.00    +0.000 N 
ATOM      3  C   UNL     1       2.327   5.877  20.436  0.00  0.00    +0.000 C 
ATOM      4  O   UNL     1       3.509   5.562  20.375  0.00  0.00    +0.000 OA
ATOM      5  H   UNL     1       0.444   5.383  21.085  0.00  0.00    +0.000 HD
BRANCH   3   6
ATOM      6  C   UNL     1       1.889   7.223  20.139  0.00  0.00    +0.000 A 
ATOM      7  N   UNL     1       1.454   8.011  21.168  0.00  0.00    +0.000 N 
ATOM      8  C   UNL     1       1.111   9.256  20.729  0.00  0.00    +0.000 A 
ATOM      9  C   UNL     1       0.688  10.355  21.482  0.00  0.00    +0.000 A 
ATOM     10  C   UNL     1       0.327  11.507  20.791  0.00  0.00    +0.000 A 
ATOM     11  C   UNL     1       0.374  11.530  19.401  0.00  0.00    +0.000 A 
ATOM     12 CL   UNL     1      -0.173  12.943  18.579  0.00  0.00    +0.000 Cl
ATOM     13  C   UNL     1       0.847  10.431  18.659  0.00  0.00    +0.000 A 
ATOM     14  C   UNL     1       1.257   9.259  19.338  0.00  0.00    +0.000 A 
ATOM     15  C   UNL     1       1.856   7.990  18.970  0.00  0.00    +0.000 A 
ATOM     16  H   UNL     1       1.399   7.693  22.126  0.00  0.00    +0.000 HD
BRANCH  15  17
ATOM     17  C   UNL     1       2.392   7.508  17.645  0.00  0.00    +0.000 C 
ATOM     18  C   UNL     1       3.884   7.260  17.524  0.00  0.00    +0.000 C 
ENDBRANCH  15  17
ENDBRANCH   3   6
ENDBRANCH   1   2
BRANCH   1  19
ATOM     19  C   UNL     1       1.663   2.653  20.170  0.00  0.00    +0.000 C 
BRANCH  19  23
ATOM     20  C   UNL     1       4.346   3.558  16.874  0.00  0.00    +0.000 A 
ATOM     21  C   UNL     1       4.840   3.112  18.097  0.00  0.00    +0.000 A 
ATOM     22  C   UNL     1       3.981   2.806  19.151  0.00  0.00    +0.000 A 
ATOM     23  C   UNL     1       2.599   2.969  19.025  0.00  0.00    +0.000 A 
ATOM     24  C   UNL     1       2.095   3.408  17.793  0.00  0.00    +0.000 A 
ATOM     25  C   UNL     1       2.963   3.711  16.729  0.00  0.00    +0.000 A 
BRANCH  20  28
ATOM     26  C   UNL     1       6.491   4.351  15.889  0.00  0.00    +0.000 C 
ATOM     27  O   UNL     1       7.176   4.402  16.906  0.00  0.00    +0.000 OA
ATOM     28  N   UNL     1       5.187   3.889  15.793  0.00  0.00    +0.000 N 
ATOM     29  H   UNL     1       4.815   3.728  14.865  0.00  0.00    +0.000 HD
BRANCH  26  30
ATOM     30  C   UNL     1       7.066   4.816  14.569  0.00  0.00    +0.000 C 
BRANCH  30  31
ATOM     31  C   UNL     1       6.063   4.618  13.438  0.00  0.00    +0.000 C 
BRANCH  31  32
ATOM     32  C   UNL     1       6.637   3.736  12.332  0.00  0.00    +0.000 C 
BRANCH  32  34
ATOM     33  C   UNL     1       4.424   3.154  11.275  0.00  0.00    +0.000 C 
ATOM     34  C   UNL     1       5.660   2.617  11.975  0.00  0.00    +0.000 C 
ENDBRANCH  32  34
ENDBRANCH  31  32
ENDBRANCH  30  31
ENDBRANCH  26  30
ENDBRANCH  20  28
ENDBRANCH  19  23
ENDBRANCH   1  19
TORSDOF 10
ENDMDL
MODEL 2
REMARK VINA RESULT:      -7.6      6.582      8.230
REMARK  Name = 
REMARK  12 active torsions:
REMARK  status: ('A' for Active; 'I' for Inactive)
REMARK    1  A    between atoms: C_1  and  C_2
REMARK    2  A    between atoms: C_2  and  C_3
REMARK    3  A    between atoms: C_3  and  C_4
REMARK    4  A    between atoms: C_4  and  C_5
REMARK    5  A    between atoms: C_5  and  C_6
REMARK    6  A    between atoms: N_8  and  C_9
REMARK    7  A    between atoms: C_12  and  C_13
REMARK    8  A    between atoms: C_13  and  C_14
REMARK    9  A    between atoms: C_14  and  N_15
REMARK   10  A    between atoms: C_16  and  C_18
REMARK   11  A    between atoms: C_27  and  C_28
REMARK   12  A    between atoms: C_28  and  C_29
REMARK                            x       y       z     vdW  Elec       q    Type
REMARK                         _______ _______ _______ _____ _____    ______ ____
ROOT
ATOM      1  C   UNL     1       9.425   9.665  18.786  0.00  0.00    +0.000 C 
ENDROOT
BRANCH   1   2
ATOM      2  N   UNL     1       9.009  10.578  19.824  0.00  0.00    +0.000 N 
ATOM      3  C   UNL     1       9.920  11.391  20.438  0.00  0.00    +0.000 C 
ATOM      4  O   UNL     1      11.105  11.402  20.126  0.00  0.00    +0.000 OA
ATOM      5  H   UNL     1       8.098  10.468  20.247  0.00  0.00    +0.000 HD
BRANCH   3   6
ATOM      6  C   UNL     1       9.425  12.174  21.548  0.00  0.00    +0.000 A 
ATOM      7  N   UNL     1       8.854  11.522  22.605  0.00  0.00    +0.000 N 
ATOM      8  C   UNL     1       8.472  12.396  23.580  0.00  0.00    +0.000 A 
ATOM      9  C   UNL     1       7.917  12.111  24.831  0.00  0.00    +0.000 A 
ATOM     10  C   UNL     1       7.544  13.188  25.629  0.00  0.00    +0.000 A 
ATOM     11  C   UNL     1       7.710  14.489  25.166  0.00  0.00    +0.000 A 
ATOM     12 CL   UNL     1       7.147  15.792  26.145  0.00  0.00    +0.000 Cl
ATOM     13  C   UNL     1       8.314  14.761  23.923  0.00  0.00    +0.000 A 
ATOM     14  C   UNL     1       8.737  13.685  23.107  0.00  0.00    +0.000 A 
ATOM     15  C   UNL     1       9.444  13.540  21.849  0.00  0.00    +0.000 A 
ATOM     16  H   UNL     1       8.737  10.519  22.641  0.00  0.00    +0.000 HD
BRANCH  15  17
ATOM     17  C   UNL     1      10.123  14.572  20.982  0.00  0.00    +0.000 C 
ATOM     18  C   UNL     1       9.356  15.127  19.797  0.00  0.00    +0.000 C 
ENDBRANCH  15  17
ENDBRANCH   3   6
ENDBRANCH   1   2
BRANCH   1  19
ATOM     19  C   UNL     1       8.306   9.374  17.771  0.00  0.00    +0.000 C 
BRANCH  19  23
ATOM     20  C   UNL     1       6.472   5.468  18.277  0.00  0.00    +0.000 A 
ATOM     21  C   UNL     1       5.920   6.411  17.414  0.00  0.00    +0.000 A 
ATOM     22  C   UNL     1       6.514   7.659  17.238  0.00  0.00    +0.000 A 
ATOM     23  C   UNL     1       7.664   8.016  17.946  0.00  0.00    +0.000 A 
ATOM     24  C   UNL     1       8.231   7.067  18.810  0.00  0.00    +0.000 A 
ATOM     25  C   UNL     1       7.632   5.807  18.982  0.00  0.00    +0.000 A 
BRANCH  20  28
ATOM     26  C   UNL     1       4.745   3.948  19.231  0.00  0.00    +0.000 C 
ATOM     27  O   UNL     1       3.971   4.783  19.692  0.00  0.00    +0.000 OA
ATOM     28  N   UNL     1       5.888   4.202  18.489  0.00  0.00    +0.000 N 
ATOM     29  H   UNL     1       6.322   3.420  18.016  0.00  0.00    +0.000 HD
BRANCH  26  30
ATOM     30  C   UNL     1       4.481   2.475  19.449  0.00  0.00    +0.000 C 
BRANCH  30  31
ATOM     31  C   UNL     1       3.415   1.963  18.485  0.00  0.00    +0.000 C 
BRANCH  31  32
ATOM     32  C   UNL     1       2.083   1.739  19.196  0.00  0.00    +0.000 C 
BRANCH  32  34
ATOM     33  C   UNL     1       0.784   3.653  20.195  0.00  0.00    +0.000 C 
ATOM     34  C   UNL     1       1.125   2.897  18.924  0.00  0.00    +0.000 C 
ENDBRANCH  32  34
ENDBRANCH  31  32
ENDBRANCH  30  31
ENDBRANCH  26  30
ENDBRANCH  20  28
ENDBRANCH  19  23
ENDBRANCH   1  19
TORSDOF 10
ENDMDL
MODEL 3
REMARK VINA RESULT:      -7.6      7.242     11.125
REMARK  Name = 
REMARK  12 active torsions:
REMARK  status: ('A' for Active; 'I' for Inactive)
REMARK    1  A    between atoms: C_1  and  C_2
REMARK    2  A    between atoms: C_2  and  C_3
REMARK    3  A    between atoms: C_3  and  C_4
REMARK    4  A    between atoms: C_4  and  C_5
REMARK    5  A    between atoms: C_5  and  C_6
REMARK    6  A    between atoms: N_8  and  C_9
REMARK    7  A    between atoms: C_12  and  C_13
REMARK    8  A    between atoms: C_13  and  C_14
REMARK    9  A    between atoms: C_14  and  N_15
REMARK   10  A    between atoms: C_16  and  C_18
REMARK   11  A    between atoms: C_27  and  C_28
REMARK   12  A    between atoms: C_28  and  C_29
REMARK                            x       y       z     vdW  Elec       q    Type
REMARK                         _______ _______ _______ _____ _____    ______ ____
ROOT
ATOM      1  C   UNL     1       8.013   8.583  18.153  0.00  0.00    +0.000 C 
ENDROOT
BRANCH   1   2
ATOM      2  N   UNL     1       7.441   7.763  17.112  0.00  0.00    +0.000 N 
ATOM      3  C   UNL     1       7.321   6.412  17.281  0.00  0.00    +0.000 C 
ATOM      4  O   UNL     1       7.663   5.847  18.313  0.00  0.00    +0.000 OA
ATOM      5  H   UNL     1       7.330   8.145  16.182  0.00  0.00    +0.000 HD
BRANCH   3   6
ATOM      6  C   UNL     1       6.854   5.667  16.133  0.00  0.00    +0.000 A 
ATOM      7  N   UNL     1       7.631   5.644  15.008  0.00  0.00    +0.000 N 
ATOM      8  C   UNL     1       7.070   4.874  14.033  0.00  0.00    +0.000 A 
ATOM      9  C   UNL     1       7.589   4.553  12.775  0.00  0.00    +0.000 A 
ATOM     10  C   UNL     1       6.789   3.799  11.923  0.00  0.00    +0.000 A 
ATOM     11  C   UNL     1       5.516   3.410  12.325  0.00  0.00    +0.000 A 
ATOM     12 CL   UNL     1       4.519   2.560  11.204  0.00  0.00    +0.000 Cl
ATOM     13  C   UNL     1       5.025   3.700  13.613  0.00  0.00    +0.000 A 
ATOM     14  C   UNL     1       5.833   4.434  14.513  0.00  0.00    +0.000 A 
ATOM     15  C   UNL     1       5.741   4.854  15.899  0.00  0.00    +0.000 A 
ATOM     16  H   UNL     1       8.507   6.142  14.929  0.00  0.00    +0.000 HD
BRANCH  15  17
ATOM     17  C   UNL     1       4.720   4.519  16.958  0.00  0.00    +0.000 C 
ATOM     18  C   UNL     1       3.791   5.622  17.432  0.00  0.00    +0.000 C 
ENDBRANCH  15  17
ENDBRANCH   3   6
ENDBRANCH   1   2
BRANCH   1  19
ATOM     19  C   UNL     1       8.789   9.789  17.596  0.00  0.00    +0.000 C 
BRANCH  19  23
ATOM     20  C   UNL     1       9.824  12.753  20.600  0.00  0.00    +0.000 A 
ATOM     21  C   UNL     1       9.654  11.414  20.944  0.00  0.00    +0.000 A 
ATOM     22  C   UNL     1       9.337  10.459  19.981  0.00  0.00    +0.000 A 
ATOM     23  C   UNL     1       9.148  10.818  18.644  0.00  0.00    +0.000 A 
ATOM     24  C   UNL     1       9.327  12.163  18.289  0.00  0.00    +0.000 A 
ATOM     25  C   UNL     1       9.652  13.124  19.262  0.00  0.00    +0.000 A 
BRANCH  20  28
ATOM     26  C   UNL     1       9.226  14.625  22.130  0.00  0.00    +0.000 C 
ATOM     27  O   UNL     1       8.002  14.586  22.031  0.00  0.00    +0.000 OA
ATOM     28  N   UNL     1      10.130  13.747  21.552  0.00  0.00    +0.000 N 
ATOM     29  H   UNL     1      11.089  13.785  21.872  0.00  0.00    +0.000 HD
BRANCH  26  30
ATOM     30  C   UNL     1       9.881  15.708  22.957  0.00  0.00    +0.000 C 
BRANCH  30  31
ATOM     31  C   UNL     1      10.210  16.925  22.099  0.00  0.00    +0.000 C 
BRANCH  31  32
ATOM     32  C   UNL     1      11.651  16.880  21.596  0.00  0.00    +0.000 C 
BRANCH  32  34
ATOM     33  C   UNL     1      10.334  16.950  19.449  0.00  0.00    +0.000 C 
ATOM     34  C   UNL     1      11.686  16.678  20.083  0.00  0.00    +0.000 C 
ENDBRANCH  32  34
ENDBRANCH  31  32
ENDBRANCH  30  31
ENDBRANCH  26  30
ENDBRANCH  20  28
ENDBRANCH  19  23
ENDBRANCH   1  19
TORSDOF 10
ENDMDL
MODEL 4
REMARK VINA RESULT:      -7.5      4.384      6.348
REMARK  Name = 
REMARK  12 active torsions:
REMARK  status: ('A' for Active; 'I' for Inactive)
REMARK    1  A    between atoms: C_1  and  C_2
REMARK    2  A    between atoms: C_2  and  C_3
REMARK    3  A    between atoms: C_3  and  C_4
REMARK    4  A    between atoms: C_4  and  C_5
REMARK    5  A    between atoms: C_5  and  C_6
REMARK    6  A    between atoms: N_8  and  C_9
REMARK    7  A    between atoms: C_12  and  C_13
REMARK    8  A    between atoms: C_13  and  C_14
REMARK    9  A    between atoms: C_14  and  N_15
REMARK   10  A    between atoms: C_16  and  C_18
REMARK   11  A    between atoms: C_27  and  C_28
REMARK   12  A    between atoms: C_28  and  C_29
REMARK                            x       y       z     vdW  Elec       q    Type
REMARK                         _______ _______ _______ _____ _____    ______ ____
ROOT
ATOM      1  C   UNL     1      -0.373  10.487  18.745  0.00  0.00    +0.000 C 
ENDROOT
BRANCH   1   2
ATOM      2  N   UNL     1      -1.557  10.875  19.474  0.00  0.00    +0.000 N 
ATOM      3  C   UNL     1      -1.766  12.183  19.812  0.00  0.00    +0.000 C 
ATOM      4  O   UNL     1      -0.986  13.074  19.497  0.00  0.00    +0.000 OA
ATOM      5  H   UNL     1      -2.121  10.165  19.922  0.00  0.00    +0.000 HD
BRANCH   3   6
ATOM      6  C   UNL     1      -2.915  12.447  20.648  0.00  0.00    +0.000 A 
ATOM      7  N   UNL     1      -4.148  12.525  20.062  0.00  0.00    +0.000 N 
ATOM      8  C   UNL     1      -5.125  12.743  20.987  0.00  0.00    +0.000 A 
ATOM      9  C   UNL     1      -6.507  12.815  20.788  0.00  0.00    +0.000 A 
ATOM     10  C   UNL     1      -7.300  13.119  21.890  0.00  0.00    +0.000 A 
ATOM     11  C   UNL     1      -6.712  13.357  23.128  0.00  0.00    +0.000 A 
ATOM     12 CL   UNL     1      -7.721  13.824  24.445  0.00  0.00    +0.000 Cl
ATOM     13  C   UNL     1      -5.323  13.234  23.323  0.00  0.00    +0.000 A 
ATOM     14  C   UNL     1      -4.496  12.890  22.227  0.00  0.00    +0.000 A 
ATOM     15  C   UNL     1      -3.090  12.595  22.028  0.00  0.00    +0.000 A 
ATOM     16  H   UNL     1      -4.295  12.431  19.066  0.00  0.00    +0.000 HD
BRANCH  15  17
ATOM     17  C   UNL     1      -1.972  12.431  23.029  0.00  0.00    +0.000 C 
ATOM     18  C   UNL     1      -1.323  11.066  23.159  0.00  0.00    +0.000 C 
ENDBRANCH  15  17
ENDBRANCH   3   6
ENDBRANCH   1   2
BRANCH   1  19
ATOM     19  C   UNL     1       0.807  10.149  19.672  0.00  0.00    +0.000 C 
BRANCH  19  23
ATOM     20  C   UNL     1       3.127   6.719  18.353  0.00  0.00    +0.000 A 
ATOM     21  C   UNL     1       2.561   6.754  19.625  0.00  0.00    +0.000 A 
ATOM     22  C   UNL     1       1.804   7.846  20.045  0.00  0.00    +0.000 A 
ATOM     23  C   UNL     1       1.615   8.955  19.216  0.00  0.00    +0.000 A 
ATOM     24  C   UNL     1       2.175   8.922  17.931  0.00  0.00    +0.000 A 
ATOM     25  C   UNL     1       2.934   7.817  17.507  0.00  0.00    +0.000 A 
BRANCH  20  28
ATOM     26  C   UNL     1       5.256   5.691  17.570  0.00  0.00    +0.000 C 
ATOM     27  O   UNL     1       6.019   6.634  17.757  0.00  0.00    +0.000 OA
ATOM     28  N   UNL     1       3.910   5.638  17.902  0.00  0.00    +0.000 N 
ATOM     29  H   UNL     1       3.455   4.735  17.864  0.00  0.00    +0.000 HD
BRANCH  26  30
ATOM     30  C   UNL     1       5.769   4.423  16.925  0.00  0.00    +0.000 C 
BRANCH  30  31
ATOM     31  C   UNL     1       5.159   4.230  15.540  0.00  0.00    +0.000 C 
BRANCH  31  32
ATOM     32  C   UNL     1       6.233   3.948  14.493  0.00  0.00    +0.000 C 
BRANCH  32  34
ATOM     33  C   UNL     1       6.638   3.352  12.078  0.00  0.00    +0.000 C 
ATOM     34  C   UNL     1       5.602   3.739  13.118  0.00  0.00    +0.000 C 
ENDBRANCH  32  34
ENDBRANCH  31  32
ENDBRANCH  30  31
ENDBRANCH  26  30
ENDBRANCH  20  28
ENDBRANCH  19  23
ENDBRANCH   1  19
TORSDOF 10
ENDMDL
MODEL 5
REMARK VINA RESULT:      -7.5      6.965     11.204
REMARK  Name = 
REMARK  12 active torsions:
REMARK  status: ('A' for Active; 'I' for Inactive)
REMARK    1  A    between atoms: C_1  and  C_2
REMARK    2  A    between atoms: C_2  and  C_3
REMARK    3  A    between atoms: C_3  and  C_4
REMARK    4  A    between atoms: C_4  and  C_5
REMARK    5  A    between atoms: C_5  and  C_6
REMARK    6  A    between atoms: N_8  and  C_9
REMARK    7  A    between atoms: C_12  and  C_13
REMARK    8  A    between atoms: C_13  and  C_14
REMARK    9  A    between atoms: C_14  and  N_15
REMARK   10  A    between atoms: C_16  and  C_18
REMARK   11  A    between atoms: C_27  and  C_28
REMARK   12  A    between atoms: C_28  and  C_29
REMARK                            x       y       z     vdW  Elec       q    Type
REMARK                         _______ _______ _______ _____ _____    ______ ____
ROOT
ATOM      1  C   UNL     1       7.951   8.512  18.123  0.00  0.00    +0.000 C 
ENDROOT
BRANCH   1   2
ATOM      2  N   UNL     1       7.378   7.702  17.074  0.00  0.00    +0.000 N 
ATOM      3  C   UNL     1       7.309   6.343  17.206  0.00  0.00    +0.000 C 
ATOM      4  O   UNL     1       7.700   5.761  18.211  0.00  0.00    +0.000 OA
ATOM      5  H   UNL     1       7.226   8.107  16.160  0.00  0.00    +0.000 HD
BRANCH   3   6
ATOM      6  C   UNL     1       6.835   5.616  16.050  0.00  0.00    +0.000 A 
ATOM      7  N   UNL     1       7.629   5.567  14.938  0.00  0.00    +0.000 N 
ATOM      8  C   UNL     1       7.057   4.818  13.952  0.00  0.00    +0.000 A 
ATOM      9  C   UNL     1       7.584   4.481  12.702  0.00  0.00    +0.000 A 
ATOM     10  C   UNL     1       6.772   3.756  11.837  0.00  0.00    +0.000 A 
ATOM     11  C   UNL     1       5.479   3.411  12.218  0.00  0.00    +0.000 A 
ATOM     12 CL   UNL     1       4.472   2.597  11.080  0.00  0.00    +0.000 Cl
ATOM     13  C   UNL     1       4.979   3.716  13.498  0.00  0.00    +0.000 A 
ATOM     14  C   UNL     1       5.798   4.421  14.412  0.00  0.00    +0.000 A 
ATOM     15  C   UNL     1       5.698   4.843  15.797  0.00  0.00    +0.000 A 
ATOM     16  H   UNL     1       8.523   6.035  14.873  0.00  0.00    +0.000 HD
BRANCH  15  17
ATOM     17  C   UNL     1       4.649   4.543  16.839  0.00  0.00    +0.000 C 
ATOM     18  C   UNL     1       3.912   5.709  17.471  0.00  0.00    +0.000 C 
ENDBRANCH  15  17
ENDBRANCH   3   6
ENDBRANCH   1   2
BRANCH   1  19
ATOM     19  C   UNL     1       8.897   9.598  17.582  0.00  0.00    +0.000 C 
BRANCH  19  23
ATOM     20  C   UNL     1       9.445  12.955  20.285  0.00  0.00    +0.000 A 
ATOM     21  C   UNL     1       9.629  11.646  20.723  0.00  0.00    +0.000 A 
ATOM     22  C   UNL     1       9.469  10.568  19.855  0.00  0.00    +0.000 A 
ATOM     23  C   UNL     1       9.087  10.764  18.525  0.00  0.00    +0.000 A 
ATOM     24  C   UNL     1       8.910  12.080  18.075  0.00  0.00    +0.000 A 
ATOM     25  C   UNL     1       9.078  13.166  18.952  0.00  0.00    +0.000 A 
BRANCH  20  28
ATOM     26  C   UNL     1      10.645  14.961  21.144  0.00  0.00    +0.000 C 
ATOM     27  O   UNL     1      11.549  15.028  20.316  0.00  0.00    +0.000 OA
ATOM     28  N   UNL     1       9.585  14.067  21.140  0.00  0.00    +0.000 N 
ATOM     29  H   UNL     1       8.817  14.249  21.773  0.00  0.00    +0.000 HD
BRANCH  26  30
ATOM     30  C   UNL     1      10.616  15.927  22.308  0.00  0.00    +0.000 C 
BRANCH  30  31
ATOM     31  C   UNL     1       9.233  15.965  22.950  0.00  0.00    +0.000 C 
BRANCH  31  32
ATOM     32  C   UNL     1       9.280  15.503  24.404  0.00  0.00    +0.000 C 
BRANCH  32  34
ATOM     33  C   UNL     1       8.658  13.593  25.924  0.00  0.00    +0.000 C 
ATOM     34  C   UNL     1       8.357  14.305  24.618  0.00  0.00    +0.000 C 
ENDBRANCH  32  34
ENDBRANCH  31  32
ENDBRANCH  30  31
ENDBRANCH  26  30
ENDBRANCH  20  28
ENDBRANCH  19  23
ENDBRANCH   1  19
TORSDOF 10
ENDMDL
MODEL 6
REMARK VINA RESULT:      -7.4      4.632     10.888
REMARK  Name = 
REMARK  12 active torsions:
REMARK  status: ('A' for Active; 'I' for Inactive)
REMARK    1  A    between atoms: C_1  and  C_2
REMARK    2  A    between atoms: C_2  and  C_3
REMARK    3  A    between atoms: C_3  and  C_4
REMARK    4  A    between atoms: C_4  and  C_5
REMARK    5  A    between atoms: C_5  and  C_6
REMARK    6  A    between atoms: N_8  and  C_9
REMARK    7  A    between atoms: C_12  and  C_13
REMARK    8  A    between atoms: C_13  and  C_14
REMARK    9  A    between atoms: C_14  and  N_15
REMARK   10  A    between atoms: C_16  and  C_18
REMARK   11  A    between atoms: C_27  and  C_28
REMARK   12  A    between atoms: C_28  and  C_29
REMARK                            x       y       z     vdW  Elec       q    Type
REMARK                         _______ _______ _______ _____ _____    ______ ____
ROOT
ATOM      1  C   UNL     1       1.097   7.683  21.374  0.00  0.00    +0.000 C 
ENDROOT
BRANCH   1   2
ATOM      2  N   UNL     1       1.889   7.227  20.257  0.00  0.00    +0.000 N 
ATOM      3  C   UNL     1       2.279   5.920  20.171  0.00  0.00    +0.000 C 
ATOM      4  O   UNL     1       1.962   5.084  21.008  0.00  0.00    +0.000 OA
ATOM      5  H   UNL     1       2.336   7.905  19.655  0.00  0.00    +0.000 HD
BRANCH   3   6
ATOM      6  C   UNL     1       3.173   5.595  19.082  0.00  0.00    +0.000 A 
ATOM      7  N   UNL     1       4.393   6.210  19.031  0.00  0.00    +0.000 N 
ATOM      8  C   UNL     1       5.127   5.771  17.968  0.00  0.00    +0.000 A 
ATOM      9  C   UNL     1       6.437   6.111  17.619  0.00  0.00    +0.000 A 
ATOM     10  C   UNL     1       6.946   5.578  16.440  0.00  0.00    +0.000 A 
ATOM     11  C   UNL     1       6.153   4.757  15.646  0.00  0.00    +0.000 A 
ATOM     12 CL   UNL     1       6.789   4.196  14.144  0.00  0.00    +0.000 Cl
ATOM     13  C   UNL     1       4.851   4.386  16.034  0.00  0.00    +0.000 A 
ATOM     14  C   UNL     1       4.321   4.884  17.248  0.00  0.00    +0.000 A 
ATOM     15  C   UNL     1       3.108   4.689  18.019  0.00  0.00    +0.000 A 
ATOM     16  H   UNL     1       4.694   6.901  19.704  0.00  0.00    +0.000 HD
BRANCH  15  17
ATOM     17  C   UNL     1       1.967   3.721  17.821  0.00  0.00    +0.000 C 
ATOM     18  C   UNL     1       2.299   2.256  17.606  0.00  0.00    +0.000 C 
ENDBRANCH  15  17
ENDBRANCH   3   6
ENDBRANCH   1   2
BRANCH   1  19
ATOM     19  C   UNL     1       1.516   9.079  21.865  0.00  0.00    +0.000 C 
BRANCH  19  23
ATOM     20  C   UNL     1      -1.790  11.883  22.168  0.00  0.00    +0.000 A 
ATOM     21  C   UNL     1      -0.959  11.874  21.050  0.00  0.00    +0.000 A 
ATOM     22  C   UNL     1       0.092  10.966  20.943  0.00  0.00    +0.000 A 
ATOM     23  C   UNL     1       0.367  10.057  21.969  0.00  0.00    +0.000 A 
ATOM     24  C   UNL     1      -0.471  10.055  23.093  0.00  0.00    +0.000 A 
ATOM     25  C   UNL     1      -1.535  10.969  23.196  0.00  0.00    +0.000 A 
BRANCH  20  28
ATOM     26  C   UNL     1      -2.896  13.858  23.207  0.00  0.00    +0.000 C 
ATOM     27  O   UNL     1      -1.970  14.268  23.901  0.00  0.00    +0.000 OA
ATOM     28  N   UNL     1      -2.852  12.797  22.315  0.00  0.00    +0.000 N 
ATOM     29  H   UNL     1      -3.630  12.693  21.675  0.00  0.00    +0.000 HD
BRANCH  26  30
ATOM     30  C   UNL     1      -4.247  14.535  23.276  0.00  0.00    +0.000 C 
BRANCH  30  31
ATOM     31  C   UNL     1      -5.357  13.579  22.854  0.00  0.00    +0.000 C 
BRANCH  31  32
ATOM     32  C   UNL     1      -5.992  12.893  24.062  0.00  0.00    +0.000 C 
BRANCH  32  34
ATOM     33  C   UNL     1      -7.809  12.491  22.363  0.00  0.00    +0.000 C 
ATOM     34  C   UNL     1      -7.486  12.678  23.835  0.00  0.00    +0.000 C 
ENDBRANCH  32  34
ENDBRANCH  31  32
ENDBRANCH  30  31
ENDBRANCH  26  30
ENDBRANCH  20  28
ENDBRANCH  19  23
ENDBRANCH   1  19
TORSDOF 10
ENDMDL
MODEL 7
REMARK VINA RESULT:      -7.4      7.160     10.223
REMARK  Name = 
REMARK  12 active torsions:
REMARK  status: ('A' for Active; 'I' for Inactive)
REMARK    1  A    between atoms: C_1  and  C_2
REMARK    2  A    between atoms: C_2  and  C_3
REMARK    3  A    between atoms: C_3  and  C_4
REMARK    4  A    between atoms: C_4  and  C_5
REMARK    5  A    between atoms: C_5  and  C_6
REMARK    6  A    between atoms: N_8  and  C_9
REMARK    7  A    between atoms: C_12  and  C_13
REMARK    8  A    between atoms: C_13  and  C_14
REMARK    9  A    between atoms: C_14  and  N_15
REMARK   10  A    between atoms: C_16  and  C_18
REMARK   11  A    between atoms: C_27  and  C_28
REMARK   12  A    between atoms: C_28  and  C_29
REMARK                            x       y       z     vdW  Elec       q    Type
REMARK                         _______ _______ _______ _____ _____    ______ ____
ROOT
ATOM      1  C   UNL     1       8.056   8.635  17.638  0.00  0.00    +0.000 C 
ENDROOT
BRANCH   1   2
ATOM      2  N   UNL     1       6.986   7.698  17.887  0.00  0.00    +0.000 N 
ATOM      3  C   UNL     1       6.790   6.633  17.053  0.00  0.00    +0.000 C 
ATOM      4  O   UNL     1       7.511   6.414  16.088  0.00  0.00    +0.000 OA
ATOM      5  H   UNL     1       6.255   7.940  18.542  0.00  0.00    +0.000 HD
BRANCH   3   6
ATOM      6  C   UNL     1       5.618   5.828  17.318  0.00  0.00    +0.000 A 
ATOM      7  N   UNL     1       4.670   6.315  18.174  0.00  0.00    +0.000 N 
ATOM      8  C   UNL     1       3.617   5.455  18.289  0.00  0.00    +0.000 A 
ATOM      9  C   UNL     1       2.432   5.627  19.012  0.00  0.00    +0.000 A 
ATOM     10  C   UNL     1       1.532   4.568  19.029  0.00  0.00    +0.000 A 
ATOM     11  C   UNL     1       1.832   3.385  18.361  0.00  0.00    +0.000 A 
ATOM     12 CL   UNL     1       0.733   2.063  18.487  0.00  0.00    +0.000 Cl
ATOM     13  C   UNL     1       3.007   3.245  17.598  0.00  0.00    +0.000 A 
ATOM     14  C   UNL     1       3.924   4.320  17.533  0.00  0.00    +0.000 A 
ATOM     15  C   UNL     1       5.159   4.602  16.825  0.00  0.00    +0.000 A 
ATOM     16  H   UNL     1       4.756   7.201  18.652  0.00  0.00    +0.000 HD
BRANCH  15  17
ATOM     17  C   UNL     1       5.870   3.822  15.747  0.00  0.00    +0.000 C 
ATOM     18  C   UNL     1       5.585   4.179  14.300  0.00  0.00    +0.000 C 
ENDBRANCH  15  17
ENDBRANCH   3   6
ENDBRANCH   1   2
BRANCH   1  19
ATOM     19  C   UNL     1       8.847   8.981  18.911  0.00  0.00    +0.000 C 
BRANCH  19  23
ATOM     20  C   UNL     1      10.124  13.131  19.095  0.00  0.00    +0.000 A 
ATOM     21  C   UNL     1       9.847  12.415  20.257  0.00  0.00    +0.000 A 
ATOM     22  C   UNL     1       9.453  11.080  20.202  0.00  0.00    +0.000 A 
ATOM     23  C   UNL     1       9.290  10.426  18.978  0.00  0.00    +0.000 A 
ATOM     24  C   UNL     1       9.577  11.138  17.804  0.00  0.00    +0.000 A 
ATOM     25  C   UNL     1       9.980  12.484  17.863  0.00  0.00    +0.000 A 
BRANCH  20  28
ATOM     26  C   UNL     1       9.797  15.544  18.574  0.00  0.00    +0.000 C 
ATOM     27  O   UNL     1       8.651  15.503  18.133  0.00  0.00    +0.000 OA
ATOM     28  N   UNL     1      10.512  14.486  19.114  0.00  0.00    +0.000 N 
ATOM     29  H   UNL     1      11.367  14.704  19.609  0.00  0.00    +0.000 HD
BRANCH  26  30
ATOM     30  C   UNL     1      10.561  16.849  18.567  0.00  0.00    +0.000 C 
BRANCH  30  31
ATOM     31  C   UNL     1       9.995  17.818  19.599  0.00  0.00    +0.000 C 
BRANCH  31  32
ATOM     32  C   UNL     1       9.524  17.084  20.853  0.00  0.00    +0.000 C 
BRANCH  32  34
ATOM     33  C   UNL     1      10.386  15.945  22.929  0.00  0.00    +0.000 C 
ATOM     34  C   UNL     1      10.641  17.024  21.893  0.00  0.00    +0.000 C 
ENDBRANCH  32  34
ENDBRANCH  31  32
ENDBRANCH  30  31
ENDBRANCH  26  30
ENDBRANCH  20  28
ENDBRANCH  19  23
ENDBRANCH   1  19
TORSDOF 10
ENDMDL
MODEL 8
REMARK VINA RESULT:      -7.4      7.436     10.195
REMARK  Name = 
REMARK  12 active torsions:
REMARK  status: ('A' for Active; 'I' for Inactive)
REMARK    1  A    between atoms: C_1  and  C_2
REMARK    2  A    between atoms: C_2  and  C_3
REMARK    3  A    between atoms: C_3  and  C_4
REMARK    4  A    between atoms: C_4  and  C_5
REMARK    5  A    between atoms: C_5  and  C_6
REMARK    6  A    between atoms: N_8  and  C_9
REMARK    7  A    between atoms: C_12  and  C_13
REMARK    8  A    between atoms: C_13  and  C_14
REMARK    9  A    between atoms: C_14  and  N_15
REMARK   10  A    between atoms: C_16  and  C_18
REMARK   11  A    between atoms: C_27  and  C_28
REMARK   12  A    between atoms: C_28  and  C_29
REMARK                            x       y       z     vdW  Elec       q    Type
REMARK                         _______ _______ _______ _____ _____    ______ ____
ROOT
ATOM      1  C   UNL     1       7.933   8.352  17.420  0.00  0.00    +0.000 C 
ENDROOT
BRANCH   1   2
ATOM      2  N   UNL     1       6.769   7.555  17.723  0.00  0.00    +0.000 N 
ATOM      3  C   UNL     1       6.879   6.203  17.892  0.00  0.00    +0.000 C 
ATOM      4  O   UNL     1       7.953   5.618  17.820  0.00  0.00    +0.000 OA
ATOM      5  H   UNL     1       5.848   7.953  17.599  0.00  0.00    +0.000 HD
BRANCH   3   6
ATOM      6  C   UNL     1       5.638   5.482  18.067  0.00  0.00    +0.000 A 
ATOM      7  N   UNL     1       4.849   5.788  19.141  0.00  0.00    +0.000 N 
ATOM      8  C   UNL     1       3.704   5.048  19.144  0.00  0.00    +0.000 A 
ATOM      9  C   UNL     1       2.627   5.119  20.032  0.00  0.00    +0.000 A 
ATOM     10  C   UNL     1       1.595   4.202  19.865  0.00  0.00    +0.000 A 
ATOM     11  C   UNL     1       1.666   3.247  18.856  0.00  0.00    +0.000 A 
ATOM     12 CL   UNL     1       0.413   2.069  18.743  0.00  0.00    +0.000 Cl
ATOM     13  C   UNL     1       2.735   3.219  17.939  0.00  0.00    +0.000 A 
ATOM     14  C   UNL     1       3.781   4.164  18.063  0.00  0.00    +0.000 A 
ATOM     15  C   UNL     1       4.971   4.513  17.311  0.00  0.00    +0.000 A 
ATOM     16  H   UNL     1       5.101   6.478  19.836  0.00  0.00    +0.000 HD
BRANCH  15  17
ATOM     17  C   UNL     1       5.464   4.020  15.973  0.00  0.00    +0.000 C 
ATOM     18  C   UNL     1       5.572   5.019  14.836  0.00  0.00    +0.000 C 
ENDBRANCH  15  17
ENDBRANCH   3   6
ENDBRANCH   1   2
BRANCH   1  19
ATOM     19  C   UNL     1       8.588   8.946  18.679  0.00  0.00    +0.000 C 
BRANCH  19  23
ATOM     20  C   UNL     1       9.873  13.070  18.214  0.00  0.00    +0.000 A 
ATOM     21  C   UNL     1       8.732  12.599  17.570  0.00  0.00    +0.000 A 
ATOM     22  C   UNL     1       8.308  11.282  17.730  0.00  0.00    +0.000 A 
ATOM     23  C   UNL     1       9.034  10.381  18.514  0.00  0.00    +0.000 A 
ATOM     24  C   UNL     1      10.179  10.851  19.173  0.00  0.00    +0.000 A 
ATOM     25  C   UNL     1      10.601  12.183  19.014  0.00  0.00    +0.000 A 
BRANCH  20  28
ATOM     26  C   UNL     1       9.790  15.519  18.658  0.00  0.00    +0.000 C 
ATOM     27  O   UNL     1       8.921  15.540  19.525  0.00  0.00    +0.000 OA
ATOM     28  N   UNL     1      10.337  14.393  18.063  0.00  0.00    +0.000 N 
ATOM     29  H   UNL     1      11.173  14.517  17.506  0.00  0.00    +0.000 HD
BRANCH  26  30
ATOM     30  C   UNL     1      10.375  16.817  18.146  0.00  0.00    +0.000 C 
BRANCH  30  31
ATOM     31  C   UNL     1      11.885  16.854  18.354  0.00  0.00    +0.000 C 
BRANCH  31  32
ATOM     32  C   UNL     1      12.250  16.659  19.824  0.00  0.00    +0.000 C 
BRANCH  32  34
ATOM     33  C   UNL     1      11.176  18.199  21.504  0.00  0.00    +0.000 C 
ATOM     34  C   UNL     1      12.333  18.004  20.542  0.00  0.00    +0.000 C 
ENDBRANCH  32  34
ENDBRANCH  31  32
ENDBRANCH  30  31
ENDBRANCH  26  30
ENDBRANCH  20  28
ENDBRANCH  19  23
ENDBRANCH   1  19
TORSDOF 10
ENDMDL
MODEL 9
REMARK VINA RESULT:      -7.4      4.180      9.688
REMARK  Name = 
REMARK  12 active torsions:
REMARK  status: ('A' for Active; 'I' for Inactive)
REMARK    1  A    between atoms: C_1  and  C_2
REMARK    2  A    between atoms: C_2  and  C_3
REMARK    3  A    between atoms: C_3  and  C_4
REMARK    4  A    between atoms: C_4  and  C_5
REMARK    5  A    between atoms: C_5  and  C_6
REMARK    6  A    between atoms: N_8  and  C_9
REMARK    7  A    between atoms: C_12  and  C_13
REMARK    8  A    between atoms: C_13  and  C_14
REMARK    9  A    between atoms: C_14  and  N_15
REMARK   10  A    between atoms: C_16  and  C_18
REMARK   11  A    between atoms: C_27  and  C_28
REMARK   12  A    between atoms: C_28  and  C_29
REMARK                            x       y       z     vdW  Elec       q    Type
REMARK                         _______ _______ _______ _____ _____    ______ ____
ROOT
ATOM      1  C   UNL     1       1.401   8.219  21.602  0.00  0.00    +0.000 C 
ENDROOT
BRANCH   1   2
ATOM      2  N   UNL     1       2.042   7.663  20.434  0.00  0.00    +0.000 N 
ATOM      3  C   UNL     1       2.151   6.309  20.281  0.00  0.00    +0.000 C 
ATOM      4  O   UNL     1       1.697   5.518  21.098  0.00  0.00    +0.000 OA
ATOM      5  H   UNL     1       2.598   8.262  19.839  0.00  0.00    +0.000 HD
BRANCH   3   6
ATOM      6  C   UNL     1       2.919   5.858  19.142  0.00  0.00    +0.000 A 
ATOM      7  N   UNL     1       3.456   6.795  18.303  0.00  0.00    +0.000 N 
ATOM      8  C   UNL     1       4.178   6.212  17.304  0.00  0.00    +0.000 A 
ATOM      9  C   UNL     1       4.926   6.831  16.298  0.00  0.00    +0.000 A 
ATOM     10  C   UNL     1       5.522   6.014  15.345  0.00  0.00    +0.000 A 
ATOM     11  C   UNL     1       5.347   4.635  15.401  0.00  0.00    +0.000 A 
ATOM     12 CL   UNL     1       6.022   3.665  14.145  0.00  0.00    +0.000 Cl
ATOM     13  C   UNL     1       4.630   4.022  16.446  0.00  0.00    +0.000 A 
ATOM     14  C   UNL     1       4.044   4.828  17.451  0.00  0.00    +0.000 A 
ATOM     15  C   UNL     1       3.325   4.599  18.690  0.00  0.00    +0.000 A 
ATOM     16  H   UNL     1       3.324   7.790  18.425  0.00  0.00    +0.000 HD
BRANCH  15  17
ATOM     17  C   UNL     1       3.044   3.318  19.437  0.00  0.00    +0.000 C 
ATOM     18  C   UNL     1       1.815   2.517  19.048  0.00  0.00    +0.000 C 
ENDBRANCH  15  17
ENDBRANCH   3   6
ENDBRANCH   1   2
BRANCH   1  19
ATOM     19  C   UNL     1      -0.087   8.530  21.367  0.00  0.00    +0.000 C 
BRANCH  19  23
ATOM     20  C   UNL     1      -0.864  12.673  20.311  0.00  0.00    +0.000 A 
ATOM     21  C   UNL     1      -0.918  11.666  19.350  0.00  0.00    +0.000 A 
ATOM     22  C   UNL     1      -0.685  10.335  19.688  0.00  0.00    +0.000 A 
ATOM     23  C   UNL     1      -0.356   9.971  20.997  0.00  0.00    +0.000 A 
ATOM     24  C   UNL     1      -0.309  10.978  21.971  0.00  0.00    +0.000 A 
ATOM     25  C   UNL     1      -0.550  12.320  21.628  0.00  0.00    +0.000 A 
BRANCH  20  28
ATOM     26  C   UNL     1      -0.216  14.849  19.290  0.00  0.00    +0.000 C 
ATOM     27  O   UNL     1       0.794  14.499  18.687  0.00  0.00    +0.000 OA
ATOM     28  N   UNL     1      -1.080  14.030  20.000  0.00  0.00    +0.000 N 
ATOM     29  H   UNL     1      -1.969  14.422  20.284  0.00  0.00    +0.000 HD
BRANCH  26  30
ATOM     30  C   UNL     1      -0.625  16.306  19.293  0.00  0.00    +0.000 C 
BRANCH  30  31
ATOM     31  C   UNL     1       0.509  17.191  18.790  0.00  0.00    +0.000 C 
BRANCH  31  32
ATOM     32  C   UNL     1       0.069  18.039  17.599  0.00  0.00    +0.000 C 
BRANCH  32  34
ATOM     33  C   UNL     1       2.358  17.243  16.908  0.00  0.00    +0.000 C 
ATOM     34  C   UNL     1       1.206  18.179  16.589  0.00  0.00    +0.000 C 
ENDBRANCH  32  34
ENDBRANCH  31  32
ENDBRANCH  30  31
ENDBRANCH  26  30
ENDBRANCH  20  28
ENDBRANCH  19  23
ENDBRANCH   1  19
TORSDOF 10
ENDMDL
