MODEL 1
REMARK VINA RESULT:      -7.1      0.000      0.000
REMARK  Name = 
REMARK  7 active torsions:
REMARK  status: ('A' for Active; 'I' for Inactive)
REMARK    1  A    between atoms: C_1  and  C_2
REMARK    2  A    between atoms: C_2  and  C_3
REMARK    3  A    between atoms: C_3  and  N_4
REMARK    4  A    between atoms: C_10  and  C_11
REMARK    5  A    between atoms: C_15  and  O_16
REMARK    6  A    between atoms: O_16  and  C_17
REMARK    7  A    between atoms: C_20  and  C_21
REMARK                            x       y       z     vdW  Elec       q    Type
REMARK                         _______ _______ _______ _____ _____    ______ ____
ROOT
ATOM      1  N   UNL     1       6.507   6.463  17.409  0.00  0.00    +0.000 N 
ATOM      2  C   UNL     1       6.882   5.674  16.315  0.00  0.00    +0.000 C 
ATOM      3  O   UNL     1       7.689   5.927  15.436  0.00  0.00    +0.000 OA
ATOM      4  C   UNL     1       6.065   4.526  16.432  0.00  0.00    +0.000 A 
ATOM      5  N   UNL     1       5.862   3.359  15.804  0.00  0.00    +0.000 N 
ATOM      6  N   UNL     1       4.868   2.650  16.395  0.00  0.00    +0.000 NA
ATOM      7  C   UNL     1       4.449   3.415  17.433  0.00  0.00    +0.000 A 
ATOM      8  C   UNL     1       5.195   4.603  17.476  0.00  0.00    +0.000 A 
ATOM      9  C   UNL     1       5.397   5.865  18.216  0.00  0.00    +0.000 C 
ATOM     10  H   UNL     1       6.327   2.974  14.987  0.00  0.00    +0.000 HD
ENDROOT
BRANCH   7  11
ATOM     11  C   UNL     1       3.364   2.992  18.311  0.00  0.00    +0.000 A 
ATOM     12  C   UNL     1       2.130   2.608  17.774  0.00  0.00    +0.000 A 
ATOM     13  C   UNL     1       1.088   2.223  18.616  0.00  0.00    +0.000 A 
ATOM     14  C   UNL     1       1.280   2.217  19.998  0.00  0.00    +0.000 A 
ATOM     15  C   UNL     1       2.502   2.599  20.550  0.00  0.00    +0.000 A 
ATOM     16  C   UNL     1       3.540   2.984  19.703  0.00  0.00    +0.000 A 
BRANCH  15  17
ATOM     17  O   UNL     1       2.561   2.561  21.917  0.00  0.00    +0.000 OA
ATOM     18  C   UNL     1       1.317   2.448  22.602  0.00  0.00    +0.000 C 
ENDBRANCH  15  17
ENDBRANCH   7  11
BRANCH   9  19
ATOM     19  C   UNL     1       4.121   6.676  18.230  0.00  0.00    +0.000 A 
ATOM     20  C   UNL     1       3.827   7.634  17.257  0.00  0.00    +0.000 A 
ATOM     21  C   UNL     1       2.721   8.461  17.436  0.00  0.00    +0.000 A 
ATOM     22  C   UNL     1       1.941   8.323  18.577  0.00  0.00    +0.000 A 
ATOM     23  C   UNL     1       2.283   7.342  19.487  0.00  0.00    +0.000 A 
ATOM     24  N   UNL     1       3.344   6.519  19.338  0.00  0.00    +0.000 NA
ENDBRANCH   9  19
BRANCH   1  25
ATOM     25  C   UNL     1       6.928   7.848  17.549  0.00  0.00    +0.000 C 
BRANCH  25  27
ATOM     26  C   UNL     1       8.640   9.505  18.407  0.00  0.00    +0.000 C 
ATOM     27  C   UNL     1       8.266   8.040  18.259  0.00  0.00    +0.000 C 
ENDBRANCH  25  27
ENDBRANCH   1  25
TORSDOF 5
ENDMDL
MODEL 2
REMARK VINA RESULT:      -7.0      2.323      6.545
REMARK  Name = 
REMARK  7 active torsions:
REMARK  status: ('A' for Active; 'I' for Inactive)
REMARK    1  A    between atoms: C_1  and  C_2
REMARK    2  A    between atoms: C_2  and  C_3
REMARK    3  A    between atoms: C_3  and  N_4
REMARK    4  A    between atoms: C_10  and  C_11
REMARK    5  A    between atoms: C_15  and  O_16
REMARK    6  A    between atoms: O_16  and  C_17
REMARK    7  A    between atoms: C_20  and  C_21
REMARK                            x       y       z     vdW  Elec       q    Type
REMARK                         _______ _______ _______ _____ _____    ______ ____
ROOT
ATOM      1  N   UNL     1       2.935   5.699  20.339  0.00  0.00    +0.000 N 
ATOM      2  C   UNL     1       2.295   6.860  19.890  0.00  0.00    +0.000 C 
ATOM      3  O   UNL     1       1.376   7.471  20.409  0.00  0.00    +0.000 OA
ATOM      4  C   UNL     1       2.927   7.138  18.657  0.00  0.00    +0.000 A 
ATOM      5  N   UNL     1       2.886   8.057  17.682  0.00  0.00    +0.000 N 
ATOM      6  N   UNL     1       3.754   7.753  16.684  0.00  0.00    +0.000 NA
ATOM      7  C   UNL     1       4.355   6.601  17.069  0.00  0.00    +0.000 A 
ATOM      8  C   UNL     1       3.850   6.197  18.314  0.00  0.00    +0.000 A 
ATOM      9  C   UNL     1       3.949   5.172  19.373  0.00  0.00    +0.000 C 
ATOM     10  H   UNL     1       2.314   8.892  17.603  0.00  0.00    +0.000 HD
ENDROOT
BRANCH   7  11
ATOM     11  C   UNL     1       5.356   5.941  16.238  0.00  0.00    +0.000 A 
ATOM     12  C   UNL     1       6.717   6.064  16.540  0.00  0.00    +0.000 A 
ATOM     13  C   UNL     1       7.673   5.449  15.733  0.00  0.00    +0.000 A 
ATOM     14  C   UNL     1       7.269   4.707  14.623  0.00  0.00    +0.000 A 
ATOM     15  C   UNL     1       5.917   4.577  14.305  0.00  0.00    +0.000 A 
ATOM     16  C   UNL     1       4.966   5.195  15.116  0.00  0.00    +0.000 A 
BRANCH  15  17
ATOM     17  O   UNL     1       5.651   3.834  13.188  0.00  0.00    +0.000 OA
ATOM     18  C   UNL     1       6.743   3.607  12.301  0.00  0.00    +0.000 C 
ENDBRANCH  15  17
ENDBRANCH   7  11
BRANCH   9  19
ATOM     19  C   UNL     1       3.633   3.805  18.810  0.00  0.00    +0.000 A 
ATOM     20  C   UNL     1       2.598   3.586  17.899  0.00  0.00    +0.000 A 
ATOM     21  C   UNL     1       2.256   2.278  17.565  0.00  0.00    +0.000 A 
ATOM     22  C   UNL     1       2.942   1.221  18.149  0.00  0.00    +0.000 A 
ATOM     23  C   UNL     1       3.966   1.515  19.029  0.00  0.00    +0.000 A 
ATOM     24  N   UNL     1       4.326   2.771  19.366  0.00  0.00    +0.000 NA
ENDBRANCH   9  19
BRANCH   1  25
ATOM     25  C   UNL     1       2.437   4.922  21.463  0.00  0.00    +0.000 C 
BRANCH  25  27
ATOM     26  C   UNL     1       1.557   2.556  21.675  0.00  0.00    +0.000 C 
ATOM     27  C   UNL     1       1.312   3.949  21.118  0.00  0.00    +0.000 C 
ENDBRANCH  25  27
ENDBRANCH   1  25
TORSDOF 5
ENDMDL
MODEL 3
REMARK VINA RESULT:      -6.9      2.581      5.522
REMARK  Name = 
REMARK  7 active torsions:
REMARK  status: ('A' for Active; 'I' for Inactive)
REMARK    1  A    between atoms: C_1  and  C_2
REMARK    2  A    between atoms: C_2  and  C_3
REMARK    3  A    between atoms: C_3  and  N_4
REMARK    4  A    between atoms: C_10  and  C_11
REMARK    5  A    between atoms: C_15  and  O_16
REMARK    6  A    between atoms: O_16  and  C_17
REMARK    7  A    between atoms: C_20  and  C_21
REMARK                            x       y       z     vdW  Elec       q    Type
REMARK                         _______ _______ _______ _____ _____    ______ ____
ROOT
ATOM      1  N   UNL     1       3.346   3.701  17.019  0.00  0.00    +0.000 N 
ATOM      2  C   UNL     1       4.565   4.276  16.641  0.00  0.00    +0.000 C 
ATOM      3  O   UNL     1       5.544   3.732  16.157  0.00  0.00    +0.000 OA
ATOM      4  C   UNL     1       4.424   5.635  17.003  0.00  0.00    +0.000 A 
ATOM      5  N   UNL     1       5.123   6.777  16.943  0.00  0.00    +0.000 N 
ATOM      6  N   UNL     1       4.440   7.801  17.512  0.00  0.00    +0.000 NA
ATOM      7  C   UNL     1       3.270   7.263  17.934  0.00  0.00    +0.000 A 
ATOM      8  C   UNL     1       3.238   5.895  17.619  0.00  0.00    +0.000 A 
ATOM      9  C   UNL     1       2.420   4.669  17.688  0.00  0.00    +0.000 C 
ATOM     10  H   UNL     1       6.045   6.952  16.555  0.00  0.00    +0.000 HD
ENDROOT
BRANCH   7  11
ATOM     11  C   UNL     1       2.260   8.060  18.621  0.00  0.00    +0.000 A 
ATOM     12  C   UNL     1       1.539   9.037  17.925  0.00  0.00    +0.000 A 
ATOM     13  C   UNL     1       0.588   9.811  18.588  0.00  0.00    +0.000 A 
ATOM     14  C   UNL     1       0.355   9.608  19.948  0.00  0.00    +0.000 A 
ATOM     15  C   UNL     1       1.066   8.641  20.658  0.00  0.00    +0.000 A 
ATOM     16  C   UNL     1       2.016   7.870  19.989  0.00  0.00    +0.000 A 
BRANCH  15  17
ATOM     17  O   UNL     1       0.753   8.546  21.986  0.00  0.00    +0.000 OA
ATOM     18  C   UNL     1       0.148   9.692  22.579  0.00  0.00    +0.000 C 
ENDBRANCH  15  17
ENDBRANCH   7  11
BRANCH   9  19
ATOM     19  C   UNL     1       2.092   4.336  19.126  0.00  0.00    +0.000 A 
ATOM     20  C   UNL     1       2.977   4.586  20.177  0.00  0.00    +0.000 A 
ATOM     21  C   UNL     1       2.679   4.091  21.444  0.00  0.00    +0.000 A 
ATOM     22  C   UNL     1       1.517   3.355  21.635  0.00  0.00    +0.000 A 
ATOM     23  C   UNL     1       0.681   3.163  20.552  0.00  0.00    +0.000 A 
ATOM     24  N   UNL     1       0.938   3.636  19.314  0.00  0.00    +0.000 NA
ENDBRANCH   9  19
BRANCH   1  25
ATOM     25  C   UNL     1       3.141   2.262  17.048  0.00  0.00    +0.000 C 
BRANCH  25  27
ATOM     26  C   UNL     1       3.421   1.025  19.240  0.00  0.00    +0.000 C 
ATOM     27  C   UNL     1       4.096   1.499  17.963  0.00  0.00    +0.000 C 
ENDBRANCH  25  27
ENDBRANCH   1  25
TORSDOF 5
ENDMDL
MODEL 4
REMARK VINA RESULT:      -6.9      2.721      5.895
REMARK  Name = 
REMARK  7 active torsions:
REMARK  status: ('A' for Active; 'I' for Inactive)
REMARK    1  A    between atoms: C_1  and  C_2
REMARK    2  A    between atoms: C_2  and  C_3
REMARK    3  A    between atoms: C_3  and  N_4
REMARK    4  A    between atoms: C_10  and  C_11
REMARK    5  A    between atoms: C_15  and  O_16
REMARK    6  A    between atoms: O_16  and  C_17
REMARK    7  A    between atoms: C_20  and  C_21
REMARK                            x       y       z     vdW  Elec       q    Type
REMARK                         _______ _______ _______ _____ _____    ______ ____
ROOT
ATOM      1  N   UNL     1       3.189   3.681  17.068  0.00  0.00    +0.000 N 
ATOM      2  C   UNL     1       4.397   4.256  16.655  0.00  0.00    +0.000 C 
ATOM      3  O   UNL     1       5.352   3.718  16.121  0.00  0.00    +0.000 OA
ATOM      4  C   UNL     1       4.279   5.608  17.051  0.00  0.00    +0.000 A 
ATOM      5  N   UNL     1       4.983   6.747  16.988  0.00  0.00    +0.000 N 
ATOM      6  N   UNL     1       4.330   7.762  17.606  0.00  0.00    +0.000 NA
ATOM      7  C   UNL     1       3.173   7.221  18.062  0.00  0.00    +0.000 A 
ATOM      8  C   UNL     1       3.120   5.862  17.719  0.00  0.00    +0.000 A 
ATOM      9  C   UNL     1       2.297   4.639  17.793  0.00  0.00    +0.000 C 
ATOM     10  H   UNL     1       5.891   6.925  16.568  0.00  0.00    +0.000 HD
ENDROOT
BRANCH   7  11
ATOM     11  C   UNL     1       2.197   8.009  18.805  0.00  0.00    +0.000 A 
ATOM     12  C   UNL     1       1.968   7.753  20.162  0.00  0.00    +0.000 A 
ATOM     13  C   UNL     1       1.020   8.493  20.866  0.00  0.00    +0.000 A 
ATOM     14  C   UNL     1       0.301   9.495  20.215  0.00  0.00    +0.000 A 
ATOM     15  C   UNL     1       0.513   9.762  18.863  0.00  0.00    +0.000 A 
ATOM     16  C   UNL     1       1.462   9.018  18.164  0.00  0.00    +0.000 A 
BRANCH  15  17
ATOM     17  O   UNL     1      -0.261  10.761  18.337  0.00  0.00    +0.000 OA
ATOM     18  C   UNL     1      -1.512  10.366  17.780  0.00  0.00    +0.000 C 
ENDBRANCH  15  17
ENDBRANCH   7  11
BRANCH   9  19
ATOM     19  C   UNL     1       2.024   4.276  19.236  0.00  0.00    +0.000 A 
ATOM     20  C   UNL     1       2.920   4.565  20.267  0.00  0.00    +0.000 A 
ATOM     21  C   UNL     1       2.680   4.044  21.536  0.00  0.00    +0.000 A 
ATOM     22  C   UNL     1       1.565   3.244  21.749  0.00  0.00    +0.000 A 
ATOM     23  C   UNL     1       0.714   3.016  20.684  0.00  0.00    +0.000 A 
ATOM     24  N   UNL     1       0.914   3.513  19.445  0.00  0.00    +0.000 NA
ENDBRANCH   9  19
BRANCH   1  25
ATOM     25  C   UNL     1       2.976   2.242  17.074  0.00  0.00    +0.000 C 
BRANCH  25  27
ATOM     26  C   UNL     1       3.640   1.137  19.254  0.00  0.00    +0.000 C 
ATOM     27  C   UNL     1       4.041   1.442  17.820  0.00  0.00    +0.000 C 
ENDBRANCH  25  27
ENDBRANCH   1  25
TORSDOF 5
ENDMDL
MODEL 5
REMARK VINA RESULT:      -6.8      1.992      4.793
REMARK  Name = 
REMARK  7 active torsions:
REMARK  status: ('A' for Active; 'I' for Inactive)
REMARK    1  A    between atoms: C_1  and  C_2
REMARK    2  A    between atoms: C_2  and  C_3
REMARK    3  A    between atoms: C_3  and  N_4
REMARK    4  A    between atoms: C_10  and  C_11
REMARK    5  A    between atoms: C_15  and  O_16
REMARK    6  A    between atoms: O_16  and  C_17
REMARK    7  A    between atoms: C_20  and  C_21
REMARK                            x       y       z     vdW  Elec       q    Type
REMARK                         _______ _______ _______ _____ _____    ______ ____
ROOT
ATOM      1  N   UNL     1       5.720   4.463  14.858  0.00  0.00    +0.000 N 
ATOM      2  C   UNL     1       6.853   5.259  15.066  0.00  0.00    +0.000 C 
ATOM      3  O   UNL     1       7.963   5.146  14.572  0.00  0.00    +0.000 OA
ATOM      4  C   UNL     1       6.431   6.201  16.031  0.00  0.00    +0.000 A 
ATOM      5  N   UNL     1       6.917   7.260  16.693  0.00  0.00    +0.000 N 
ATOM      6  N   UNL     1       6.001   7.762  17.559  0.00  0.00    +0.000 NA
ATOM      7  C   UNL     1       4.905   6.977  17.416  0.00  0.00    +0.000 A 
ATOM      8  C   UNL     1       5.154   5.988  16.452  0.00  0.00    +0.000 A 
ATOM      9  C   UNL     1       4.565   4.842  15.732  0.00  0.00    +0.000 C 
ATOM     10  H   UNL     1       7.833   7.697  16.633  0.00  0.00    +0.000 HD
ENDROOT
BRANCH   7  11
ATOM     11  C   UNL     1       3.697   7.195  18.203  0.00  0.00    +0.000 A 
ATOM     12  C   UNL     1       2.908   8.331  17.986  0.00  0.00    +0.000 A 
ATOM     13  C   UNL     1       1.764   8.547  18.752  0.00  0.00    +0.000 A 
ATOM     14  C   UNL     1       1.404   7.626  19.736  0.00  0.00    +0.000 A 
ATOM     15  C   UNL     1       2.180   6.490  19.967  0.00  0.00    +0.000 A 
ATOM     16  C   UNL     1       3.323   6.279  19.198  0.00  0.00    +0.000 A 
BRANCH  15  17
ATOM     17  O   UNL     1       1.728   5.669  20.964  0.00  0.00    +0.000 OA
ATOM     18  C   UNL     1       1.182   4.417  20.558  0.00  0.00    +0.000 C 
ENDBRANCH  15  17
ENDBRANCH   7  11
BRANCH   9  19
ATOM     19  C   UNL     1       4.137   3.770  16.709  0.00  0.00    +0.000 A 
ATOM     20  C   UNL     1       2.878   3.169  16.664  0.00  0.00    +0.000 A 
ATOM     21  C   UNL     1       2.495   2.323  17.702  0.00  0.00    +0.000 A 
ATOM     22  C   UNL     1       3.365   2.102  18.761  0.00  0.00    +0.000 A 
ATOM     23  C   UNL     1       4.601   2.718  18.729  0.00  0.00    +0.000 A 
ATOM     24  N   UNL     1       5.005   3.537  17.734  0.00  0.00    +0.000 NA
ENDBRANCH   9  19
BRANCH   1  25
ATOM     25  C   UNL     1       5.773   3.215  14.114  0.00  0.00    +0.000 C 
BRANCH  25  27
ATOM     26  C   UNL     1       4.656   3.298  11.842  0.00  0.00    +0.000 C 
ATOM     27  C   UNL     1       5.966   3.377  12.608  0.00  0.00    +0.000 C 
ENDBRANCH  25  27
ENDBRANCH   1  25
TORSDOF 5
ENDMDL
MODEL 6
REMARK VINA RESULT:      -6.8      5.593      9.095
REMARK  Name = 
REMARK  7 active torsions:
REMARK  status: ('A' for Active; 'I' for Inactive)
REMARK    1  A    between atoms: C_1  and  C_2
REMARK    2  A    between atoms: C_2  and  C_3
REMARK    3  A    between atoms: C_3  and  N_4
REMARK    4  A    between atoms: C_10  and  C_11
REMARK    5  A    between atoms: C_15  and  O_16
REMARK    6  A    between atoms: O_16  and  C_17
REMARK    7  A    between atoms: C_20  and  C_21
REMARK                            x       y       z     vdW  Elec       q    Type
REMARK                         _______ _______ _______ _____ _____    ______ ____
ROOT
ATOM      1  N   UNL     1      -1.806  12.643  21.556  0.00  0.00    +0.000 N 
ATOM      2  C   UNL     1      -1.865  11.991  22.793  0.00  0.00    +0.000 C 
ATOM      3  O   UNL     1      -2.402  12.363  23.823  0.00  0.00    +0.000 OA
ATOM      4  C   UNL     1      -1.105  10.816  22.591  0.00  0.00    +0.000 A 
ATOM      5  N   UNL     1      -0.733   9.722  23.270  0.00  0.00    +0.000 N 
ATOM      6  N   UNL     1       0.064   8.924  22.516  0.00  0.00    +0.000 NA
ATOM      7  C   UNL     1       0.181   9.557  21.323  0.00  0.00    +0.000 A 
ATOM      8  C   UNL     1      -0.553  10.753  21.349  0.00  0.00    +0.000 A 
ATOM      9  C   UNL     1      -0.955  11.929  20.552  0.00  0.00    +0.000 C 
ATOM     10  H   UNL     1      -0.956   9.442  24.221  0.00  0.00    +0.000 HD
ENDROOT
BRANCH   7  11
ATOM     11  C   UNL     1       0.987   9.009  20.238  0.00  0.00    +0.000 A 
ATOM     12  C   UNL     1       1.038   9.659  18.999  0.00  0.00    +0.000 A 
ATOM     13  C   UNL     1       1.792   9.123  17.957  0.00  0.00    +0.000 A 
ATOM     14  C   UNL     1       2.500   7.937  18.153  0.00  0.00    +0.000 A 
ATOM     15  C   UNL     1       2.459   7.275  19.379  0.00  0.00    +0.000 A 
ATOM     16  C   UNL     1       1.702   7.816  20.417  0.00  0.00    +0.000 A 
BRANCH  15  17
ATOM     17  O   UNL     1       3.186   6.118  19.442  0.00  0.00    +0.000 OA
ATOM     18  C   UNL     1       3.459   5.472  18.201  0.00  0.00    +0.000 C 
ENDBRANCH  15  17
ENDBRANCH   7  11
BRANCH   9  19
ATOM     19  C   UNL     1       0.265  12.698  20.099  0.00  0.00    +0.000 A 
ATOM     20  C   UNL     1       0.484  13.044  18.764  0.00  0.00    +0.000 A 
ATOM     21  C   UNL     1       1.712  13.594  18.401  0.00  0.00    +0.000 A 
ATOM     22  C   UNL     1       2.692  13.778  19.367  0.00  0.00    +0.000 A 
ATOM     23  C   UNL     1       2.396  13.428  20.671  0.00  0.00    +0.000 A 
ATOM     24  N   UNL     1       1.215  12.901  21.056  0.00  0.00    +0.000 NA
ENDBRANCH   9  19
BRANCH   1  25
ATOM     25  C   UNL     1      -2.255  14.015  21.378  0.00  0.00    +0.000 C 
BRANCH  25  27
ATOM     26  C   UNL     1      -4.395  13.208  20.288  0.00  0.00    +0.000 C 
ATOM     27  C   UNL     1      -3.769  14.182  21.273  0.00  0.00    +0.000 C 
ENDBRANCH  25  27
ENDBRANCH   1  25
TORSDOF 5
ENDMDL
MODEL 7
REMARK VINA RESULT:      -6.7      5.713      9.010
REMARK  Name = 
REMARK  7 active torsions:
REMARK  status: ('A' for Active; 'I' for Inactive)
REMARK    1  A    between atoms: C_1  and  C_2
REMARK    2  A    between atoms: C_2  and  C_3
REMARK    3  A    between atoms: C_3  and  N_4
REMARK    4  A    between atoms: C_10  and  C_11
REMARK    5  A    between atoms: C_15  and  O_16
REMARK    6  A    between atoms: O_16  and  C_17
REMARK    7  A    between atoms: C_20  and  C_21
REMARK                            x       y       z     vdW  Elec       q    Type
REMARK                         _______ _______ _______ _____ _____    ______ ____
ROOT
ATOM      1  N   UNL     1      -1.818  12.839  21.573  0.00  0.00    +0.000 N 
ATOM      2  C   UNL     1      -1.899  12.203  22.818  0.00  0.00    +0.000 C 
ATOM      3  O   UNL     1      -2.429  12.602  23.842  0.00  0.00    +0.000 OA
ATOM      4  C   UNL     1      -1.172  11.005  22.633  0.00  0.00    +0.000 A 
ATOM      5  N   UNL     1      -0.833   9.909  23.325  0.00  0.00    +0.000 N 
ATOM      6  N   UNL     1      -0.056   9.081  22.584  0.00  0.00    +0.000 NA
ATOM      7  C   UNL     1       0.083   9.696  21.384  0.00  0.00    +0.000 A 
ATOM      8  C   UNL     1      -0.618  10.912  21.393  0.00  0.00    +0.000 A 
ATOM      9  C   UNL     1      -0.985  12.089  20.581  0.00  0.00    +0.000 C 
ATOM     10  H   UNL     1      -1.067   9.647  24.279  0.00  0.00    +0.000 HD
ENDROOT
BRANCH   7  11
ATOM     11  C   UNL     1       0.876   9.113  20.309  0.00  0.00    +0.000 A 
ATOM     12  C   UNL     1       0.931   9.734  19.055  0.00  0.00    +0.000 A 
ATOM     13  C   UNL     1       1.674   9.165  18.022  0.00  0.00    +0.000 A 
ATOM     14  C   UNL     1       2.367   7.974  18.242  0.00  0.00    +0.000 A 
ATOM     15  C   UNL     1       2.321   7.340  19.483  0.00  0.00    +0.000 A 
ATOM     16  C   UNL     1       1.576   7.914  20.512  0.00  0.00    +0.000 A 
BRANCH  15  17
ATOM     17  O   UNL     1       3.033   6.175  19.568  0.00  0.00    +0.000 OA
ATOM     18  C   UNL     1       2.962   5.304  18.443  0.00  0.00    +0.000 C 
ENDBRANCH  15  17
ENDBRANCH   7  11
BRANCH   9  19
ATOM     19  C   UNL     1       0.258  12.819  20.123  0.00  0.00    +0.000 A 
ATOM     20  C   UNL     1       0.451  13.221  18.800  0.00  0.00    +0.000 A 
ATOM     21  C   UNL     1       1.692  13.726  18.421  0.00  0.00    +0.000 A 
ATOM     22  C   UNL     1       2.712  13.812  19.360  0.00  0.00    +0.000 A 
ATOM     23  C   UNL     1       2.442  13.411  20.654  0.00  0.00    +0.000 A 
ATOM     24  N   UNL     1       1.248  12.925  21.055  0.00  0.00    +0.000 NA
ENDBRANCH   9  19
BRANCH   1  25
ATOM     25  C   UNL     1      -2.228  14.220  21.377  0.00  0.00    +0.000 C 
BRANCH  25  27
ATOM     26  C   UNL     1      -0.672  16.208  21.179  0.00  0.00    +0.000 C 
ATOM     27  C   UNL     1      -1.380  15.249  22.121  0.00  0.00    +0.000 C 
ENDBRANCH  25  27
ENDBRANCH   1  25
TORSDOF 5
ENDMDL
MODEL 8
REMARK VINA RESULT:      -6.7      9.448     10.703
REMARK  Name = 
REMARK  7 active torsions:
REMARK  status: ('A' for Active; 'I' for Inactive)
REMARK    1  A    between atoms: C_1  and  C_2
REMARK    2  A    between atoms: C_2  and  C_3
REMARK    3  A    between atoms: C_3  and  N_4
REMARK    4  A    between atoms: C_10  and  C_11
REMARK    5  A    between atoms: C_15  and  O_16
REMARK    6  A    between atoms: O_16  and  C_17
REMARK    7  A    between atoms: C_20  and  C_21
REMARK                            x       y       z     vdW  Elec       q    Type
REMARK                         _______ _______ _______ _____ _____    ______ ____
ROOT
ATOM      1  N   UNL     1      11.102  15.041  17.818  0.00  0.00    +0.000 N 
ATOM      2  C   UNL     1      11.695  13.796  17.577  0.00  0.00    +0.000 C 
ATOM      3  O   UNL     1      12.333  13.433  16.603  0.00  0.00    +0.000 OA
ATOM      4  C   UNL     1      11.338  13.028  18.709  0.00  0.00    +0.000 A 
ATOM      5  N   UNL     1      11.538  11.798  19.203  0.00  0.00    +0.000 N 
ATOM      6  N   UNL     1      10.877  11.626  20.374  0.00  0.00    +0.000 NA
ATOM      7  C   UNL     1      10.248  12.803  20.609  0.00  0.00    +0.000 A 
ATOM      8  C   UNL     1      10.530  13.705  19.571  0.00  0.00    +0.000 A 
ATOM      9  C   UNL     1      10.299  15.078  19.081  0.00  0.00    +0.000 C 
ATOM     10  H   UNL     1      12.084  11.029  18.824  0.00  0.00    +0.000 HD
ENDROOT
BRANCH   7  11
ATOM     11  C   UNL     1       9.411  13.006  21.786  0.00  0.00    +0.000 A 
ATOM     12  C   UNL     1       9.367  14.256  22.414  0.00  0.00    +0.000 A 
ATOM     13  C   UNL     1       8.581  14.443  23.550  0.00  0.00    +0.000 A 
ATOM     14  C   UNL     1       7.834  13.380  24.058  0.00  0.00    +0.000 A 
ATOM     15  C   UNL     1       7.867  12.128  23.446  0.00  0.00    +0.000 A 
ATOM     16  C   UNL     1       8.656  11.947  22.311  0.00  0.00    +0.000 A 
BRANCH  15  17
ATOM     17  O   UNL     1       7.100  11.166  24.045  0.00  0.00    +0.000 OA
ATOM     18  C   UNL     1       6.338  11.577  25.177  0.00  0.00    +0.000 C 
ENDBRANCH  15  17
ENDBRANCH   7  11
BRANCH   9  19
ATOM     19  C   UNL     1       8.820  15.322  18.881  0.00  0.00    +0.000 A 
ATOM     20  C   UNL     1       8.106  16.266  19.621  0.00  0.00    +0.000 A 
ATOM     21  C   UNL     1       6.718  16.308  19.505  0.00  0.00    +0.000 A 
ATOM     22  C   UNL     1       6.075  15.408  18.665  0.00  0.00    +0.000 A 
ATOM     23  C   UNL     1       6.849  14.514  17.951  0.00  0.00    +0.000 A 
ATOM     24  N   UNL     1       8.195  14.454  18.036  0.00  0.00    +0.000 NA
ENDBRANCH   9  19
BRANCH   1  25
ATOM     25  C   UNL     1      11.013  16.070  16.795  0.00  0.00    +0.000 C 
BRANCH  25  27
ATOM     26  C   UNL     1      10.279  18.427  17.363  0.00  0.00    +0.000 C 
ATOM     27  C   UNL     1      11.448  17.462  17.249  0.00  0.00    +0.000 C 
ENDBRANCH  25  27
ENDBRANCH   1  25
TORSDOF 5
ENDMDL
MODEL 9
REMARK VINA RESULT:      -6.7      2.978      6.376
REMARK  Name = 
REMARK  7 active torsions:
REMARK  status: ('A' for Active; 'I' for Inactive)
REMARK    1  A    between atoms: C_1  and  C_2
REMARK    2  A    between atoms: C_2  and  C_3
REMARK    3  A    between atoms: C_3  and  N_4
REMARK    4  A    between atoms: C_10  and  C_11
REMARK    5  A    between atoms: C_15  and  O_16
REMARK    6  A    between atoms: O_16  and  C_17
REMARK    7  A    between atoms: C_20  and  C_21
REMARK                            x       y       z     vdW  Elec       q    Type
REMARK                         _______ _______ _______ _____ _____    ______ ____
ROOT
ATOM      1  N   UNL     1       1.294   8.123  20.579  0.00  0.00    +0.000 N 
ATOM      2  C   UNL     1       0.983   8.995  19.529  0.00  0.00    +0.000 C 
ATOM      3  O   UNL     1       0.099   9.833  19.473  0.00  0.00    +0.000 OA
ATOM      4  C   UNL     1       1.903   8.642  18.515  0.00  0.00    +0.000 A 
ATOM      5  N   UNL     1       2.236   9.021  17.273  0.00  0.00    +0.000 N 
ATOM      6  N   UNL     1       3.227   8.244  16.771  0.00  0.00    +0.000 NA
ATOM      7  C   UNL     1       3.516   7.353  17.751  0.00  0.00    +0.000 A 
ATOM      8  C   UNL     1       2.693   7.590  18.863  0.00  0.00    +0.000 A 
ATOM      9  C   UNL     1       2.380   7.151  20.237  0.00  0.00    +0.000 C 
ATOM     10  H   UNL     1       1.853   9.767  16.699  0.00  0.00    +0.000 HD
ENDROOT
BRANCH   7  11
ATOM     11  C   UNL     1       4.536   6.325  17.579  0.00  0.00    +0.000 A 
ATOM     12  C   UNL     1       4.951   5.552  18.671  0.00  0.00    +0.000 A 
ATOM     13  C   UNL     1       5.939   4.584  18.509  0.00  0.00    +0.000 A 
ATOM     14  C   UNL     1       6.514   4.383  17.254  0.00  0.00    +0.000 A 
ATOM     15  C   UNL     1       6.115   5.145  16.156  0.00  0.00    +0.000 A 
ATOM     16  C   UNL     1       5.126   6.113  16.325  0.00  0.00    +0.000 A 
BRANCH  15  17
ATOM     17  O   UNL     1       6.761   4.861  14.984  0.00  0.00    +0.000 OA
ATOM     18  C   UNL     1       6.093   3.972  14.092  0.00  0.00    +0.000 C 
ENDBRANCH  15  17
ENDBRANCH   7  11
BRANCH   9  19
ATOM     19  C   UNL     1       1.951   5.701  20.240  0.00  0.00    +0.000 A 
ATOM     20  C   UNL     1       2.168   4.853  21.328  0.00  0.00    +0.000 A 
ATOM     21  C   UNL     1       1.906   3.493  21.188  0.00  0.00    +0.000 A 
ATOM     22  C   UNL     1       1.446   3.006  19.972  0.00  0.00    +0.000 A 
ATOM     23  C   UNL     1       1.238   3.907  18.945  0.00  0.00    +0.000 A 
ATOM     24  N   UNL     1       1.475   5.232  19.052  0.00  0.00    +0.000 NA
ENDBRANCH   9  19
BRANCH   1  25
ATOM     25  C   UNL     1       0.437   7.973  21.744  0.00  0.00    +0.000 C 
BRANCH  25  27
ATOM     26  C   UNL     1      -0.670   9.900  22.960  0.00  0.00    +0.000 C 
ATOM     27  C   UNL     1       0.592   9.069  22.796  0.00  0.00    +0.000 C 
ENDBRANCH  25  27
ENDBRANCH   1  25
TORSDOF 5
ENDMDL
