MODEL 1
REMARK VINA RESULT:      -4.3      0.000      0.000
REMARK  Name = 
REMARK  10 active torsions:
REMARK  status: ('A' for Active; 'I' for Inactive)
REMARK    1  A    between atoms: C_1  and  N_2
REMARK    2  A    between atoms: N_2  and  C_3
REMARK    3  A    between atoms: C_3  and  C_4
REMARK    4  A    between atoms: C_4  and  C_5
REMARK    5  A    between atoms: C_5  and  N_6
REMARK    6  A    between atoms: N_6  and  C_7
REMARK    7  A    between atoms: C_7  and  C_8
REMARK    8  A    between atoms: C_8  and  C_9
REMARK    9  A    between atoms: C_9  and  N_10
REMARK   10  A    between atoms: N_10  and  C_11
REMARK                            x       y       z     vdW  Elec       q    Type
REMARK                         _______ _______ _______ _____ _____    ______ ____
ROOT
ATOM      1  N   UNL     1       5.966   3.958  18.593  0.00  0.00    +0.000 NA
ATOM      2  H   UNL     1       6.209   3.216  19.246  0.00  0.00    +0.000 HD
ENDROOT
BRANCH   1   3
ATOM      3  C   UNL     1       6.250   5.263  19.185  0.00  0.00    +0.000 C 
BRANCH   3   4
ATOM      4  C   UNL     1       7.487   5.873  18.533  0.00  0.00    +0.000 C 
BRANCH   4   5
ATOM      5  C   UNL     1       7.224   6.106  17.047  0.00  0.00    +0.000 C 
BRANCH   5   7
ATOM      6  C   UNL     1       6.775   4.831  15.071  0.00  0.00    +0.000 C 
ATOM      7  N   UNL     1       7.580   4.914  16.280  0.00  0.00    +0.000 NA
ATOM      8  H   UNL     1       8.569   4.946  16.033  0.00  0.00    +0.000 HD
ENDBRANCH   5   7
ENDBRANCH   4   5
ENDBRANCH   3   4
ENDBRANCH   1   3
BRANCH   1   9
ATOM      9  C   UNL     1       4.555   3.865  18.225  0.00  0.00    +0.000 C 
BRANCH   9  10
ATOM     10  C   UNL     1       3.833   2.911  19.172  0.00  0.00    +0.000 C 
BRANCH  10  11
ATOM     11  C   UNL     1       3.370   1.677  18.402  0.00  0.00    +0.000 C 
BRANCH  11  12
ATOM     12  N   UNL     1       2.085   1.940  17.752  0.00  0.00    +0.000 NA
ATOM     13  C   UNL     1       1.094   2.340  18.738  0.00  0.00    +0.000 C 
ATOM     14  H   UNL     1       1.769   1.101  17.265  0.00  0.00    +0.000 HD
ENDBRANCH  11  12
ENDBRANCH  10  11
ENDBRANCH   9  10
ENDBRANCH   1   9
TORSDOF 8
ENDMDL
MODEL 2
REMARK VINA RESULT:      -4.2      2.410      3.486
REMARK  Name = 
REMARK  10 active torsions:
REMARK  status: ('A' for Active; 'I' for Inactive)
REMARK    1  A    between atoms: C_1  and  N_2
REMARK    2  A    between atoms: N_2  and  C_3
REMARK    3  A    between atoms: C_3  and  C_4
REMARK    4  A    between atoms: C_4  and  C_5
REMARK    5  A    between atoms: C_5  and  N_6
REMARK    6  A    between atoms: N_6  and  C_7
REMARK    7  A    between atoms: C_7  and  C_8
REMARK    8  A    between atoms: C_8  and  C_9
REMARK    9  A    between atoms: C_9  and  N_10
REMARK   10  A    between atoms: N_10  and  C_11
REMARK                            x       y       z     vdW  Elec       q    Type
REMARK                         _______ _______ _______ _____ _____    ______ ____
ROOT
ATOM      1  N   UNL     1       4.442   2.848  18.451  0.00  0.00    +0.000 NA
ATOM      2  H   UNL     1       4.263   3.485  19.223  0.00  0.00    +0.000 HD
ENDROOT
BRANCH   1   3
ATOM      3  C   UNL     1       4.280   3.542  17.176  0.00  0.00    +0.000 C 
BRANCH   3   4
ATOM      4  C   UNL     1       4.130   5.042  17.414  0.00  0.00    +0.000 C 
BRANCH   4   5
ATOM      5  C   UNL     1       4.837   5.430  18.711  0.00  0.00    +0.000 C 
BRANCH   5   7
ATOM      6  C   UNL     1       2.756   6.331  19.475  0.00  0.00    +0.000 C 
ATOM      7  N   UNL     1       3.879   5.472  19.814  0.00  0.00    +0.000 NA
ATOM      8  H   UNL     1       3.543   4.530  20.014  0.00  0.00    +0.000 HD
ENDBRANCH   5   7
ENDBRANCH   4   5
ENDBRANCH   3   4
ENDBRANCH   1   3
BRANCH   1   9
ATOM      9  C   UNL     1       3.537   1.703  18.522  0.00  0.00    +0.000 C 
BRANCH   9  10
ATOM     10  C   UNL     1       2.137   2.119  18.081  0.00  0.00    +0.000 C 
BRANCH  10  11
ATOM     11  C   UNL     1       1.419   2.806  19.240  0.00  0.00    +0.000 C 
BRANCH  11  12
ATOM     12  N   UNL     1       2.276   2.824  20.426  0.00  0.00    +0.000 NA
ATOM     13  C   UNL     1       1.485   2.596  21.624  0.00  0.00    +0.000 C 
ATOM     14  H   UNL     1       2.752   3.724  20.492  0.00  0.00    +0.000 HD
ENDBRANCH  11  12
ENDBRANCH  10  11
ENDBRANCH   9  10
ENDBRANCH   1   9
TORSDOF 8
ENDMDL
MODEL 3
REMARK VINA RESULT:      -4.1      2.255      4.446
REMARK  Name = 
REMARK  10 active torsions:
REMARK  status: ('A' for Active; 'I' for Inactive)
REMARK    1  A    between atoms: C_1  and  N_2
REMARK    2  A    between atoms: N_2  and  C_3
REMARK    3  A    between atoms: C_3  and  C_4
REMARK    4  A    between atoms: C_4  and  C_5
REMARK    5  A    between atoms: C_5  and  N_6
REMARK    6  A    between atoms: N_6  and  C_7
REMARK    7  A    between atoms: C_7  and  C_8
REMARK    8  A    between atoms: C_8  and  C_9
REMARK    9  A    between atoms: C_9  and  N_10
REMARK   10  A    between atoms: N_10  and  C_11
REMARK                            x       y       z     vdW  Elec       q    Type
REMARK                         _______ _______ _______ _____ _____    ______ ____
ROOT
ATOM      1  N   UNL     1       1.541   3.302  18.733  0.00  0.00    +0.000 NA
ATOM      2  H   UNL     1       0.847   3.688  18.098  0.00  0.00    +0.000 HD
ENDROOT
BRANCH   1   3
ATOM      3  C   UNL     1       1.986   1.994  18.257  0.00  0.00    +0.000 C 
BRANCH   3   4
ATOM      4  C   UNL     1       3.502   1.881  18.385  0.00  0.00    +0.000 C 
BRANCH   4   5
ATOM      5  C   UNL     1       4.152   3.206  17.991  0.00  0.00    +0.000 C 
BRANCH   5   7
ATOM      6  C   UNL     1       6.058   4.595  18.396  0.00  0.00    +0.000 C 
ATOM      7  N   UNL     1       5.204   3.554  18.944  0.00  0.00    +0.000 NA
ATOM      8  H   UNL     1       4.785   3.877  19.816  0.00  0.00    +0.000 HD
ENDBRANCH   5   7
ENDBRANCH   4   5
ENDBRANCH   3   4
ENDBRANCH   1   3
BRANCH   1   9
ATOM      9  C   UNL     1       0.985   3.188  20.079  0.00  0.00    +0.000 C 
BRANCH   9  10
ATOM     10  C   UNL     1       1.834   3.990  21.061  0.00  0.00    +0.000 C 
BRANCH  10  11
ATOM     11  C   UNL     1       1.816   5.465  20.667  0.00  0.00    +0.000 C 
BRANCH  11  12
ATOM     12  N   UNL     1       3.102   5.847  20.082  0.00  0.00    +0.000 NA
ATOM     13  C   UNL     1       2.895   6.651  18.889  0.00  0.00    +0.000 C 
ATOM     14  H   UNL     1       3.634   5.009  19.847  0.00  0.00    +0.000 HD
ENDBRANCH  11  12
ENDBRANCH  10  11
ENDBRANCH   9  10
ENDBRANCH   1   9
TORSDOF 8
ENDMDL
MODEL 4
REMARK VINA RESULT:      -4.1      1.228      5.193
REMARK  Name = 
REMARK  10 active torsions:
REMARK  status: ('A' for Active; 'I' for Inactive)
REMARK    1  A    between atoms: C_1  and  N_2
REMARK    2  A    between atoms: N_2  and  C_3
REMARK    3  A    between atoms: C_3  and  C_4
REMARK    4  A    between atoms: C_4  and  C_5
REMARK    5  A    between atoms: C_5  and  N_6
REMARK    6  A    between atoms: N_6  and  C_7
REMARK    7  A    between atoms: C_7  and  C_8
REMARK    8  A    between atoms: C_8  and  C_9
REMARK    9  A    between atoms: C_9  and  N_10
REMARK   10  A    between atoms: N_10  and  C_11
REMARK                            x       y       z     vdW  Elec       q    Type
REMARK                         _______ _______ _______ _____ _____    ______ ____
ROOT
ATOM      1  N   UNL     1       5.362   3.584  19.013  0.00  0.00    +0.000 NA
ATOM      2  H   UNL     1       6.204   3.246  18.552  0.00  0.00    +0.000 HD
ENDROOT
BRANCH   1   3
ATOM      3  C   UNL     1       4.176   3.137  18.287  0.00  0.00    +0.000 C 
BRANCH   3   4
ATOM      4  C   UNL     1       3.519   4.320  17.581  0.00  0.00    +0.000 C 
BRANCH   4   5
ATOM      5  C   UNL     1       2.020   4.324  17.871  0.00  0.00    +0.000 C 
BRANCH   5   7
ATOM      6  C   UNL     1       0.777   2.511  18.817  0.00  0.00    +0.000 C 
ATOM      7  N   UNL     1       1.740   3.567  19.089  0.00  0.00    +0.000 NA
ATOM      8  H   UNL     1       2.604   3.161  19.448  0.00  0.00    +0.000 HD
ENDBRANCH   5   7
ENDBRANCH   4   5
ENDBRANCH   3   4
ENDBRANCH   1   3
BRANCH   1   9
ATOM      9  C   UNL     1       5.385   5.043  19.096  0.00  0.00    +0.000 C 
BRANCH   9  10
ATOM     10  C   UNL     1       6.824   5.534  19.223  0.00  0.00    +0.000 C 
BRANCH  10  11
ATOM     11  C   UNL     1       7.424   5.728  17.834  0.00  0.00    +0.000 C 
BRANCH  11  12
ATOM     12  N   UNL     1       7.504   4.444  17.134  0.00  0.00    +0.000 NA
ATOM     13  C   UNL     1       7.044   4.588  15.762  0.00  0.00    +0.000 C 
ATOM     14  H   UNL     1       6.931   3.754  17.620  0.00  0.00    +0.000 HD
ENDBRANCH  11  12
ENDBRANCH  10  11
ENDBRANCH   9  10
ENDBRANCH   1   9
TORSDOF 8
ENDMDL
MODEL 5
REMARK VINA RESULT:      -4.1      2.221      5.515
REMARK  Name = 
REMARK  10 active torsions:
REMARK  status: ('A' for Active; 'I' for Inactive)
REMARK    1  A    between atoms: C_1  and  N_2
REMARK    2  A    between atoms: N_2  and  C_3
REMARK    3  A    between atoms: C_3  and  C_4
REMARK    4  A    between atoms: C_4  and  C_5
REMARK    5  A    between atoms: C_5  and  N_6
REMARK    6  A    between atoms: N_6  and  C_7
REMARK    7  A    between atoms: C_7  and  C_8
REMARK    8  A    between atoms: C_8  and  C_9
REMARK    9  A    between atoms: C_9  and  N_10
REMARK   10  A    between atoms: N_10  and  C_11
REMARK                            x       y       z     vdW  Elec       q    Type
REMARK                         _______ _______ _______ _____ _____    ______ ____
ROOT
ATOM      1  N   UNL     1       3.053   2.397  19.220  0.00  0.00    +0.000 NA
ATOM      2  H   UNL     1       3.538   1.713  19.796  0.00  0.00    +0.000 HD
ENDROOT
BRANCH   1   3
ATOM      3  C   UNL     1       1.609   2.198  19.308  0.00  0.00    +0.000 C 
BRANCH   3   4
ATOM      4  C   UNL     1       0.990   3.259  20.214  0.00  0.00    +0.000 C 
BRANCH   4   5
ATOM      5  C   UNL     1       1.876   3.469  21.439  0.00  0.00    +0.000 C 
BRANCH   5   7
ATOM      6  C   UNL     1       1.809   5.646  20.446  0.00  0.00    +0.000 C 
ATOM      7  N   UNL     1       2.514   4.783  21.380  0.00  0.00    +0.000 NA
ATOM      8  H   UNL     1       2.515   5.207  22.308  0.00  0.00    +0.000 HD
ENDBRANCH   5   7
ENDBRANCH   4   5
ENDBRANCH   3   4
ENDBRANCH   1   3
BRANCH   1   9
ATOM      9  C   UNL     1       3.495   2.291  17.831  0.00  0.00    +0.000 C 
BRANCH   9  10
ATOM     10  C   UNL     1       4.279   3.540  17.439  0.00  0.00    +0.000 C 
BRANCH  10  11
ATOM     11  C   UNL     1       4.898   4.169  18.685  0.00  0.00    +0.000 C 
BRANCH  11  12
ATOM     12  N   UNL     1       6.357   4.064  18.632  0.00  0.00    +0.000 NA
ATOM     13  C   UNL     1       6.858   4.617  17.384  0.00  0.00    +0.000 C 
ATOM     14  H   UNL     1       6.633   3.085  18.711  0.00  0.00    +0.000 HD
ENDBRANCH  11  12
ENDBRANCH  10  11
ENDBRANCH   9  10
ENDBRANCH   1   9
TORSDOF 8
ENDMDL
MODEL 6
REMARK VINA RESULT:      -4.1      2.031      5.399
REMARK  Name = 
REMARK  10 active torsions:
REMARK  status: ('A' for Active; 'I' for Inactive)
REMARK    1  A    between atoms: C_1  and  N_2
REMARK    2  A    between atoms: N_2  and  C_3
REMARK    3  A    between atoms: C_3  and  C_4
REMARK    4  A    between atoms: C_4  and  C_5
REMARK    5  A    between atoms: C_5  and  N_6
REMARK    6  A    between atoms: N_6  and  C_7
REMARK    7  A    between atoms: C_7  and  C_8
REMARK    8  A    between atoms: C_8  and  C_9
REMARK    9  A    between atoms: C_9  and  N_10
REMARK   10  A    between atoms: N_10  and  C_11
REMARK                            x       y       z     vdW  Elec       q    Type
REMARK                         _______ _______ _______ _____ _____    ______ ____
ROOT
ATOM      1  N   UNL     1       5.363   3.126  19.154  0.00  0.00    +0.000 NA
ATOM      2  H   UNL     1       5.336   2.769  18.202  0.00  0.00    +0.000 HD
ENDROOT
BRANCH   1   3
ATOM      3  C   UNL     1       4.442   2.371  20.001  0.00  0.00    +0.000 C 
BRANCH   3   4
ATOM      4  C   UNL     1       3.172   3.182  20.242  0.00  0.00    +0.000 C 
BRANCH   4   5
ATOM      5  C   UNL     1       2.373   2.560  21.386  0.00  0.00    +0.000 C 
BRANCH   5   7
ATOM      6  C   UNL     1       0.779   3.904  20.211  0.00  0.00    +0.000 C 
ATOM      7  N   UNL     1       0.965   2.937  21.280  0.00  0.00    +0.000 NA
ATOM      8  H   UNL     1       0.400   2.107  21.097  0.00  0.00    +0.000 HD
ENDBRANCH   5   7
ENDBRANCH   4   5
ENDBRANCH   3   4
ENDBRANCH   1   3
BRANCH   1   9
ATOM      9  C   UNL     1       5.017   4.546  19.171  0.00  0.00    +0.000 C 
BRANCH   9  10
ATOM     10  C   UNL     1       5.154   5.130  17.768  0.00  0.00    +0.000 C 
BRANCH  10  11
ATOM     11  C   UNL     1       4.737   4.086  16.735  0.00  0.00    +0.000 C 
BRANCH  11  12
ATOM     12  N   UNL     1       5.919   3.530  16.073  0.00  0.00    +0.000 NA
ATOM     13  C   UNL     1       6.997   4.505  16.063  0.00  0.00    +0.000 C 
ATOM     14  H   UNL     1       5.683   3.266  15.117  0.00  0.00    +0.000 HD
ENDBRANCH  11  12
ENDBRANCH  10  11
ENDBRANCH   9  10
ENDBRANCH   1   9
TORSDOF 8
ENDMDL
MODEL 7
REMARK VINA RESULT:      -4.1      1.832      2.372
REMARK  Name = 
REMARK  10 active torsions:
REMARK  status: ('A' for Active; 'I' for Inactive)
REMARK    1  A    between atoms: C_1  and  N_2
REMARK    2  A    between atoms: N_2  and  C_3
REMARK    3  A    between atoms: C_3  and  C_4
REMARK    4  A    between atoms: C_4  and  C_5
REMARK    5  A    between atoms: C_5  and  N_6
REMARK    6  A    between atoms: N_6  and  C_7
REMARK    7  A    between atoms: C_7  and  C_8
REMARK    8  A    between atoms: C_8  and  C_9
REMARK    9  A    between atoms: C_9  and  N_10
REMARK   10  A    between atoms: N_10  and  C_11
REMARK                            x       y       z     vdW  Elec       q    Type
REMARK                         _______ _______ _______ _____ _____    ______ ____
ROOT
ATOM      1  N   UNL     1       4.464   2.772  18.651  0.00  0.00    +0.000 NA
ATOM      2  H   UNL     1       4.533   2.347  19.573  0.00  0.00    +0.000 HD
ENDROOT
BRANCH   1   3
ATOM      3  C   UNL     1       4.518   4.228  18.761  0.00  0.00    +0.000 C 
BRANCH   3   4
ATOM      4  C   UNL     1       4.680   4.850  17.378  0.00  0.00    +0.000 C 
BRANCH   4   5
ATOM      5  C   UNL     1       6.085   4.570  16.850  0.00  0.00    +0.000 C 
BRANCH   5   7
ATOM      6  C   UNL     1       6.181   4.006  14.526  0.00  0.00    +0.000 C 
ATOM      7  N   UNL     1       6.050   3.481  15.876  0.00  0.00    +0.000 NA
ATOM      8  H   UNL     1       6.808   2.826  16.065  0.00  0.00    +0.000 HD
ENDBRANCH   5   7
ENDBRANCH   4   5
ENDBRANCH   3   4
ENDBRANCH   1   3
BRANCH   1   9
ATOM      9  C   UNL     1       3.225   2.359  17.996  0.00  0.00    +0.000 C 
BRANCH   9  10
ATOM     10  C   UNL     1       2.200   1.934  19.044  0.00  0.00    +0.000 C 
BRANCH  10  11
ATOM     11  C   UNL     1       1.043   2.929  19.063  0.00  0.00    +0.000 C 
BRANCH  11  12
ATOM     12  N   UNL     1       0.612   3.177  20.440  0.00  0.00    +0.000 NA
ATOM     13  C   UNL     1       1.766   3.335  21.309  0.00  0.00    +0.000 C 
ATOM     14  H   UNL     1       0.039   2.398  20.764  0.00  0.00    +0.000 HD
ENDBRANCH  11  12
ENDBRANCH  10  11
ENDBRANCH   9  10
ENDBRANCH   1   9
TORSDOF 8
ENDMDL
MODEL 8
REMARK VINA RESULT:      -4.1      1.916      2.666
REMARK  Name = 
REMARK  10 active torsions:
REMARK  status: ('A' for Active; 'I' for Inactive)
REMARK    1  A    between atoms: C_1  and  N_2
REMARK    2  A    between atoms: N_2  and  C_3
REMARK    3  A    between atoms: C_3  and  C_4
REMARK    4  A    between atoms: C_4  and  C_5
REMARK    5  A    between atoms: C_5  and  N_6
REMARK    6  A    between atoms: N_6  and  C_7
REMARK    7  A    between atoms: C_7  and  C_8
REMARK    8  A    between atoms: C_8  and  C_9
REMARK    9  A    between atoms: C_9  and  N_10
REMARK   10  A    between atoms: N_10  and  C_11
REMARK                            x       y       z     vdW  Elec       q    Type
REMARK                         _______ _______ _______ _____ _____    ______ ____
ROOT
ATOM      1  N   UNL     1       3.823   3.653  18.489  0.00  0.00    +0.000 NA
ATOM      2  H   UNL     1       3.827   3.665  19.506  0.00  0.00    +0.000 HD
ENDROOT
BRANCH   1   3
ATOM      3  C   UNL     1       3.682   5.012  17.969  0.00  0.00    +0.000 C 
BRANCH   3   4
ATOM      4  C   UNL     1       5.057   5.653  17.808  0.00  0.00    +0.000 C 
BRANCH   4   5
ATOM      5  C   UNL     1       5.964   5.221  18.958  0.00  0.00    +0.000 C 
BRANCH   5   7
ATOM      6  C   UNL     1       7.277   4.585  17.061  0.00  0.00    +0.000 C 
ATOM      7  N   UNL     1       7.010   4.326  18.466  0.00  0.00    +0.000 NA
ATOM      8  H   UNL     1       7.863   4.463  19.010  0.00  0.00    +0.000 HD
ENDBRANCH   5   7
ENDBRANCH   4   5
ENDBRANCH   3   4
ENDBRANCH   1   3
BRANCH   1   9
ATOM      9  C   UNL     1       2.736   2.809  17.999  0.00  0.00    +0.000 C 
BRANCH   9  10
ATOM     10  C   UNL     1       1.396   3.506  18.221  0.00  0.00    +0.000 C 
BRANCH  10  11
ATOM     11  C   UNL     1       0.763   2.999  19.513  0.00  0.00    +0.000 C 
BRANCH  11  12
ATOM     12  N   UNL     1       1.264   3.765  20.656  0.00  0.00    +0.000 NA
ATOM     13  C   UNL     1       1.893   2.879  21.621  0.00  0.00    +0.000 C 
ATOM     14  H   UNL     1       0.492   4.265  21.097  0.00  0.00    +0.000 HD
ENDBRANCH  11  12
ENDBRANCH  10  11
ENDBRANCH   9  10
ENDBRANCH   1   9
TORSDOF 8
ENDMDL
MODEL 9
REMARK VINA RESULT:      -4.1      1.449      2.288
REMARK  Name = 
REMARK  10 active torsions:
REMARK  status: ('A' for Active; 'I' for Inactive)
REMARK    1  A    between atoms: C_1  and  N_2
REMARK    2  A    between atoms: N_2  and  C_3
REMARK    3  A    between atoms: C_3  and  C_4
REMARK    4  A    between atoms: C_4  and  C_5
REMARK    5  A    between atoms: C_5  and  N_6
REMARK    6  A    between atoms: N_6  and  C_7
REMARK    7  A    between atoms: C_7  and  C_8
REMARK    8  A    between atoms: C_8  and  C_9
REMARK    9  A    between atoms: C_9  and  N_10
REMARK   10  A    between atoms: N_10  and  C_11
REMARK                            x       y       z     vdW  Elec       q    Type
REMARK                         _______ _______ _______ _____ _____    ______ ____
ROOT
ATOM      1  N   UNL     1       4.481   3.106  17.689  0.00  0.00    +0.000 NA
ATOM      2  H   UNL     1       5.205   2.395  17.621  0.00  0.00    +0.000 HD
ENDROOT
BRANCH   1   3
ATOM      3  C   UNL     1       4.737   4.181  16.734  0.00  0.00    +0.000 C 
BRANCH   3   4
ATOM      4  C   UNL     1       5.993   3.871  15.925  0.00  0.00    +0.000 C 
BRANCH   4   5
ATOM      5  C   UNL     1       7.150   4.735  16.420  0.00  0.00    +0.000 C 
BRANCH   5   7
ATOM      6  C   UNL     1       7.663   5.471  18.639  0.00  0.00    +0.000 C 
ATOM      7  N   UNL     1       7.554   4.317  17.760  0.00  0.00    +0.000 NA
ATOM      8  H   UNL     1       6.870   3.661  18.137  0.00  0.00    +0.000 HD
ENDBRANCH   5   7
ENDBRANCH   4   5
ENDBRANCH   3   4
ENDBRANCH   1   3
BRANCH   1   9
ATOM      9  C   UNL     1       4.423   3.640  19.048  0.00  0.00    +0.000 C 
BRANCH   9  10
ATOM     10  C   UNL     1       4.029   2.534  20.024  0.00  0.00    +0.000 C 
BRANCH  10  11
ATOM     11  C   UNL     1       2.579   2.730  20.461  0.00  0.00    +0.000 C 
BRANCH  11  12
ATOM     12  N   UNL     1       1.819   3.396  19.403  0.00  0.00    +0.000 NA
ATOM     13  C   UNL     1       0.900   2.460  18.775  0.00  0.00    +0.000 C 
ATOM     14  H   UNL     1       2.460   3.771  18.704  0.00  0.00    +0.000 HD
ENDBRANCH  11  12
ENDBRANCH  10  11
ENDBRANCH   9  10
ENDBRANCH   1   9
TORSDOF 8
ENDMDL
