MODEL 1
REMARK VINA RESULT:      -8.3      0.000      0.000
REMARK  Name = 
REMARK  5 active torsions:
REMARK  status: ('A' for Active; 'I' for Inactive)
REMARK    1  A    between atoms: C_1  and  C_2
REMARK    2  A    between atoms: C_5  and  O_6
REMARK    3  A    between atoms: C_7  and  C_8
REMARK    4  A    between atoms: N_10  and  C_11
REMARK    5  A    between atoms: C_15  and  C_16
REMARK                            x       y       z     vdW  Elec       q    Type
REMARK                         _______ _______ _______ _____ _____    ______ ____
ROOT
ATOM      1  C   UNL     1       6.800   4.435  15.606  0.00  0.00    +0.000 C 
ATOM      2  O   UNL     1       7.867   4.595  16.195  0.00  0.00    +0.000 OA
ATOM      3  N   UNL     1       5.621   4.250  16.272  0.00  0.00    +0.000 N 
ATOM      4  H   UNL     1       4.801   4.107  15.695  0.00  0.00    +0.000 HD
ENDROOT
BRANCH   3   5
ATOM      5  C   UNL     1       5.466   4.215  17.727  0.00  0.00    +0.000 C 
ATOM      6  C   UNL     1       5.300   5.591  18.364  0.00  0.00    +0.000 C 
ATOM      7  C   UNL     1       3.895   5.952  18.844  0.00  0.00    +0.000 C 
ATOM      8  N   UNL     1       3.136   4.873  19.498  0.00  0.00    +0.000 NA
ATOM      9  C   UNL     1       1.744   5.325  19.805  0.00  0.00    +0.000 C 
ATOM     10  C   UNL     1       1.684   6.614  20.639  0.00  0.00    +0.000 C 
ATOM     11  C   UNL     1       0.973   4.229  20.563  0.00  0.00    +0.000 C 
ATOM     12  C   UNL     1       0.952   2.918  19.795  0.00  0.00    +0.000 C 
ATOM     13  C   UNL     1       2.358   2.530  19.365  0.00  0.00    +0.000 C 
ATOM     14  C   UNL     1       3.083   3.676  18.625  0.00  0.00    +0.000 C 
ATOM     15  C   UNL     1       4.478   3.163  18.231  0.00  0.00    +0.000 C 
ENDBRANCH   3   5
BRANCH   1  21
ATOM     16  C   UNL     1       4.539   2.734  11.533  0.00  0.00    +0.000 C 
ATOM     17  C   UNL     1       5.654   3.547  12.120  0.00  0.00    +0.000 A 
ATOM     18  C   UNL     1       6.565   4.232  11.316  0.00  0.00    +0.000 A 
ATOM     19  C   UNL     1       7.574   5.010  11.892  0.00  0.00    +0.000 A 
ATOM     20  C   UNL     1       7.681   5.110  13.285  0.00  0.00    +0.000 A 
ATOM     21  C   UNL     1       6.782   4.423  14.112  0.00  0.00    +0.000 A 
ATOM     22  C   UNL     1       5.772   3.651  13.511  0.00  0.00    +0.000 A 
BRANCH  20  23
ATOM     23  O   UNL     1       8.677   5.892  13.811  0.00  0.00    +0.000 OA
ATOM     24  H   UNL     1       9.537   5.529  13.532  0.00  0.00    +0.000 HD
ENDBRANCH  20  23
ENDBRANCH   1  21
TORSDOF 3
ENDMDL
MODEL 2
REMARK VINA RESULT:      -8.3      1.077      1.128
REMARK  Name = 
REMARK  5 active torsions:
REMARK  status: ('A' for Active; 'I' for Inactive)
REMARK    1  A    between atoms: C_1  and  C_2
REMARK    2  A    between atoms: C_5  and  O_6
REMARK    3  A    between atoms: C_7  and  C_8
REMARK    4  A    between atoms: N_10  and  C_11
REMARK    5  A    between atoms: C_15  and  C_16
REMARK                            x       y       z     vdW  Elec       q    Type
REMARK                         _______ _______ _______ _____ _____    ______ ____
ROOT
ATOM      1  C   UNL     1       5.387   4.284  16.088  0.00  0.00    +0.000 C 
ATOM      2  O   UNL     1       4.184   4.506  16.218  0.00  0.00    +0.000 OA
ATOM      3  N   UNL     1       6.202   4.038  17.157  0.00  0.00    +0.000 N 
ATOM      4  H   UNL     1       7.181   3.887  16.945  0.00  0.00    +0.000 HD
ENDROOT
BRANCH   3   5
ATOM      5  C   UNL     1       5.778   4.008  18.557  0.00  0.00    +0.000 C 
ATOM      6  C   UNL     1       5.518   5.388  19.154  0.00  0.00    +0.000 C 
ATOM      7  C   UNL     1       4.054   5.774  19.363  0.00  0.00    +0.000 C 
ATOM      8  N   UNL     1       3.169   4.709  19.862  0.00  0.00    +0.000 NA
ATOM      9  C   UNL     1       1.752   5.184  19.904  0.00  0.00    +0.000 C 
ATOM     10  C   UNL     1       1.558   6.475  20.713  0.00  0.00    +0.000 C 
ATOM     11  C   UNL     1       0.834   4.102  20.503  0.00  0.00    +0.000 C 
ATOM     12  C   UNL     1       0.935   2.790  19.742  0.00  0.00    +0.000 C 
ATOM     13  C   UNL     1       2.391   2.378  19.583  0.00  0.00    +0.000 C 
ATOM     14  C   UNL     1       3.260   3.511  18.993  0.00  0.00    +0.000 C 
ATOM     15  C   UNL     1       4.695   2.974  18.866  0.00  0.00    +0.000 C 
ENDBRANCH   3   5
BRANCH   1  21
ATOM     16  C   UNL     1       5.090   2.574  11.442  0.00  0.00    +0.000 C 
ATOM     17  C   UNL     1       5.827   3.417  12.440  0.00  0.00    +0.000 A 
ATOM     18  C   UNL     1       6.962   4.148  12.087  0.00  0.00    +0.000 A 
ATOM     19  C   UNL     1       7.608   4.951  13.031  0.00  0.00    +0.000 A 
ATOM     20  C   UNL     1       7.124   5.030  14.343  0.00  0.00    +0.000 A 
ATOM     21  C   UNL     1       5.991   4.297  14.721  0.00  0.00    +0.000 A 
ATOM     22  C   UNL     1       5.353   3.500  13.754  0.00  0.00    +0.000 A 
BRANCH  20  23
ATOM     23  O   UNL     1       7.780   5.838  15.235  0.00  0.00    +0.000 OA
ATOM     24  H   UNL     1       8.312   5.279  15.829  0.00  0.00    +0.000 HD
ENDBRANCH  20  23
ENDBRANCH   1  21
TORSDOF 3
ENDMDL
MODEL 3
REMARK VINA RESULT:      -7.5      3.292      7.970
REMARK  Name = 
REMARK  5 active torsions:
REMARK  status: ('A' for Active; 'I' for Inactive)
REMARK    1  A    between atoms: C_1  and  C_2
REMARK    2  A    between atoms: C_5  and  O_6
REMARK    3  A    between atoms: C_7  and  C_8
REMARK    4  A    between atoms: N_10  and  C_11
REMARK    5  A    between atoms: C_15  and  C_16
REMARK                            x       y       z     vdW  Elec       q    Type
REMARK                         _______ _______ _______ _____ _____    ______ ____
ROOT
ATOM      1  C   UNL     1       2.249   7.587  19.115  0.00  0.00    +0.000 C 
ATOM      2  O   UNL     1       3.058   7.724  18.199  0.00  0.00    +0.000 OA
ATOM      3  N   UNL     1       2.075   6.396  19.762  0.00  0.00    +0.000 N 
ATOM      4  H   UNL     1       1.370   6.383  20.489  0.00  0.00    +0.000 HD
ENDROOT
BRANCH   3   5
ATOM      5  C   UNL     1       2.797   5.158  19.467  0.00  0.00    +0.000 C 
ATOM      6  C   UNL     1       2.514   4.594  18.078  0.00  0.00    +0.000 C 
ATOM      7  C   UNL     1       3.622   4.759  17.039  0.00  0.00    +0.000 C 
ATOM      8  N   UNL     1       4.998   4.553  17.520  0.00  0.00    +0.000 NA
ATOM      9  C   UNL     1       5.982   4.863  16.439  0.00  0.00    +0.000 C 
ATOM     10  C   UNL     1       5.739   4.080  15.139  0.00  0.00    +0.000 C 
ATOM     11  C   UNL     1       7.418   4.569  16.911  0.00  0.00    +0.000 C 
ATOM     12  C   UNL     1       7.762   5.329  18.181  0.00  0.00    +0.000 C 
ATOM     13  C   UNL     1       6.686   5.120  19.236  0.00  0.00    +0.000 C 
ATOM     14  C   UNL     1       5.270   5.416  18.695  0.00  0.00    +0.000 C 
ATOM     15  C   UNL     1       4.277   5.185  19.846  0.00  0.00    +0.000 C 
ENDBRANCH   3   5
BRANCH   1  21
ATOM     16  C   UNL     1      -0.419   9.641  22.755  0.00  0.00    +0.000 C 
ATOM     17  C   UNL     1       0.083   9.729  21.345  0.00  0.00    +0.000 A 
ATOM     18  C   UNL     1      -0.212  10.821  20.528  0.00  0.00    +0.000 A 
ATOM     19  C   UNL     1       0.298  10.890  19.228  0.00  0.00    +0.000 A 
ATOM     20  C   UNL     1       1.111   9.862  18.731  0.00  0.00    +0.000 A 
ATOM     21  C   UNL     1       1.411   8.752  19.532  0.00  0.00    +0.000 A 
ATOM     22  C   UNL     1       0.892   8.706  20.838  0.00  0.00    +0.000 A 
BRANCH  20  23
ATOM     23  O   UNL     1       1.600   9.974  17.455  0.00  0.00    +0.000 OA
ATOM     24  H   UNL     1       1.914   9.099  17.165  0.00  0.00    +0.000 HD
ENDBRANCH  20  23
ENDBRANCH   1  21
TORSDOF 3
ENDMDL
MODEL 4
REMARK VINA RESULT:      -7.2      5.350      8.544
REMARK  Name = 
REMARK  5 active torsions:
REMARK  status: ('A' for Active; 'I' for Inactive)
REMARK    1  A    between atoms: C_1  and  C_2
REMARK    2  A    between atoms: C_5  and  O_6
REMARK    3  A    between atoms: C_7  and  C_8
REMARK    4  A    between atoms: N_10  and  C_11
REMARK    5  A    between atoms: C_15  and  C_16
REMARK                            x       y       z     vdW  Elec       q    Type
REMARK                         _______ _______ _______ _____ _____    ______ ____
ROOT
ATOM      1  C   UNL     1       0.295  10.012  19.349  0.00  0.00    +0.000 C 
ATOM      2  O   UNL     1       0.885  10.697  20.182  0.00  0.00    +0.000 OA
ATOM      3  N   UNL     1       0.761   8.792  18.945  0.00  0.00    +0.000 N 
ATOM      4  H   UNL     1       0.212   8.316  18.240  0.00  0.00    +0.000 HD
ENDROOT
BRANCH   3   5
ATOM      5  C   UNL     1       1.986   8.152  19.426  0.00  0.00    +0.000 C 
ATOM      6  C   UNL     1       1.803   7.359  20.717  0.00  0.00    +0.000 C 
ATOM      7  C   UNL     1       1.797   5.837  20.583  0.00  0.00    +0.000 C 
ATOM      8  N   UNL     1       2.772   5.265  19.640  0.00  0.00    +0.000 NA
ATOM      9  C   UNL     1       2.576   3.788  19.517  0.00  0.00    +0.000 C 
ATOM     10  C   UNL     1       2.621   3.045  20.861  0.00  0.00    +0.000 C 
ATOM     11  C   UNL     1       3.646   3.173  18.596  0.00  0.00    +0.000 C 
ATOM     12  C   UNL     1       3.654   3.827  17.224  0.00  0.00    +0.000 C 
ATOM     13  C   UNL     1       3.717   5.341  17.356  0.00  0.00    +0.000 C 
ATOM     14  C   UNL     1       2.629   5.893  18.304  0.00  0.00    +0.000 C 
ATOM     15  C   UNL     1       2.782   7.422  18.345  0.00  0.00    +0.000 C 
ENDBRANCH   3   5
BRANCH   1  21
ATOM     16  C   UNL     1      -2.786   9.795  15.469  0.00  0.00    +0.000 C 
ATOM     17  C   UNL     1      -2.457  10.411  16.796  0.00  0.00    +0.000 A 
ATOM     18  C   UNL     1      -3.286  11.366  17.387  0.00  0.00    +0.000 A 
ATOM     19  C   UNL     1      -2.971  11.899  18.641  0.00  0.00    +0.000 A 
ATOM     20  C   UNL     1      -1.819  11.479  19.318  0.00  0.00    +0.000 A 
ATOM     21  C   UNL     1      -0.968  10.528  18.739  0.00  0.00    +0.000 A 
ATOM     22  C   UNL     1      -1.307  10.002  17.479  0.00  0.00    +0.000 A 
BRANCH  20  23
ATOM     23  O   UNL     1      -1.551  12.017  20.551  0.00  0.00    +0.000 OA
ATOM     24  H   UNL     1      -0.637  12.353  20.552  0.00  0.00    +0.000 HD
ENDBRANCH  20  23
ENDBRANCH   1  21
TORSDOF 3
ENDMDL
MODEL 5
REMARK VINA RESULT:      -7.1      1.356      1.737
REMARK  Name = 
REMARK  5 active torsions:
REMARK  status: ('A' for Active; 'I' for Inactive)
REMARK    1  A    between atoms: C_1  and  C_2
REMARK    2  A    between atoms: C_5  and  O_6
REMARK    3  A    between atoms: C_7  and  C_8
REMARK    4  A    between atoms: N_10  and  C_11
REMARK    5  A    between atoms: C_15  and  C_16
REMARK                            x       y       z     vdW  Elec       q    Type
REMARK                         _______ _______ _______ _____ _____    ______ ____
ROOT
ATOM      1  C   UNL     1       5.363   4.519  15.804  0.00  0.00    +0.000 C 
ATOM      2  O   UNL     1       4.580   3.662  16.211  0.00  0.00    +0.000 OA
ATOM      3  N   UNL     1       5.726   5.594  16.566  0.00  0.00    +0.000 N 
ATOM      4  H   UNL     1       6.360   6.254  16.132  0.00  0.00    +0.000 HD
ENDROOT
BRANCH   3   5
ATOM      5  C   UNL     1       5.250   5.871  17.922  0.00  0.00    +0.000 C 
ATOM      6  C   UNL     1       3.823   6.408  17.979  0.00  0.00    +0.000 C 
ATOM      7  C   UNL     1       2.751   5.436  18.467  0.00  0.00    +0.000 C 
ATOM      8  N   UNL     1       3.129   4.566  19.593  0.00  0.00    +0.000 NA
ATOM      9  C   UNL     1       2.037   3.587  19.887  0.00  0.00    +0.000 C 
ATOM     10  C   UNL     1       0.672   4.243  20.142  0.00  0.00    +0.000 C 
ATOM     11  C   UNL     1       2.392   2.731  21.116  0.00  0.00    +0.000 C 
ATOM     12  C   UNL     1       3.721   2.013  20.940  0.00  0.00    +0.000 C 
ATOM     13  C   UNL     1       4.802   2.992  20.509  0.00  0.00    +0.000 C 
ATOM     14  C   UNL     1       4.378   3.830  19.282  0.00  0.00    +0.000 C 
ATOM     15  C   UNL     1       5.548   4.764  18.933  0.00  0.00    +0.000 C 
ENDBRANCH   3   5
BRANCH   1  21
ATOM     16  C   UNL     1       4.726   2.689  11.239  0.00  0.00    +0.000 C 
ATOM     17  C   UNL     1       5.593   3.463  12.187  0.00  0.00    +0.000 A 
ATOM     18  C   UNL     1       6.806   4.022  11.782  0.00  0.00    +0.000 A 
ATOM     19  C   UNL     1       7.577   4.766  12.680  0.00  0.00    +0.000 A 
ATOM     20  C   UNL     1       7.139   4.960  13.997  0.00  0.00    +0.000 A 
ATOM     21  C   UNL     1       5.929   4.400  14.426  0.00  0.00    +0.000 A 
ATOM     22  C   UNL     1       5.167   3.659  13.505  0.00  0.00    +0.000 A 
BRANCH  20  23
ATOM     23  O   UNL     1       7.919   5.706  14.842  0.00  0.00    +0.000 OA
ATOM     24  H   UNL     1       8.848   5.625  14.562  0.00  0.00    +0.000 HD
ENDBRANCH  20  23
ENDBRANCH   1  21
TORSDOF 3
ENDMDL
MODEL 6
REMARK VINA RESULT:      -7.1      4.957      7.984
REMARK  Name = 
REMARK  5 active torsions:
REMARK  status: ('A' for Active; 'I' for Inactive)
REMARK    1  A    between atoms: C_1  and  C_2
REMARK    2  A    between atoms: C_5  and  O_6
REMARK    3  A    between atoms: C_7  and  C_8
REMARK    4  A    between atoms: N_10  and  C_11
REMARK    5  A    between atoms: C_15  and  C_16
REMARK                            x       y       z     vdW  Elec       q    Type
REMARK                         _______ _______ _______ _____ _____    ______ ____
ROOT
ATOM      1  C   UNL     1       0.842   9.465  19.414  0.00  0.00    +0.000 C 
ATOM      2  O   UNL     1       1.135   9.686  20.587  0.00  0.00    +0.000 OA
ATOM      3  N   UNL     1       1.401   8.441  18.702  0.00  0.00    +0.000 N 
ATOM      4  H   UNL     1       1.108   8.356  17.737  0.00  0.00    +0.000 HD
ENDROOT
BRANCH   3   5
ATOM      5  C   UNL     1       2.396   7.498  19.215  0.00  0.00    +0.000 C 
ATOM      6  C   UNL     1       2.067   6.945  20.599  0.00  0.00    +0.000 C 
ATOM      7  C   UNL     1       1.575   5.500  20.654  0.00  0.00    +0.000 C 
ATOM      8  N   UNL     1       2.251   4.551  19.754  0.00  0.00    +0.000 NA
ATOM      9  C   UNL     1       1.595   3.209  19.820  0.00  0.00    +0.000 C 
ATOM     10  C   UNL     1       1.502   2.637  21.243  0.00  0.00    +0.000 C 
ATOM     11  C   UNL     1       2.349   2.192  18.945  0.00  0.00    +0.000 C 
ATOM     12  C   UNL     1       2.463   2.660  17.504  0.00  0.00    +0.000 C 
ATOM     13  C   UNL     1       3.006   4.080  17.447  0.00  0.00    +0.000 C 
ATOM     14  C   UNL     1       2.216   5.046  18.357  0.00  0.00    +0.000 C 
ATOM     15  C   UNL     1       2.844   6.442  18.205  0.00  0.00    +0.000 C 
ENDBRANCH   3   5
BRANCH   1  21
ATOM     16  C   UNL     1      -2.877   9.718  16.143  0.00  0.00    +0.000 C 
ATOM     17  C   UNL     1      -1.968  10.443  17.089  0.00  0.00    +0.000 A 
ATOM     18  C   UNL     1      -2.073  11.818  17.299  0.00  0.00    +0.000 A 
ATOM     19  C   UNL     1      -1.233  12.462  18.213  0.00  0.00    +0.000 A 
ATOM     20  C   UNL     1      -0.276  11.731  18.929  0.00  0.00    +0.000 A 
ATOM     21  C   UNL     1      -0.147  10.351  18.727  0.00  0.00    +0.000 A 
ATOM     22  C   UNL     1      -1.006   9.723  17.807  0.00  0.00    +0.000 A 
BRANCH  20  23
ATOM     23  O   UNL     1       0.521  12.398  19.824  0.00  0.00    +0.000 OA
ATOM     24  H   UNL     1       1.356  12.633  19.383  0.00  0.00    +0.000 HD
ENDBRANCH  20  23
ENDBRANCH   1  21
TORSDOF 3
ENDMDL
MODEL 7
REMARK VINA RESULT:      -7.1      6.160      9.082
REMARK  Name = 
REMARK  5 active torsions:
REMARK  status: ('A' for Active; 'I' for Inactive)
REMARK    1  A    between atoms: C_1  and  C_2
REMARK    2  A    between atoms: C_5  and  O_6
REMARK    3  A    between atoms: C_7  and  C_8
REMARK    4  A    between atoms: N_10  and  C_11
REMARK    5  A    between atoms: C_15  and  C_16
REMARK                            x       y       z     vdW  Elec       q    Type
REMARK                         _______ _______ _______ _____ _____    ______ ____
ROOT
ATOM      1  C   UNL     1      -0.912  10.433  18.919  0.00  0.00    +0.000 C 
ATOM      2  O   UNL     1      -0.904  10.810  20.089  0.00  0.00    +0.000 OA
ATOM      3  N   UNL     1       0.130   9.741  18.369  0.00  0.00    +0.000 N 
ATOM      4  H   UNL     1       0.034   9.493  17.392  0.00  0.00    +0.000 HD
ENDROOT
BRANCH   3   5
ATOM      5  C   UNL     1       1.361   9.367  19.066  0.00  0.00    +0.000 C 
ATOM      6  C   UNL     1       1.126   8.628  20.381  0.00  0.00    +0.000 C 
ATOM      7  C   UNL     1       1.406   7.126  20.375  0.00  0.00    +0.000 C 
ATOM      8  N   UNL     1       2.597   6.692  19.627  0.00  0.00    +0.000 NA
ATOM      9  C   UNL     1       2.683   5.200  19.601  0.00  0.00    +0.000 C 
ATOM     10  C   UNL     1       2.653   4.556  20.996  0.00  0.00    +0.000 C 
ATOM     11  C   UNL     1       3.971   4.742  18.892  0.00  0.00    +0.000 C 
ATOM     12  C   UNL     1       4.072   5.307  17.485  0.00  0.00    +0.000 C 
ATOM     13  C   UNL     1       3.849   6.811  17.498  0.00  0.00    +0.000 C 
ATOM     14  C   UNL     1       2.551   7.205  18.237  0.00  0.00    +0.000 C 
ATOM     15  C   UNL     1       2.427   8.737  18.171  0.00  0.00    +0.000 C 
ENDBRANCH   3   5
BRANCH   1  21
ATOM     16  C   UNL     1      -3.021   9.863  14.467  0.00  0.00    +0.000 C 
ATOM     17  C   UNL     1      -3.093  10.466  15.838  0.00  0.00    +0.000 A 
ATOM     18  C   UNL     1      -4.183  11.236  16.243  0.00  0.00    +0.000 A 
ATOM     19  C   UNL     1      -4.239  11.758  17.539  0.00  0.00    +0.000 A 
ATOM     20  C   UNL     1      -3.199  11.513  18.445  0.00  0.00    +0.000 A 
ATOM     21  C   UNL     1      -2.090  10.750  18.055  0.00  0.00    +0.000 A 
ATOM     22  C   UNL     1      -2.058  10.230  16.749  0.00  0.00    +0.000 A 
BRANCH  20  23
ATOM     23  O   UNL     1      -3.296  12.034  19.710  0.00  0.00    +0.000 OA
ATOM     24  H   UNL     1      -2.499  11.785  20.211  0.00  0.00    +0.000 HD
ENDBRANCH  20  23
ENDBRANCH   1  21
TORSDOF 3
ENDMDL
MODEL 8
REMARK VINA RESULT:      -7.1      5.040      8.100
REMARK  Name = 
REMARK  5 active torsions:
REMARK  status: ('A' for Active; 'I' for Inactive)
REMARK    1  A    between atoms: C_1  and  C_2
REMARK    2  A    between atoms: C_5  and  O_6
REMARK    3  A    between atoms: C_7  and  C_8
REMARK    4  A    between atoms: N_10  and  C_11
REMARK    5  A    between atoms: C_15  and  C_16
REMARK                            x       y       z     vdW  Elec       q    Type
REMARK                         _______ _______ _______ _____ _____    ______ ____
ROOT
ATOM      1  C   UNL     1       1.700   9.091  18.637  0.00  0.00    +0.000 C 
ATOM      2  O   UNL     1       1.730   9.346  17.435  0.00  0.00    +0.000 OA
ATOM      3  N   UNL     1       2.205   7.928  19.147  0.00  0.00    +0.000 N 
ATOM      4  H   UNL     1       2.114   7.804  20.148  0.00  0.00    +0.000 HD
ENDROOT
BRANCH   3   5
ATOM      5  C   UNL     1       2.826   6.859  18.365  0.00  0.00    +0.000 C 
ATOM      6  C   UNL     1       4.149   6.362  18.939  0.00  0.00    +0.000 C 
ATOM      7  C   UNL     1       4.121   4.997  19.627  0.00  0.00    +0.000 C 
ATOM      8  N   UNL     1       3.302   3.961  18.978  0.00  0.00    +0.000 NA
ATOM      9  C   UNL     1       3.266   2.723  19.814  0.00  0.00    +0.000 C 
ATOM     10  C   UNL     1       4.657   2.174  20.165  0.00  0.00    +0.000 C 
ATOM     11  C   UNL     1       2.479   1.608  19.101  0.00  0.00    +0.000 C 
ATOM     12  C   UNL     1       1.071   2.051  18.741  0.00  0.00    +0.000 C 
ATOM     13  C   UNL     1       1.103   3.383  18.006  0.00  0.00    +0.000 C 
ATOM     14  C   UNL     1       1.919   4.452  18.766  0.00  0.00    +0.000 C 
ATOM     15  C   UNL     1       1.867   5.748  17.940  0.00  0.00    +0.000 C 
ENDBRANCH   3   5
BRANCH   1  21
ATOM     16  C   UNL     1      -0.348   9.771  23.102  0.00  0.00    +0.000 C 
ATOM     17  C   UNL     1       0.052  10.366  21.785  0.00  0.00    +0.000 A 
ATOM     18  C   UNL     1      -0.138  11.720  21.503  0.00  0.00    +0.000 A 
ATOM     19  C   UNL     1       0.276  12.253  20.279  0.00  0.00    +0.000 A 
ATOM     20  C   UNL     1       0.887  11.433  19.321  0.00  0.00    +0.000 A 
ATOM     21  C   UNL     1       1.079  10.070  19.579  0.00  0.00    +0.000 A 
ATOM     22  C   UNL     1       0.659   9.555  20.820  0.00  0.00    +0.000 A 
BRANCH  20  23
ATOM     23  O   UNL     1       1.289  11.998  18.137  0.00  0.00    +0.000 OA
ATOM     24  H   UNL     1       0.601  12.620  17.840  0.00  0.00    +0.000 HD
ENDBRANCH  20  23
ENDBRANCH   1  21
TORSDOF 3
ENDMDL
MODEL 9
REMARK VINA RESULT:      -6.9      4.765      8.403
REMARK  Name = 
REMARK  5 active torsions:
REMARK  status: ('A' for Active; 'I' for Inactive)
REMARK    1  A    between atoms: C_1  and  C_2
REMARK    2  A    between atoms: C_5  and  O_6
REMARK    3  A    between atoms: C_7  and  C_8
REMARK    4  A    between atoms: N_10  and  C_11
REMARK    5  A    between atoms: C_15  and  C_16
REMARK                            x       y       z     vdW  Elec       q    Type
REMARK                         _______ _______ _______ _____ _____    ______ ____
ROOT
ATOM      1  C   UNL     1       0.963   9.267  20.491  0.00  0.00    +0.000 C 
ATOM      2  O   UNL     1       1.266   9.351  21.680  0.00  0.00    +0.000 OA
ATOM      3  N   UNL     1       1.410   8.249  19.696  0.00  0.00    +0.000 N 
ATOM      4  H   UNL     1       1.120   8.281  18.726  0.00  0.00    +0.000 HD
ENDROOT
BRANCH   3   5
ATOM      5  C   UNL     1       2.281   7.155  20.129  0.00  0.00    +0.000 C 
ATOM      6  C   UNL     1       1.541   6.008  20.809  0.00  0.00    +0.000 C 
ATOM      7  C   UNL     1       1.376   4.727  19.992  0.00  0.00    +0.000 C 
ATOM      8  N   UNL     1       2.537   4.320  19.183  0.00  0.00    +0.000 NA
ATOM      9  C   UNL     1       2.199   3.128  18.346  0.00  0.00    +0.000 C 
ATOM     10  C   UNL     1       1.657   1.939  19.155  0.00  0.00    +0.000 C 
ATOM     11  C   UNL     1       3.434   2.648  17.562  0.00  0.00    +0.000 C 
ATOM     12  C   UNL     1       4.023   3.755  16.703  0.00  0.00    +0.000 C 
ATOM     13  C   UNL     1       4.240   5.013  17.530  0.00  0.00    +0.000 C 
ATOM     14  C   UNL     1       2.970   5.432  18.303  0.00  0.00    +0.000 C 
ATOM     15  C   UNL     1       3.305   6.714  19.084  0.00  0.00    +0.000 C 
ENDBRANCH   3   5
BRANCH   1  21
ATOM     16  C   UNL     1      -2.230  10.360  16.858  0.00  0.00    +0.000 C 
ATOM     17  C   UNL     1      -1.466  10.829  18.060  0.00  0.00    +0.000 A 
ATOM     18  C   UNL     1      -1.591  12.130  18.547  0.00  0.00    +0.000 A 
ATOM     19  C   UNL     1      -0.891  12.529  19.689  0.00  0.00    +0.000 A 
ATOM     20  C   UNL     1      -0.055  11.625  20.358  0.00  0.00    +0.000 A 
ATOM     21  C   UNL     1       0.093  10.317  19.880  0.00  0.00    +0.000 A 
ATOM     22  C   UNL     1      -0.625   9.935  18.732  0.00  0.00    +0.000 A 
BRANCH  20  23
ATOM     23  O   UNL     1       0.606  12.053  21.481  0.00  0.00    +0.000 OA
ATOM     24  H   UNL     1       0.462  13.011  21.581  0.00  0.00    +0.000 HD
ENDBRANCH  20  23
ENDBRANCH   1  21
TORSDOF 3
ENDMDL
