MODEL 1
REMARK VINA RESULT:      -5.3      0.000      0.000
REMARK  Name = 
REMARK  7 active torsions:
REMARK  status: ('A' for Active; 'I' for Inactive)
REMARK    1  A    between atoms: C_1  and  C_2
REMARK    2  A    between atoms: C_2  and  C_3
REMARK    3  A    between atoms: C_2  and  C_4
REMARK    4  A    between atoms: C_2  and  C_5
REMARK    5  A    between atoms: C_7  and  C_8
REMARK    6  A    between atoms: C_8  and  C_9
REMARK    7  A    between atoms: C_9  and  N_10
REMARK                            x       y       z     vdW  Elec       q    Type
REMARK                         _______ _______ _______ _____ _____    ______ ____
ROOT
ATOM      1  C   UNL     1       3.135   3.605  19.754  0.00  0.00    +0.000 A 
ATOM      2  N   UNL     1       3.609   4.371  18.795  0.00  0.00    +0.000 NA
ATOM      3  C   UNL     1       4.890   3.905  18.653  0.00  0.00    +0.000 A 
ATOM      4  N   UNL     1       5.215   2.896  19.473  0.00  0.00    +0.000 NA
ATOM      5  O   UNL     1       4.040   2.686  20.202  0.00  0.00    +0.000 OA
ENDROOT
BRANCH   1   7
ATOM      6  C   UNL     1       1.316   5.049  20.605  0.00  0.00    +0.000 C 
ATOM      7  C   UNL     1       1.758   3.600  20.351  0.00  0.00    +0.000 C 
ATOM      8  C   UNL     1       1.794   2.841  21.691  0.00  0.00    +0.000 C 
ATOM      9  C   UNL     1       0.745   2.907  19.424  0.00  0.00    +0.000 C 
ENDBRANCH   1   7
BRANCH   3  10
ATOM     10  C   UNL     1       5.831   4.477  17.659  0.00  0.00    +0.000 C 
BRANCH  10  11
ATOM     11  C   UNL     1       7.023   5.160  18.335  0.00  0.00    +0.000 C 
BRANCH  11  12
ATOM     12  N   UNL     1       6.802   5.367  19.770  0.00  0.00    +0.000 NA
ATOM     13  H   UNL     1       6.508   6.328  19.938  0.00  0.00    +0.000 HD
ATOM     14  H   UNL     1       7.691   5.255  20.260  0.00  0.00    +0.000 HD
ENDBRANCH  11  12
ENDBRANCH  10  11
ENDBRANCH   3  10
TORSDOF 4
ENDMDL
MODEL 2
REMARK VINA RESULT:      -5.2      1.477      1.734
REMARK  Name = 
REMARK  7 active torsions:
REMARK  status: ('A' for Active; 'I' for Inactive)
REMARK    1  A    between atoms: C_1  and  C_2
REMARK    2  A    between atoms: C_2  and  C_3
REMARK    3  A    between atoms: C_2  and  C_4
REMARK    4  A    between atoms: C_2  and  C_5
REMARK    5  A    between atoms: C_7  and  C_8
REMARK    6  A    between atoms: C_8  and  C_9
REMARK    7  A    between atoms: C_9  and  N_10
REMARK                            x       y       z     vdW  Elec       q    Type
REMARK                         _______ _______ _______ _____ _____    ______ ____
ROOT
ATOM      1  C   UNL     1       3.484   4.070  18.958  0.00  0.00    +0.000 A 
ATOM      2  N   UNL     1       4.052   5.135  18.435  0.00  0.00    +0.000 NA
ATOM      3  C   UNL     1       5.378   4.927  18.712  0.00  0.00    +0.000 A 
ATOM      4  N   UNL     1       5.642   3.791  19.372  0.00  0.00    +0.000 NA
ATOM      5  O   UNL     1       4.380   3.211  19.527  0.00  0.00    +0.000 OA
ENDROOT
BRANCH   1   7
ATOM      6  C   UNL     1       1.367   4.249  17.691  0.00  0.00    +0.000 C 
ATOM      7  C   UNL     1       2.032   3.690  18.958  0.00  0.00    +0.000 C 
ATOM      8  C   UNL     1       1.351   4.302  20.197  0.00  0.00    +0.000 C 
ATOM      9  C   UNL     1       1.850   2.163  19.005  0.00  0.00    +0.000 C 
ENDBRANCH   1   7
BRANCH   3  10
ATOM     10  C   UNL     1       6.430   5.889  18.300  0.00  0.00    +0.000 C 
BRANCH  10  11
ATOM     11  C   UNL     1       7.165   5.419  17.042  0.00  0.00    +0.000 C 
BRANCH  11  12
ATOM     12  N   UNL     1       7.955   4.207  17.282  0.00  0.00    +0.000 NA
ATOM     13  H   UNL     1       7.416   3.550  17.845  0.00  0.00    +0.000 HD
ATOM     14  H   UNL     1       8.772   4.452  17.842  0.00  0.00    +0.000 HD
ENDBRANCH  11  12
ENDBRANCH  10  11
ENDBRANCH   3  10
TORSDOF 4
ENDMDL
MODEL 3
REMARK VINA RESULT:      -5.2      1.250      1.793
REMARK  Name = 
REMARK  7 active torsions:
REMARK  status: ('A' for Active; 'I' for Inactive)
REMARK    1  A    between atoms: C_1  and  C_2
REMARK    2  A    between atoms: C_2  and  C_3
REMARK    3  A    between atoms: C_2  and  C_4
REMARK    4  A    between atoms: C_2  and  C_5
REMARK    5  A    between atoms: C_7  and  C_8
REMARK    6  A    between atoms: C_8  and  C_9
REMARK    7  A    between atoms: C_9  and  N_10
REMARK                            x       y       z     vdW  Elec       q    Type
REMARK                         _______ _______ _______ _____ _____    ______ ____
ROOT
ATOM      1  C   UNL     1       2.817   3.611  19.187  0.00  0.00    +0.000 A 
ATOM      2  N   UNL     1       3.443   4.520  18.472  0.00  0.00    +0.000 NA
ATOM      3  C   UNL     1       4.096   3.760  17.538  0.00  0.00    +0.000 A 
ATOM      4  N   UNL     1       3.896   2.439  17.648  0.00  0.00    +0.000 NA
ATOM      5  O   UNL     1       3.032   2.337  18.742  0.00  0.00    +0.000 OA
ENDROOT
BRANCH   1   7
ATOM      6  C   UNL     1       0.508   3.257  20.004  0.00  0.00    +0.000 C 
ATOM      7  C   UNL     1       1.897   3.811  20.357  0.00  0.00    +0.000 C 
ATOM      8  C   UNL     1       1.780   5.318  20.653  0.00  0.00    +0.000 C 
ATOM      9  C   UNL     1       2.429   3.105  21.617  0.00  0.00    +0.000 C 
ENDBRANCH   1   7
BRANCH   3  10
ATOM     10  C   UNL     1       4.949   4.365  16.485  0.00  0.00    +0.000 C 
BRANCH  10  11
ATOM     11  C   UNL     1       6.387   4.569  16.969  0.00  0.00    +0.000 C 
BRANCH  11  12
ATOM     12  N   UNL     1       6.571   4.135  18.358  0.00  0.00    +0.000 NA
ATOM     13  H   UNL     1       7.311   3.436  18.406  0.00  0.00    +0.000 HD
ATOM     14  H   UNL     1       5.720   3.666  18.672  0.00  0.00    +0.000 HD
ENDBRANCH  11  12
ENDBRANCH  10  11
ENDBRANCH   3  10
TORSDOF 4
ENDMDL
MODEL 4
REMARK VINA RESULT:      -5.2      4.550      5.966
REMARK  Name = 
REMARK  7 active torsions:
REMARK  status: ('A' for Active; 'I' for Inactive)
REMARK    1  A    between atoms: C_1  and  C_2
REMARK    2  A    between atoms: C_2  and  C_3
REMARK    3  A    between atoms: C_2  and  C_4
REMARK    4  A    between atoms: C_2  and  C_5
REMARK    5  A    between atoms: C_7  and  C_8
REMARK    6  A    between atoms: C_8  and  C_9
REMARK    7  A    between atoms: C_9  and  N_10
REMARK                            x       y       z     vdW  Elec       q    Type
REMARK                         _______ _______ _______ _____ _____    ______ ____
ROOT
ATOM      1  C   UNL     1       6.004   4.965  15.704  0.00  0.00    +0.000 A 
ATOM      2  N   UNL     1       5.697   4.235  14.652  0.00  0.00    +0.000 NA
ATOM      3  C   UNL     1       6.734   4.502  13.797  0.00  0.00    +0.000 A 
ATOM      4  N   UNL     1       7.654   5.351  14.277  0.00  0.00    +0.000 NA
ATOM      5  O   UNL     1       7.174   5.654  15.554  0.00  0.00    +0.000 OA
ENDROOT
BRANCH   1   7
ATOM      6  C   UNL     1       6.241   4.797  18.160  0.00  0.00    +0.000 C 
ATOM      7  C   UNL     1       5.268   5.084  17.006  0.00  0.00    +0.000 C 
ATOM      8  C   UNL     1       4.128   4.048  17.037  0.00  0.00    +0.000 C 
ATOM      9  C   UNL     1       4.659   6.486  17.182  0.00  0.00    +0.000 C 
ENDBRANCH   1   7
BRANCH   3  10
ATOM     10  C   UNL     1       6.825   3.884  12.451  0.00  0.00    +0.000 C 
BRANCH  10  11
ATOM     11  C   UNL     1       5.569   3.076  12.113  0.00  0.00    +0.000 C 
BRANCH  11  12
ATOM     12  N   UNL     1       5.891   1.754  11.569  0.00  0.00    +0.000 NA
ATOM     13  H   UNL     1       6.075   1.102  12.331  0.00  0.00    +0.000 HD
ATOM     14  H   UNL     1       6.761   1.818  11.038  0.00  0.00    +0.000 HD
ENDBRANCH  11  12
ENDBRANCH  10  11
ENDBRANCH   3  10
TORSDOF 4
ENDMDL
MODEL 5
REMARK VINA RESULT:      -5.2      1.806      4.953
REMARK  Name = 
REMARK  7 active torsions:
REMARK  status: ('A' for Active; 'I' for Inactive)
REMARK    1  A    between atoms: C_1  and  C_2
REMARK    2  A    between atoms: C_2  and  C_3
REMARK    3  A    between atoms: C_2  and  C_4
REMARK    4  A    between atoms: C_2  and  C_5
REMARK    5  A    between atoms: C_7  and  C_8
REMARK    6  A    between atoms: C_8  and  C_9
REMARK    7  A    between atoms: C_9  and  N_10
REMARK                            x       y       z     vdW  Elec       q    Type
REMARK                         _______ _______ _______ _____ _____    ______ ____
ROOT
ATOM      1  C   UNL     1       5.390   4.786  17.750  0.00  0.00    +0.000 A 
ATOM      2  N   UNL     1       4.088   4.682  17.906  0.00  0.00    +0.000 NA
ATOM      3  C   UNL     1       3.987   3.875  19.009  0.00  0.00    +0.000 A 
ATOM      4  N   UNL     1       5.159   3.488  19.531  0.00  0.00    +0.000 NA
ATOM      5  O   UNL     1       6.098   4.104  18.698  0.00  0.00    +0.000 OA
ENDROOT
BRANCH   1   7
ATOM      6  C   UNL     1       7.157   6.488  17.432  0.00  0.00    +0.000 C 
ATOM      7  C   UNL     1       6.149   5.571  16.720  0.00  0.00    +0.000 C 
ATOM      8  C   UNL     1       5.160   6.436  15.917  0.00  0.00    +0.000 C 
ATOM      9  C   UNL     1       6.894   4.645  15.744  0.00  0.00    +0.000 C 
ENDBRANCH   1   7
BRANCH   3  10
ATOM     10  C   UNL     1       2.675   3.476  19.577  0.00  0.00    +0.000 C 
BRANCH  10  11
ATOM     11  C   UNL     1       2.153   2.184  18.942  0.00  0.00    +0.000 C 
BRANCH  11  12
ATOM     12  N   UNL     1       3.152   1.549  18.077  0.00  0.00    +0.000 NA
ATOM     13  H   UNL     1       2.716   1.256  17.203  0.00  0.00    +0.000 HD
ATOM     14  H   UNL     1       3.482   0.694  18.527  0.00  0.00    +0.000 HD
ENDBRANCH  11  12
ENDBRANCH  10  11
ENDBRANCH   3  10
TORSDOF 4
ENDMDL
MODEL 6
REMARK VINA RESULT:      -5.2      1.731      2.057
REMARK  Name = 
REMARK  7 active torsions:
REMARK  status: ('A' for Active; 'I' for Inactive)
REMARK    1  A    between atoms: C_1  and  C_2
REMARK    2  A    between atoms: C_2  and  C_3
REMARK    3  A    between atoms: C_2  and  C_4
REMARK    4  A    between atoms: C_2  and  C_5
REMARK    5  A    between atoms: C_7  and  C_8
REMARK    6  A    between atoms: C_8  and  C_9
REMARK    7  A    between atoms: C_9  and  N_10
REMARK                            x       y       z     vdW  Elec       q    Type
REMARK                         _______ _______ _______ _____ _____    ______ ____
ROOT
ATOM      1  C   UNL     1       4.099   4.316  18.399  0.00  0.00    +0.000 A 
ATOM      2  N   UNL     1       5.265   4.584  18.949  0.00  0.00    +0.000 NA
ATOM      3  C   UNL     1       6.106   4.585  17.867  0.00  0.00    +0.000 A 
ATOM      4  N   UNL     1       5.511   4.336  16.692  0.00  0.00    +0.000 NA
ATOM      5  O   UNL     1       4.169   4.166  17.044  0.00  0.00    +0.000 OA
ENDROOT
BRANCH   1   7
ATOM      6  C   UNL     1       2.533   5.440  19.949  0.00  0.00    +0.000 C 
ATOM      7  C   UNL     1       2.756   4.206  19.061  0.00  0.00    +0.000 C 
ATOM      8  C   UNL     1       2.730   2.941  19.939  0.00  0.00    +0.000 C 
ATOM      9  C   UNL     1       1.625   4.105  18.024  0.00  0.00    +0.000 C 
ENDBRANCH   1   7
BRANCH   3  10
ATOM     10  C   UNL     1       7.559   4.853  17.999  0.00  0.00    +0.000 C 
BRANCH  10  11
ATOM     11  C   UNL     1       7.841   5.956  19.023  0.00  0.00    +0.000 C 
BRANCH  11  12
ATOM     12  N   UNL     1       7.999   5.425  20.380  0.00  0.00    +0.000 NA
ATOM     13  H   UNL     1       8.279   4.445  20.338  0.00  0.00    +0.000 HD
ATOM     14  H   UNL     1       7.091   5.437  20.847  0.00  0.00    +0.000 HD
ENDBRANCH  11  12
ENDBRANCH  10  11
ENDBRANCH   3  10
TORSDOF 4
ENDMDL
MODEL 7
REMARK VINA RESULT:      -5.2      1.706      4.952
REMARK  Name = 
REMARK  7 active torsions:
REMARK  status: ('A' for Active; 'I' for Inactive)
REMARK    1  A    between atoms: C_1  and  C_2
REMARK    2  A    between atoms: C_2  and  C_3
REMARK    3  A    between atoms: C_2  and  C_4
REMARK    4  A    between atoms: C_2  and  C_5
REMARK    5  A    between atoms: C_7  and  C_8
REMARK    6  A    between atoms: C_8  and  C_9
REMARK    7  A    between atoms: C_9  and  N_10
REMARK                            x       y       z     vdW  Elec       q    Type
REMARK                         _______ _______ _______ _____ _____    ______ ____
ROOT
ATOM      1  C   UNL     1       5.545   5.020  18.814  0.00  0.00    +0.000 A 
ATOM      2  N   UNL     1       4.471   5.674  19.199  0.00  0.00    +0.000 NA
ATOM      3  C   UNL     1       3.696   4.679  19.734  0.00  0.00    +0.000 A 
ATOM      4  N   UNL     1       4.246   3.457  19.695  0.00  0.00    +0.000 NA
ATOM      5  O   UNL     1       5.485   3.683  19.091  0.00  0.00    +0.000 OA
ENDROOT
BRANCH   1   7
ATOM      6  C   UNL     1       7.353   4.508  17.204  0.00  0.00    +0.000 C 
ATOM      7  C   UNL     1       6.791   5.560  18.173  0.00  0.00    +0.000 C 
ATOM      8  C   UNL     1       7.835   5.847  19.268  0.00  0.00    +0.000 C 
ATOM      9  C   UNL     1       6.510   6.866  17.411  0.00  0.00    +0.000 C 
ENDBRANCH   1   7
BRANCH   3  10
ATOM     10  C   UNL     1       2.358   4.948  20.315  0.00  0.00    +0.000 C 
BRANCH  10  11
ATOM     11  C   UNL     1       1.668   3.658  20.768  0.00  0.00    +0.000 C 
BRANCH  11  12
ATOM     12  N   UNL     1       2.184   3.175  22.052  0.00  0.00    +0.000 NA
ATOM     13  H   UNL     1       1.413   3.035  22.704  0.00  0.00    +0.000 HD
ATOM     14  H   UNL     1       2.773   3.899  22.465  0.00  0.00    +0.000 HD
ENDBRANCH  11  12
ENDBRANCH  10  11
ENDBRANCH   3  10
TORSDOF 4
ENDMDL
MODEL 8
REMARK VINA RESULT:      -5.1      1.653      4.954
REMARK  Name = 
REMARK  7 active torsions:
REMARK  status: ('A' for Active; 'I' for Inactive)
REMARK    1  A    between atoms: C_1  and  C_2
REMARK    2  A    between atoms: C_2  and  C_3
REMARK    3  A    between atoms: C_2  and  C_4
REMARK    4  A    between atoms: C_2  and  C_5
REMARK    5  A    between atoms: C_7  and  C_8
REMARK    6  A    between atoms: C_8  and  C_9
REMARK    7  A    between atoms: C_9  and  N_10
REMARK                            x       y       z     vdW  Elec       q    Type
REMARK                         _______ _______ _______ _____ _____    ______ ____
ROOT
ATOM      1  C   UNL     1       4.935   4.306  17.788  0.00  0.00    +0.000 A 
ATOM      2  N   UNL     1       3.627   4.430  17.732  0.00  0.00    +0.000 NA
ATOM      3  C   UNL     1       3.228   3.879  18.921  0.00  0.00    +0.000 A 
ATOM      4  N   UNL     1       4.227   3.432  19.696  0.00  0.00    +0.000 NA
ATOM      5  O   UNL     1       5.369   3.727  18.946  0.00  0.00    +0.000 OA
ENDROOT
BRANCH   1   7
ATOM      6  C   UNL     1       5.920   3.810  15.574  0.00  0.00    +0.000 C 
ATOM      7  C   UNL     1       5.961   4.753  16.787  0.00  0.00    +0.000 C 
ATOM      8  C   UNL     1       7.358   4.684  17.432  0.00  0.00    +0.000 C 
ATOM      9  C   UNL     1       5.705   6.198  16.326  0.00  0.00    +0.000 C 
ENDBRANCH   1   7
BRANCH   3  10
ATOM     10  C   UNL     1       1.800   3.798  19.314  0.00  0.00    +0.000 C 
BRANCH  10  11
ATOM     11  C   UNL     1       1.153   2.496  18.833  0.00  0.00    +0.000 C 
BRANCH  11  12
ATOM     12  N   UNL     1       2.108   1.627  18.139  0.00  0.00    +0.000 NA
ATOM     13  H   UNL     1       3.035   1.734  18.550  0.00  0.00    +0.000 HD
ATOM     14  H   UNL     1       2.194   1.938  17.170  0.00  0.00    +0.000 HD
ENDBRANCH  11  12
ENDBRANCH  10  11
ENDBRANCH   3  10
TORSDOF 4
ENDMDL
MODEL 9
REMARK VINA RESULT:      -5.1      1.590      2.008
REMARK  Name = 
REMARK  7 active torsions:
REMARK  status: ('A' for Active; 'I' for Inactive)
REMARK    1  A    between atoms: C_1  and  C_2
REMARK    2  A    between atoms: C_2  and  C_3
REMARK    3  A    between atoms: C_2  and  C_4
REMARK    4  A    between atoms: C_2  and  C_5
REMARK    5  A    between atoms: C_7  and  C_8
REMARK    6  A    between atoms: C_8  and  C_9
REMARK    7  A    between atoms: C_9  and  N_10
REMARK                            x       y       z     vdW  Elec       q    Type
REMARK                         _______ _______ _______ _____ _____    ______ ____
ROOT
ATOM      1  C   UNL     1       3.880   4.035  18.811  0.00  0.00    +0.000 A 
ATOM      2  N   UNL     1       5.008   3.839  18.163  0.00  0.00    +0.000 NA
ATOM      3  C   UNL     1       5.817   4.816  18.680  0.00  0.00    +0.000 A 
ATOM      4  N   UNL     1       5.240   5.591  19.609  0.00  0.00    +0.000 NA
ATOM      5  O   UNL     1       3.949   5.064  19.706  0.00  0.00    +0.000 OA
ENDROOT
BRANCH   1   7
ATOM      6  C   UNL     1       1.604   4.043  17.842  0.00  0.00    +0.000 C 
ATOM      7  C   UNL     1       2.598   3.259  18.713  0.00  0.00    +0.000 C 
ATOM      8  C   UNL     1       2.006   3.086  20.124  0.00  0.00    +0.000 C 
ATOM      9  C   UNL     1       2.829   1.865  18.105  0.00  0.00    +0.000 C 
ENDBRANCH   1   7
BRANCH   3  10
ATOM     10  C   UNL     1       7.225   4.988  18.243  0.00  0.00    +0.000 C 
BRANCH  10  11
ATOM     11  C   UNL     1       7.991   5.942  19.162  0.00  0.00    +0.000 C 
BRANCH  11  12
ATOM     12  N   UNL     1       8.209   5.371  20.495  0.00  0.00    +0.000 NA
ATOM     13  H   UNL     1       8.088   4.360  20.462  0.00  0.00    +0.000 HD
ATOM     14  H   UNL     1       7.486   5.720  21.126  0.00  0.00    +0.000 HD
ENDBRANCH  11  12
ENDBRANCH  10  11
ENDBRANCH   3  10
TORSDOF 4
ENDMDL
