MODEL 1
REMARK VINA RESULT:      -7.4      0.000      0.000
REMARK  Name = 
REMARK  4 active torsions:
REMARK  status: ('A' for Active; 'I' for Inactive)
REMARK    1  A    between atoms: C_1  and  C_2
REMARK    2  A    between atoms: N_6  and  C_7
REMARK    3  A    between atoms: C_15  and  C_16
REMARK    4  A    between atoms: C_15  and  C_17
REMARK                            x       y       z     vdW  Elec       q    Type
REMARK                         _______ _______ _______ _____ _____    ______ ____
ROOT
ATOM      1  C   UNL     1       1.236   4.103  17.505  0.00  0.00    +0.000 C 
ATOM      2  C   UNL     1       2.680   4.475  17.514  0.00  0.00    +0.000 A 
ATOM      3  C   UNL     1       3.679   3.840  16.797  0.00  0.00    +0.000 A 
ATOM      4  C   UNL     1       4.866   4.576  16.954  0.00  0.00    +0.000 A 
ATOM      5  C   UNL     1       4.584   5.654  17.764  0.00  0.00    +0.000 A 
ATOM      6  N   UNL     1       3.238   5.588  18.162  0.00  0.00    +0.000 N 
ATOM      7  C   UNL     1       5.578   6.683  18.182  0.00  0.00    +0.000 C 
ATOM      8  C   UNL     1       7.048   6.410  17.746  0.00  0.00    +0.000 C 
ATOM      9  C   UNL     1       7.878   6.023  18.989  0.00  0.00    +0.000 C 
ATOM     10  C   UNL     1       7.617   7.752  17.217  0.00  0.00    +0.000 C 
ATOM     11  C   UNL     1       7.266   5.344  16.635  0.00  0.00    +0.000 C 
ATOM     12  C   UNL     1       6.173   4.326  16.383  0.00  0.00    +0.000 C 
ATOM     13  O   UNL     1       6.382   3.350  15.666  0.00  0.00    +0.000 OA
ENDROOT
BRANCH   6  14
ATOM     14  C   UNL     1       2.560   6.478  19.066  0.00  0.00    +0.000 A 
ATOM     15  C   UNL     1       2.130   6.047  20.329  0.00  0.00    +0.000 A 
ATOM     16  C   UNL     1       1.420   6.900  21.181  0.00  0.00    +0.000 A 
ATOM     17  C   UNL     1       1.170   8.212  20.798  0.00  0.00    +0.000 A 
ATOM     18 CL   UNL     1       0.311   9.263  21.853  0.00  0.00    +0.000 Cl
ATOM     19  C   UNL     1       1.615   8.671  19.565  0.00  0.00    +0.000 A 
ATOM     20  C   UNL     1       2.294   7.804  18.696  0.00  0.00    +0.000 A 
ENDBRANCH   6  14
TORSDOF 1
ENDMDL
MODEL 2
REMARK VINA RESULT:      -7.3      0.058      1.077
REMARK  Name = 
REMARK  4 active torsions:
REMARK  status: ('A' for Active; 'I' for Inactive)
REMARK    1  A    between atoms: C_1  and  C_2
REMARK    2  A    between atoms: N_6  and  C_7
REMARK    3  A    between atoms: C_15  and  C_16
REMARK    4  A    between atoms: C_15  and  C_17
REMARK                            x       y       z     vdW  Elec       q    Type
REMARK                         _______ _______ _______ _____ _____    ______ ____
ROOT
ATOM      1  C   UNL     1       1.239   4.061  17.480  0.00  0.00    +0.000 C 
ATOM      2  C   UNL     1       2.680   4.444  17.498  0.00  0.00    +0.000 A 
ATOM      3  C   UNL     1       3.688   3.815  16.787  0.00  0.00    +0.000 A 
ATOM      4  C   UNL     1       4.868   4.561  16.950  0.00  0.00    +0.000 A 
ATOM      5  C   UNL     1       4.573   5.639  17.756  0.00  0.00    +0.000 A 
ATOM      6  N   UNL     1       3.225   5.563  18.146  0.00  0.00    +0.000 N 
ATOM      7  C   UNL     1       5.556   6.676  18.178  0.00  0.00    +0.000 C 
ATOM      8  C   UNL     1       7.031   6.413  17.751  0.00  0.00    +0.000 C 
ATOM      9  C   UNL     1       7.856   6.035  19.000  0.00  0.00    +0.000 C 
ATOM     10  C   UNL     1       7.593   7.759  17.223  0.00  0.00    +0.000 C 
ATOM     11  C   UNL     1       7.264   5.347  16.643  0.00  0.00    +0.000 C 
ATOM     12  C   UNL     1       6.180   4.320  16.388  0.00  0.00    +0.000 C 
ATOM     13  O   UNL     1       6.401   3.344  15.673  0.00  0.00    +0.000 OA
ENDROOT
BRANCH   6  14
ATOM     14  C   UNL     1       2.535   6.449  19.045  0.00  0.00    +0.000 A 
ATOM     15  C   UNL     1       2.281   7.785  18.703  0.00  0.00    +0.000 A 
ATOM     16  C   UNL     1       1.662   8.657  19.605  0.00  0.00    +0.000 A 
ATOM     17  C   UNL     1       1.249   8.192  20.847  0.00  0.00    +0.000 A 
ATOM     18 CL   UNL     1       0.475   9.261  21.947  0.00  0.00    +0.000 Cl
ATOM     19  C   UNL     1       1.460   6.864  21.196  0.00  0.00    +0.000 A 
ATOM     20  C   UNL     1       2.114   5.999  20.306  0.00  0.00    +0.000 A 
ENDBRANCH   6  14
TORSDOF 1
ENDMDL
MODEL 3
REMARK VINA RESULT:      -7.1      3.272      5.303
REMARK  Name = 
REMARK  4 active torsions:
REMARK  status: ('A' for Active; 'I' for Inactive)
REMARK    1  A    between atoms: C_1  and  C_2
REMARK    2  A    between atoms: N_6  and  C_7
REMARK    3  A    between atoms: C_15  and  C_16
REMARK    4  A    between atoms: C_15  and  C_17
REMARK                            x       y       z     vdW  Elec       q    Type
REMARK                         _______ _______ _______ _____ _____    ______ ____
ROOT
ATOM      1  C   UNL     1       6.488   5.694  18.199  0.00  0.00    +0.000 C 
ATOM      2  C   UNL     1       6.393   5.307  16.763  0.00  0.00    +0.000 A 
ATOM      3  C   UNL     1       7.289   5.669  15.771  0.00  0.00    +0.000 A 
ATOM      4  C   UNL     1       6.938   4.986  14.594  0.00  0.00    +0.000 A 
ATOM      5  C   UNL     1       5.833   4.212  14.874  0.00  0.00    +0.000 A 
ATOM      6  N   UNL     1       5.449   4.429  16.209  0.00  0.00    +0.000 N 
ATOM      7  C   UNL     1       5.141   3.334  13.889  0.00  0.00    +0.000 C 
ATOM      8  C   UNL     1       5.668   3.425  12.426  0.00  0.00    +0.000 C 
ATOM      9  C   UNL     1       4.617   4.151  11.557  0.00  0.00    +0.000 C 
ATOM     10  C   UNL     1       5.774   1.972  11.895  0.00  0.00    +0.000 C 
ATOM     11  C   UNL     1       7.054   4.097  12.217  0.00  0.00    +0.000 C 
ATOM     12  C   UNL     1       7.582   5.018  13.298  0.00  0.00    +0.000 C 
ATOM     13  O   UNL     1       8.567   5.724  13.090  0.00  0.00    +0.000 OA
ENDROOT
BRANCH   6  14
ATOM     14  C   UNL     1       4.303   3.874  16.878  0.00  0.00    +0.000 A 
ATOM     15  C   UNL     1       4.273   2.532  17.284  0.00  0.00    +0.000 A 
ATOM     16  C   UNL     1       3.135   1.982  17.882  0.00  0.00    +0.000 A 
ATOM     17  C   UNL     1       2.024   2.781  18.123  0.00  0.00    +0.000 A 
ATOM     18 CL   UNL     1       0.631   2.109  18.872  0.00  0.00    +0.000 Cl
ATOM     19  C   UNL     1       2.041   4.123  17.759  0.00  0.00    +0.000 A 
ATOM     20  C   UNL     1       3.170   4.663  17.126  0.00  0.00    +0.000 A 
ENDBRANCH   6  14
TORSDOF 1
ENDMDL
MODEL 4
REMARK VINA RESULT:      -7.0      3.271      5.363
REMARK  Name = 
REMARK  4 active torsions:
REMARK  status: ('A' for Active; 'I' for Inactive)
REMARK    1  A    between atoms: C_1  and  C_2
REMARK    2  A    between atoms: N_6  and  C_7
REMARK    3  A    between atoms: C_15  and  C_16
REMARK    4  A    between atoms: C_15  and  C_17
REMARK                            x       y       z     vdW  Elec       q    Type
REMARK                         _______ _______ _______ _____ _____    ______ ____
ROOT
ATOM      1  C   UNL     1       6.410   5.740  18.170  0.00  0.00    +0.000 C 
ATOM      2  C   UNL     1       6.344   5.347  16.733  0.00  0.00    +0.000 A 
ATOM      3  C   UNL     1       7.256   5.711  15.757  0.00  0.00    +0.000 A 
ATOM      4  C   UNL     1       6.930   5.023  14.576  0.00  0.00    +0.000 A 
ATOM      5  C   UNL     1       5.824   4.244  14.838  0.00  0.00    +0.000 A 
ATOM      6  N   UNL     1       5.414   4.464  16.165  0.00  0.00    +0.000 N 
ATOM      7  C   UNL     1       5.154   3.360  13.843  0.00  0.00    +0.000 C 
ATOM      8  C   UNL     1       5.708   3.449  12.390  0.00  0.00    +0.000 C 
ATOM      9  C   UNL     1       4.670   4.167  11.500  0.00  0.00    +0.000 C 
ATOM     10  C   UNL     1       5.831   1.995  11.866  0.00  0.00    +0.000 C 
ATOM     11  C   UNL     1       7.095   4.127  12.205  0.00  0.00    +0.000 C 
ATOM     12  C   UNL     1       7.598   5.054  13.292  0.00  0.00    +0.000 C 
ATOM     13  O   UNL     1       8.583   5.764  13.100  0.00  0.00    +0.000 OA
ENDROOT
BRANCH   6  14
ATOM     14  C   UNL     1       4.259   3.905  16.815  0.00  0.00    +0.000 A 
ATOM     15  C   UNL     1       3.125   4.683  17.087  0.00  0.00    +0.000 A 
ATOM     16  C   UNL     1       2.029   4.149  17.771  0.00  0.00    +0.000 A 
ATOM     17  C   UNL     1       2.034   2.814  18.155  0.00  0.00    +0.000 A 
ATOM     18 CL   UNL     1       0.679   2.155  18.983  0.00  0.00    +0.000 Cl
ATOM     19  C   UNL     1       3.133   2.013  17.868  0.00  0.00    +0.000 A 
ATOM     20  C   UNL     1       4.247   2.560  17.214  0.00  0.00    +0.000 A 
ENDBRANCH   6  14
TORSDOF 1
ENDMDL
MODEL 5
REMARK VINA RESULT:      -7.0      1.983      4.143
REMARK  Name = 
REMARK  4 active torsions:
REMARK  status: ('A' for Active; 'I' for Inactive)
REMARK    1  A    between atoms: C_1  and  C_2
REMARK    2  A    between atoms: N_6  and  C_7
REMARK    3  A    between atoms: C_15  and  C_16
REMARK    4  A    between atoms: C_15  and  C_17
REMARK                            x       y       z     vdW  Elec       q    Type
REMARK                         _______ _______ _______ _____ _____    ______ ____
ROOT
ATOM      1  C   UNL     1       4.879   7.405  16.855  0.00  0.00    +0.000 C 
ATOM      2  C   UNL     1       4.148   6.235  17.421  0.00  0.00    +0.000 A 
ATOM      3  C   UNL     1       4.495   4.907  17.242  0.00  0.00    +0.000 A 
ATOM      4  C   UNL     1       3.655   4.122  18.051  0.00  0.00    +0.000 A 
ATOM      5  C   UNL     1       2.804   4.975  18.719  0.00  0.00    +0.000 A 
ATOM      6  N   UNL     1       3.063   6.295  18.309  0.00  0.00    +0.000 N 
ATOM      7  C   UNL     1       1.749   4.541  19.677  0.00  0.00    +0.000 C 
ATOM      8  C   UNL     1       1.556   3.001  19.807  0.00  0.00    +0.000 C 
ATOM      9  C   UNL     1       0.219   2.603  19.143  0.00  0.00    +0.000 C 
ATOM     10  C   UNL     1       1.423   2.690  21.321  0.00  0.00    +0.000 C 
ATOM     11  C   UNL     1       2.692   2.099  19.247  0.00  0.00    +0.000 C 
ATOM     12  C   UNL     1       3.644   2.685  18.224  0.00  0.00    +0.000 C 
ATOM     13  O   UNL     1       4.421   1.960  17.607  0.00  0.00    +0.000 OA
ENDROOT
BRANCH   6  14
ATOM     14  C   UNL     1       2.349   7.478  18.707  0.00  0.00    +0.000 A 
ATOM     15  C   UNL     1       2.017   7.715  20.049  0.00  0.00    +0.000 A 
ATOM     16  C   UNL     1       1.272   8.838  20.422  0.00  0.00    +0.000 A 
ATOM     17  C   UNL     1       0.887   9.765  19.462  0.00  0.00    +0.000 A 
ATOM     18 CL   UNL     1      -0.015  11.153  19.924  0.00  0.00    +0.000 Cl
ATOM     19  C   UNL     1       1.232   9.569  18.130  0.00  0.00    +0.000 A 
ATOM     20  C   UNL     1       1.947   8.423  17.751  0.00  0.00    +0.000 A 
ENDBRANCH   6  14
TORSDOF 1
ENDMDL
MODEL 6
REMARK VINA RESULT:      -7.0      2.724      4.553
REMARK  Name = 
REMARK  4 active torsions:
REMARK  status: ('A' for Active; 'I' for Inactive)
REMARK    1  A    between atoms: C_1  and  C_2
REMARK    2  A    between atoms: N_6  and  C_7
REMARK    3  A    between atoms: C_15  and  C_16
REMARK    4  A    between atoms: C_15  and  C_17
REMARK                            x       y       z     vdW  Elec       q    Type
REMARK                         _______ _______ _______ _____ _____    ______ ____
ROOT
ATOM      1  C   UNL     1       2.507  10.049  17.884  0.00  0.00    +0.000 C 
ATOM      2  C   UNL     1       2.419   8.614  18.281  0.00  0.00    +0.000 A 
ATOM      3  C   UNL     1       3.028   7.559  17.624  0.00  0.00    +0.000 A 
ATOM      4  C   UNL     1       2.831   6.395  18.387  0.00  0.00    +0.000 A 
ATOM      5  C   UNL     1       2.105   6.748  19.504  0.00  0.00    +0.000 A 
ATOM      6  N   UNL     1       1.799   8.118  19.438  0.00  0.00    +0.000 N 
ATOM      7  C   UNL     1       1.678   5.799  20.571  0.00  0.00    +0.000 C 
ATOM      8  C   UNL     1       1.995   4.299  20.299  0.00  0.00    +0.000 C 
ATOM      9  C   UNL     1       0.677   3.553  19.996  0.00  0.00    +0.000 C 
ATOM     10  C   UNL     1       2.558   3.712  21.619  0.00  0.00    +0.000 C 
ATOM     11  C   UNL     1       3.026   3.989  19.177  0.00  0.00    +0.000 C 
ATOM     12  C   UNL     1       3.294   5.048  18.128  0.00  0.00    +0.000 C 
ATOM     13  O   UNL     1       3.939   4.777  17.118  0.00  0.00    +0.000 OA
ENDROOT
BRANCH   6  14
ATOM     14  C   UNL     1       0.995   8.868  20.365  0.00  0.00    +0.000 A 
ATOM     15  C   UNL     1      -0.004   9.747  19.921  0.00  0.00    +0.000 A 
ATOM     16  C   UNL     1      -0.743  10.517  20.825  0.00  0.00    +0.000 A 
ATOM     17  C   UNL     1      -0.521  10.387  22.190  0.00  0.00    +0.000 A 
ATOM     18 CL   UNL     1      -1.440  11.324  23.300  0.00  0.00    +0.000 Cl
ATOM     19  C   UNL     1       0.441   9.500  22.656  0.00  0.00    +0.000 A 
ATOM     20  C   UNL     1       1.207   8.755  21.747  0.00  0.00    +0.000 A 
ENDBRANCH   6  14
TORSDOF 1
ENDMDL
MODEL 7
REMARK VINA RESULT:      -7.0      2.726      4.438
REMARK  Name = 
REMARK  4 active torsions:
REMARK  status: ('A' for Active; 'I' for Inactive)
REMARK    1  A    between atoms: C_1  and  C_2
REMARK    2  A    between atoms: N_6  and  C_7
REMARK    3  A    between atoms: C_15  and  C_16
REMARK    4  A    between atoms: C_15  and  C_17
REMARK                            x       y       z     vdW  Elec       q    Type
REMARK                         _______ _______ _______ _____ _____    ______ ____
ROOT
ATOM      1  C   UNL     1       2.541   9.981  17.859  0.00  0.00    +0.000 C 
ATOM      2  C   UNL     1       2.438   8.550  18.267  0.00  0.00    +0.000 A 
ATOM      3  C   UNL     1       3.022   7.482  17.608  0.00  0.00    +0.000 A 
ATOM      4  C   UNL     1       2.820   6.327  18.383  0.00  0.00    +0.000 A 
ATOM      5  C   UNL     1       2.116   6.697  19.508  0.00  0.00    +0.000 A 
ATOM      6  N   UNL     1       1.828   8.071  19.436  0.00  0.00    +0.000 N 
ATOM      7  C   UNL     1       1.691   5.762  20.587  0.00  0.00    +0.000 C 
ATOM      8  C   UNL     1       1.982   4.255  20.321  0.00  0.00    +0.000 C 
ATOM      9  C   UNL     1       0.650   3.527  20.042  0.00  0.00    +0.000 C 
ATOM     10  C   UNL     1       2.557   3.669  21.637  0.00  0.00    +0.000 C 
ATOM     11  C   UNL     1       2.993   3.924  19.186  0.00  0.00    +0.000 C 
ATOM     12  C   UNL     1       3.260   4.972  18.126  0.00  0.00    +0.000 C 
ATOM     13  O   UNL     1       3.886   4.684  17.108  0.00  0.00    +0.000 OA
ENDROOT
BRANCH   6  14
ATOM     14  C   UNL     1       1.049   8.839  20.370  0.00  0.00    +0.000 A 
ATOM     15  C   UNL     1       1.246   8.727  21.753  0.00  0.00    +0.000 A 
ATOM     16  C   UNL     1       0.446   9.432  22.658  0.00  0.00    +0.000 A 
ATOM     17  C   UNL     1      -0.536  10.296  22.188  0.00  0.00    +0.000 A 
ATOM     18 CL   UNL     1      -1.508  11.174  23.300  0.00  0.00    +0.000 Cl
ATOM     19  C   UNL     1      -0.729  10.449  20.820  0.00  0.00    +0.000 A 
ATOM     20  C   UNL     1       0.049   9.712  19.915  0.00  0.00    +0.000 A 
ENDBRANCH   6  14
TORSDOF 1
ENDMDL
MODEL 8
REMARK VINA RESULT:      -7.0      1.984      4.291
REMARK  Name = 
REMARK  4 active torsions:
REMARK  status: ('A' for Active; 'I' for Inactive)
REMARK    1  A    between atoms: C_1  and  C_2
REMARK    2  A    between atoms: N_6  and  C_7
REMARK    3  A    between atoms: C_15  and  C_16
REMARK    4  A    between atoms: C_15  and  C_17
REMARK                            x       y       z     vdW  Elec       q    Type
REMARK                         _______ _______ _______ _____ _____    ______ ____
ROOT
ATOM      1  C   UNL     1       4.911   7.182  16.747  0.00  0.00    +0.000 C 
ATOM      2  C   UNL     1       4.167   6.042  17.357  0.00  0.00    +0.000 A 
ATOM      3  C   UNL     1       4.495   4.704  17.221  0.00  0.00    +0.000 A 
ATOM      4  C   UNL     1       3.649   3.959  18.061  0.00  0.00    +0.000 A 
ATOM      5  C   UNL     1       2.813   4.847  18.704  0.00  0.00    +0.000 A 
ATOM      6  N   UNL     1       3.088   6.147  18.247  0.00  0.00    +0.000 N 
ATOM      7  C   UNL     1       1.757   4.460  19.681  0.00  0.00    +0.000 C 
ATOM      8  C   UNL     1       1.543   2.929  19.865  0.00  0.00    +0.000 C 
ATOM      9  C   UNL     1       0.198   2.528  19.222  0.00  0.00    +0.000 C 
ATOM     10  C   UNL     1       1.415   2.672  21.389  0.00  0.00    +0.000 C 
ATOM     11  C   UNL     1       2.664   1.992  19.330  0.00  0.00    +0.000 C 
ATOM     12  C   UNL     1       3.618   2.529  18.283  0.00  0.00    +0.000 C 
ATOM     13  O   UNL     1       4.382   1.772  17.688  0.00  0.00    +0.000 OA
ENDROOT
BRANCH   6  14
ATOM     14  C   UNL     1       2.393   7.354  18.608  0.00  0.00    +0.000 A 
ATOM     15  C   UNL     1       2.070   8.326  17.651  0.00  0.00    +0.000 A 
ATOM     16  C   UNL     1       1.447   9.523  18.017  0.00  0.00    +0.000 A 
ATOM     17  C   UNL     1       1.097   9.745  19.343  0.00  0.00    +0.000 A 
ATOM     18 CL   UNL     1       0.318  11.210  19.790  0.00  0.00    +0.000 Cl
ATOM     19  C   UNL     1       1.378   8.783  20.306  0.00  0.00    +0.000 A 
ATOM     20  C   UNL     1       2.037   7.599  19.943  0.00  0.00    +0.000 A 
ENDBRANCH   6  14
TORSDOF 1
ENDMDL
MODEL 9
REMARK VINA RESULT:      -6.8      2.821      5.301
REMARK  Name = 
REMARK  4 active torsions:
REMARK  status: ('A' for Active; 'I' for Inactive)
REMARK    1  A    between atoms: C_1  and  C_2
REMARK    2  A    between atoms: N_6  and  C_7
REMARK    3  A    between atoms: C_15  and  C_16
REMARK    4  A    between atoms: C_15  and  C_17
REMARK                            x       y       z     vdW  Elec       q    Type
REMARK                         _______ _______ _______ _____ _____    ______ ____
ROOT
ATOM      1  C   UNL     1       6.691   4.209  15.219  0.00  0.00    +0.000 C 
ATOM      2  C   UNL     1       5.589   4.228  16.224  0.00  0.00    +0.000 A 
ATOM      3  C   UNL     1       4.489   3.388  16.227  0.00  0.00    +0.000 A 
ATOM      4  C   UNL     1       3.767   3.618  17.410  0.00  0.00    +0.000 A 
ATOM      5  C   UNL     1       4.430   4.594  18.121  0.00  0.00    +0.000 A 
ATOM      6  N   UNL     1       5.546   5.022  17.380  0.00  0.00    +0.000 N 
ATOM      7  C   UNL     1       3.986   5.134  19.437  0.00  0.00    +0.000 C 
ATOM      8  C   UNL     1       2.610   4.612  19.945  0.00  0.00    +0.000 C 
ATOM      9  C   UNL     1       1.572   5.752  19.847  0.00  0.00    +0.000 C 
ATOM     10  C   UNL     1       2.781   4.280  21.450  0.00  0.00    +0.000 C 
ATOM     11  C   UNL     1       2.039   3.342  19.252  0.00  0.00    +0.000 C 
ATOM     12  C   UNL     1       2.558   2.972  17.878  0.00  0.00    +0.000 C 
ATOM     13  O   UNL     1       1.997   2.105  17.211  0.00  0.00    +0.000 OA
ENDROOT
BRANCH   6  14
ATOM     14  C   UNL     1       6.460   6.076  17.728  0.00  0.00    +0.000 A 
ATOM     15  C   UNL     1       7.486   5.875  18.663  0.00  0.00    +0.000 A 
ATOM     16  C   UNL     1       8.335   6.920  19.040  0.00  0.00    +0.000 A 
ATOM     17  C   UNL     1       8.198   8.172  18.453  0.00  0.00    +0.000 A 
ATOM     18 CL   UNL     1       9.253   9.451  18.906  0.00  0.00    +0.000 Cl
ATOM     19  C   UNL     1       7.210   8.387  17.500  0.00  0.00    +0.000 A 
ATOM     20  C   UNL     1       6.334   7.348  17.150  0.00  0.00    +0.000 A 
ENDBRANCH   6  14
TORSDOF 1
ENDMDL
