MODEL 1
REMARK VINA RESULT:      -7.8      0.000      0.000
REMARK  Name = 
REMARK  10 active torsions:
REMARK  status: ('A' for Active; 'I' for Inactive)
REMARK    1  A    between atoms: C_1  and  O_2
REMARK    2  A    between atoms: O_2  and  C_3
REMARK    3  A    between atoms: C_6  and  N_7
REMARK    4  A    between atoms: C_8  and  C_10
REMARK    5  A    between atoms: C_10  and  C_11
REMARK    6  A    between atoms: C_11  and  C_12
REMARK    7  A    between atoms: C_12  and  O_14
REMARK    8  A    between atoms: O_14  and  C_15
REMARK    9  A    between atoms: C_15  and  C_16
REMARK   10  A    between atoms: C_19  and  N_20
REMARK                            x       y       z     vdW  Elec       q    Type
REMARK                         _______ _______ _______ _____ _____    ______ ____
ROOT
ATOM      1  C   UNL     1       6.907   6.320  17.970  0.00  0.00    +0.000 C 
ENDROOT
BRANCH   1   2
ATOM      2  C   UNL     1       7.134   5.137  17.070  0.00  0.00    +0.000 C 
ATOM      3  O   UNL     1       8.054   4.340  17.177  0.00  0.00    +0.000 OA
BRANCH   2   4
ATOM      4  O   UNL     1       6.161   5.114  16.116  0.00  0.00    +0.000 OA
BRANCH   4   5
ATOM      5  C   UNL     1       4.995   5.905  16.371  0.00  0.00    +0.000 C 
BRANCH   5   6
ATOM      6  C   UNL     1       3.976   5.065  17.104  0.00  0.00    +0.000 A 
ATOM      7  C   UNL     1       3.035   5.664  17.957  0.00  0.00    +0.000 A 
ATOM      8  C   UNL     1       2.093   4.887  18.639  0.00  0.00    +0.000 A 
ATOM      9  C   UNL     1       2.093   3.497  18.467  0.00  0.00    +0.000 A 
ATOM     10  C   UNL     1       3.024   2.886  17.617  0.00  0.00    +0.000 A 
ATOM     11  C   UNL     1       3.961   3.672  16.942  0.00  0.00    +0.000 A 
BRANCH   9  12
ATOM     12  N   UNL     1       1.117   2.671  19.186  0.00  0.00    +0.000 N 
ATOM     13  O   UNL     1       0.184   2.179  18.533  0.00  0.00    +0.000 OA
ATOM     14  O   UNL     1       1.279   2.513  20.404  0.00  0.00    +0.000 OA
ENDBRANCH   9  12
ENDBRANCH   5   6
ENDBRANCH   4   5
ENDBRANCH   2   4
ENDBRANCH   1   2
BRANCH   1  15
ATOM     15  C   UNL     1       8.199   6.868  18.586  0.00  0.00    +0.000 C 
BRANCH  15  17
ATOM     16  N   UNL     1       9.101   9.057  19.178  0.00  0.00    +0.000 N 
ATOM     17  C   UNL     1       8.274   8.357  18.314  0.00  0.00    +0.000 C 
ATOM     18  O   UNL     1       7.634   8.844  17.388  0.00  0.00    +0.000 OA
ATOM     19  H   UNL     1       9.581   8.531  19.897  0.00  0.00    +0.000 HD
BRANCH  16  23
ATOM     20  C   UNL     1       9.825  13.237  19.146  0.00  0.00    +0.000 A 
ATOM     21  C   UNL     1       9.976  12.498  17.979  0.00  0.00    +0.000 A 
ATOM     22  C   UNL     1       9.729  11.125  17.974  0.00  0.00    +0.000 A 
ATOM     23  C   UNL     1       9.346  10.453  19.136  0.00  0.00    +0.000 A 
ATOM     24  C   UNL     1       9.208  11.200  20.313  0.00  0.00    +0.000 A 
ATOM     25  C   UNL     1       9.446  12.588  20.320  0.00  0.00    +0.000 A 
BRANCH  20  27
ATOM     26  C   UNL     1      10.856  14.933  17.861  0.00  0.00    +0.000 C 
ATOM     27  O   UNL     1      10.117  14.565  19.016  0.00  0.00    +0.000 OA
ENDBRANCH  20  27
ENDBRANCH  16  23
ENDBRANCH  15  17
ENDBRANCH   1  15
TORSDOF 9
ENDMDL
MODEL 2
REMARK VINA RESULT:      -7.7      1.435      1.543
REMARK  Name = 
REMARK  10 active torsions:
REMARK  status: ('A' for Active; 'I' for Inactive)
REMARK    1  A    between atoms: C_1  and  O_2
REMARK    2  A    between atoms: O_2  and  C_3
REMARK    3  A    between atoms: C_6  and  N_7
REMARK    4  A    between atoms: C_8  and  C_10
REMARK    5  A    between atoms: C_10  and  C_11
REMARK    6  A    between atoms: C_11  and  C_12
REMARK    7  A    between atoms: C_12  and  O_14
REMARK    8  A    between atoms: O_14  and  C_15
REMARK    9  A    between atoms: C_15  and  C_16
REMARK   10  A    between atoms: C_19  and  N_20
REMARK                            x       y       z     vdW  Elec       q    Type
REMARK                         _______ _______ _______ _____ _____    ______ ____
ROOT
ATOM      1  C   UNL     1       6.982   6.053  17.607  0.00  0.00    +0.000 C 
ENDROOT
BRANCH   1   2
ATOM      2  C   UNL     1       7.073   5.303  16.307  0.00  0.00    +0.000 C 
ATOM      3  O   UNL     1       7.642   5.704  15.304  0.00  0.00    +0.000 OA
BRANCH   2   4
ATOM      4  O   UNL     1       6.406   4.121  16.431  0.00  0.00    +0.000 OA
BRANCH   4   5
ATOM      5  C   UNL     1       5.071   4.080  15.916  0.00  0.00    +0.000 C 
BRANCH   5   6
ATOM      6  C   UNL     1       4.099   3.944  17.065  0.00  0.00    +0.000 A 
ATOM      7  C   UNL     1       3.425   5.067  17.569  0.00  0.00    +0.000 A 
ATOM      8  C   UNL     1       2.528   4.942  18.634  0.00  0.00    +0.000 A 
ATOM      9  C   UNL     1       2.303   3.681  19.201  0.00  0.00    +0.000 A 
ATOM     10  C   UNL     1       2.967   2.551  18.707  0.00  0.00    +0.000 A 
ATOM     11  C   UNL     1       3.863   2.688  17.643  0.00  0.00    +0.000 A 
BRANCH   9  12
ATOM     12  N   UNL     1       1.372   3.541  20.327  0.00  0.00    +0.000 N 
ATOM     13  O   UNL     1       0.590   4.477  20.550  0.00  0.00    +0.000 OA
ATOM     14  O   UNL     1       1.421   2.495  20.990  0.00  0.00    +0.000 OA
ENDBRANCH   9  12
ENDBRANCH   5   6
ENDBRANCH   4   5
ENDBRANCH   2   4
ENDBRANCH   1   2
BRANCH   1  15
ATOM     15  C   UNL     1       6.879   7.571  17.424  0.00  0.00    +0.000 C 
BRANCH  15  17
ATOM     16  N   UNL     1       8.199   9.575  17.866  0.00  0.00    +0.000 N 
ATOM     17  C   UNL     1       8.036   8.229  18.149  0.00  0.00    +0.000 C 
ATOM     18  O   UNL     1       8.733   7.571  18.913  0.00  0.00    +0.000 OA
ATOM     19  H   UNL     1       7.545  10.002  17.220  0.00  0.00    +0.000 HD
BRANCH  16  23
ATOM     20  C   UNL     1      11.159  12.080  19.588  0.00  0.00    +0.000 A 
ATOM     21  C   UNL     1      11.181  11.817  18.225  0.00  0.00    +0.000 A 
ATOM     22  C   UNL     1      10.206  11.005  17.644  0.00  0.00    +0.000 A 
ATOM     23  C   UNL     1       9.199  10.419  18.413  0.00  0.00    +0.000 A 
ATOM     24  C   UNL     1       9.188  10.676  19.790  0.00  0.00    +0.000 A 
ATOM     25  C   UNL     1      10.164  11.504  20.377  0.00  0.00    +0.000 A 
BRANCH  20  27
ATOM     26  C   UNL     1      12.234  14.183  19.483  0.00  0.00    +0.000 C 
ATOM     27  O   UNL     1      12.180  12.873  20.028  0.00  0.00    +0.000 OA
ENDBRANCH  20  27
ENDBRANCH  16  23
ENDBRANCH  15  17
ENDBRANCH   1  15
TORSDOF 9
ENDMDL
MODEL 3
REMARK VINA RESULT:      -7.7      4.159      7.322
REMARK  Name = 
REMARK  10 active torsions:
REMARK  status: ('A' for Active; 'I' for Inactive)
REMARK    1  A    between atoms: C_1  and  O_2
REMARK    2  A    between atoms: O_2  and  C_3
REMARK    3  A    between atoms: C_6  and  N_7
REMARK    4  A    between atoms: C_8  and  C_10
REMARK    5  A    between atoms: C_10  and  C_11
REMARK    6  A    between atoms: C_11  and  C_12
REMARK    7  A    between atoms: C_12  and  O_14
REMARK    8  A    between atoms: O_14  and  C_15
REMARK    9  A    between atoms: C_15  and  C_16
REMARK   10  A    between atoms: C_19  and  N_20
REMARK                            x       y       z     vdW  Elec       q    Type
REMARK                         _______ _______ _______ _____ _____    ______ ____
ROOT
ATOM      1  C   UNL     1       2.391   2.918  19.993  0.00  0.00    +0.000 C 
ENDROOT
BRANCH   1   2
ATOM      2  C   UNL     1       2.291   2.969  18.493  0.00  0.00    +0.000 C 
ATOM      3  O   UNL     1       1.253   3.095  17.864  0.00  0.00    +0.000 OA
BRANCH   2   4
ATOM      4  O   UNL     1       3.540   2.836  17.963  0.00  0.00    +0.000 OA
BRANCH   4   5
ATOM      5  C   UNL     1       3.815   3.585  16.774  0.00  0.00    +0.000 C 
BRANCH   5   6
ATOM      6  C   UNL     1       4.855   4.637  17.079  0.00  0.00    +0.000 A 
ATOM      7  C   UNL     1       4.651   5.975  16.704  0.00  0.00    +0.000 A 
ATOM      8  C   UNL     1       5.615   6.949  16.983  0.00  0.00    +0.000 A 
ATOM      9  C   UNL     1       6.795   6.581  17.643  0.00  0.00    +0.000 A 
ATOM     10  C   UNL     1       7.010   5.251  18.025  0.00  0.00    +0.000 A 
ATOM     11  C   UNL     1       6.041   4.286  17.739  0.00  0.00    +0.000 A 
BRANCH   9  12
ATOM     12  N   UNL     1       7.818   7.593  17.931  0.00  0.00    +0.000 N 
ATOM     13  O   UNL     1       7.885   8.576  17.178  0.00  0.00    +0.000 OA
ATOM     14  O   UNL     1       8.556   7.407  18.909  0.00  0.00    +0.000 OA
ENDBRANCH   9  12
ENDBRANCH   5   6
ENDBRANCH   4   5
ENDBRANCH   2   4
ENDBRANCH   1   2
BRANCH   1  15
ATOM     15  C   UNL     1       3.038   4.167  20.600  0.00  0.00    +0.000 C 
BRANCH  15  17
ATOM     16  N   UNL     1       2.735   6.467  19.845  0.00  0.00    +0.000 N 
ATOM     17  C   UNL     1       2.116   5.349  20.380  0.00  0.00    +0.000 C 
ATOM     18  O   UNL     1       0.928   5.262  20.670  0.00  0.00    +0.000 OA
ATOM     19  H   UNL     1       3.725   6.404  19.642  0.00  0.00    +0.000 HD
BRANCH  16  23
ATOM     20  C   UNL     1       0.812  10.159  19.027  0.00  0.00    +0.000 A 
ATOM     21  C   UNL     1       1.492   9.493  18.016  0.00  0.00    +0.000 A 
ATOM     22  C   UNL     1       2.119   8.272  18.269  0.00  0.00    +0.000 A 
ATOM     23  C   UNL     1       2.098   7.698  19.541  0.00  0.00    +0.000 A 
ATOM     24  C   UNL     1       1.422   8.379  20.561  0.00  0.00    +0.000 A 
ATOM     25  C   UNL     1       0.779   9.606  20.306  0.00  0.00    +0.000 A 
BRANCH  20  27
ATOM     26  C   UNL     1      -1.157  11.421  18.674  0.00  0.00    +0.000 C 
ATOM     27  O   UNL     1       0.261  11.351  18.648  0.00  0.00    +0.000 OA
ENDBRANCH  20  27
ENDBRANCH  16  23
ENDBRANCH  15  17
ENDBRANCH   1  15
TORSDOF 9
ENDMDL
MODEL 4
REMARK VINA RESULT:      -7.6      3.715      7.174
REMARK  Name = 
REMARK  10 active torsions:
REMARK  status: ('A' for Active; 'I' for Inactive)
REMARK    1  A    between atoms: C_1  and  O_2
REMARK    2  A    between atoms: O_2  and  C_3
REMARK    3  A    between atoms: C_6  and  N_7
REMARK    4  A    between atoms: C_8  and  C_10
REMARK    5  A    between atoms: C_10  and  C_11
REMARK    6  A    between atoms: C_11  and  C_12
REMARK    7  A    between atoms: C_12  and  O_14
REMARK    8  A    between atoms: O_14  and  C_15
REMARK    9  A    between atoms: C_15  and  C_16
REMARK   10  A    between atoms: C_19  and  N_20
REMARK                            x       y       z     vdW  Elec       q    Type
REMARK                         _______ _______ _______ _____ _____    ______ ____
ROOT
ATOM      1  C   UNL     1       1.324   2.432  19.154  0.00  0.00    +0.000 C 
ENDROOT
BRANCH   1   2
ATOM      2  C   UNL     1       1.207   3.170  20.460  0.00  0.00    +0.000 C 
ATOM      3  O   UNL     1       1.216   2.647  21.563  0.00  0.00    +0.000 OA
BRANCH   2   4
ATOM      4  O   UNL     1       1.075   4.502  20.204  0.00  0.00    +0.000 OA
BRANCH   4   5
ATOM      5  C   UNL     1       2.197   5.332  20.527  0.00  0.00    +0.000 C 
BRANCH   5   6
ATOM      6  C   UNL     1       1.862   6.768  20.201  0.00  0.00    +0.000 A 
ATOM      7  C   UNL     1       1.201   7.579  21.137  0.00  0.00    +0.000 A 
ATOM      8  C   UNL     1       0.888   8.908  20.835  0.00  0.00    +0.000 A 
ATOM      9  C   UNL     1       1.239   9.430  19.583  0.00  0.00    +0.000 A 
ATOM     10  C   UNL     1       1.900   8.634  18.641  0.00  0.00    +0.000 A 
ATOM     11  C   UNL     1       2.206   7.307  18.953  0.00  0.00    +0.000 A 
BRANCH   9  12
ATOM     12  N   UNL     1       0.905  10.821  19.251  0.00  0.00    +0.000 N 
ATOM     13  O   UNL     1       1.369  11.714  19.975  0.00  0.00    +0.000 OA
ATOM     14  O   UNL     1       0.178  11.022  18.268  0.00  0.00    +0.000 OA
ENDBRANCH   9  12
ENDBRANCH   5   6
ENDBRANCH   4   5
ENDBRANCH   2   4
ENDBRANCH   1   2
BRANCH   1  15
ATOM     15  C   UNL     1       2.592   1.578  19.053  0.00  0.00    +0.000 C 
BRANCH  15  17
ATOM     16  N   UNL     1       3.784   3.386  17.928  0.00  0.00    +0.000 N 
ATOM     17  C   UNL     1       3.795   2.498  18.991  0.00  0.00    +0.000 C 
ATOM     18  O   UNL     1       4.673   2.416  19.843  0.00  0.00    +0.000 OA
ATOM     19  H   UNL     1       2.991   3.356  17.299  0.00  0.00    +0.000 HD
BRANCH  16  23
ATOM     20  C   UNL     1       6.802   6.272  17.178  0.00  0.00    +0.000 A 
ATOM     21  C   UNL     1       6.114   5.697  16.117  0.00  0.00    +0.000 A 
ATOM     22  C   UNL     1       5.111   4.756  16.351  0.00  0.00    +0.000 A 
ATOM     23  C   UNL     1       4.785   4.351  17.647  0.00  0.00    +0.000 A 
ATOM     24  C   UNL     1       5.490   4.924  18.713  0.00  0.00    +0.000 A 
ATOM     25  C   UNL     1       6.496   5.882  18.481  0.00  0.00    +0.000 A 
BRANCH  20  27
ATOM     26  C   UNL     1       7.889   8.326  17.612  0.00  0.00    +0.000 C 
ATOM     27  O   UNL     1       7.770   7.163  16.808  0.00  0.00    +0.000 OA
ENDBRANCH  20  27
ENDBRANCH  16  23
ENDBRANCH  15  17
ENDBRANCH   1  15
TORSDOF 9
ENDMDL
MODEL 5
REMARK VINA RESULT:      -7.5      1.167      1.605
REMARK  Name = 
REMARK  10 active torsions:
REMARK  status: ('A' for Active; 'I' for Inactive)
REMARK    1  A    between atoms: C_1  and  O_2
REMARK    2  A    between atoms: O_2  and  C_3
REMARK    3  A    between atoms: C_6  and  N_7
REMARK    4  A    between atoms: C_8  and  C_10
REMARK    5  A    between atoms: C_10  and  C_11
REMARK    6  A    between atoms: C_11  and  C_12
REMARK    7  A    between atoms: C_12  and  O_14
REMARK    8  A    between atoms: O_14  and  C_15
REMARK    9  A    between atoms: C_15  and  C_16
REMARK   10  A    between atoms: C_19  and  N_20
REMARK                            x       y       z     vdW  Elec       q    Type
REMARK                         _______ _______ _______ _____ _____    ______ ____
ROOT
ATOM      1  C   UNL     1       7.084   6.989  17.368  0.00  0.00    +0.000 C 
ENDROOT
BRANCH   1   2
ATOM      2  C   UNL     1       7.033   5.515  17.072  0.00  0.00    +0.000 C 
ATOM      3  O   UNL     1       7.879   4.702  17.410  0.00  0.00    +0.000 OA
BRANCH   2   4
ATOM      4  O   UNL     1       5.904   5.247  16.357  0.00  0.00    +0.000 OA
BRANCH   4   5
ATOM      5  C   UNL     1       4.713   5.935  16.756  0.00  0.00    +0.000 C 
BRANCH   5   6
ATOM      6  C   UNL     1       4.045   5.168  17.873  0.00  0.00    +0.000 A 
ATOM      7  C   UNL     1       3.679   5.812  19.065  0.00  0.00    +0.000 A 
ATOM      8  C   UNL     1       3.064   5.101  20.100  0.00  0.00    +0.000 A 
ATOM      9  C   UNL     1       2.813   3.732  19.941  0.00  0.00    +0.000 A 
ATOM     10  C   UNL     1       3.171   3.077  18.756  0.00  0.00    +0.000 A 
ATOM     11  C   UNL     1       3.787   3.797  17.729  0.00  0.00    +0.000 A 
BRANCH   9  12
ATOM     12  N   UNL     1       2.178   2.974  21.025  0.00  0.00    +0.000 N 
ATOM     13  O   UNL     1       0.943   2.865  21.007  0.00  0.00    +0.000 OA
ATOM     14  O   UNL     1       2.912   2.486  21.897  0.00  0.00    +0.000 OA
ENDBRANCH   9  12
ENDBRANCH   5   6
ENDBRANCH   4   5
ENDBRANCH   2   4
ENDBRANCH   1   2
BRANCH   1  15
ATOM     15  C   UNL     1       8.165   7.364  18.387  0.00  0.00    +0.000 C 
BRANCH  15  17
ATOM     16  N   UNL     1       9.296   9.340  19.263  0.00  0.00    +0.000 N 
ATOM     17  C   UNL     1       8.346   8.869  18.372  0.00  0.00    +0.000 C 
ATOM     18  O   UNL     1       7.678   9.559  17.610  0.00  0.00    +0.000 OA
ATOM     19  H   UNL     1       9.786   8.660  19.832  0.00  0.00    +0.000 HD
BRANCH  16  23
ATOM     20  C   UNL     1      10.414  13.408  19.716  0.00  0.00    +0.000 A 
ATOM     21  C   UNL     1       9.614  12.798  20.674  0.00  0.00    +0.000 A 
ATOM     22  C   UNL     1       9.250  11.458  20.543  0.00  0.00    +0.000 A 
ATOM     23  C   UNL     1       9.657  10.700  19.443  0.00  0.00    +0.000 A 
ATOM     24  C   UNL     1      10.452  11.323  18.472  0.00  0.00    +0.000 A 
ATOM     25  C   UNL     1      10.831  12.672  18.607  0.00  0.00    +0.000 A 
BRANCH  20  27
ATOM     26  C   UNL     1       9.950  15.328  21.016  0.00  0.00    +0.000 C 
ATOM     27  O   UNL     1      10.679  14.726  19.956  0.00  0.00    +0.000 OA
ENDBRANCH  20  27
ENDBRANCH  16  23
ENDBRANCH  15  17
ENDBRANCH   1  15
TORSDOF 9
ENDMDL
MODEL 6
REMARK VINA RESULT:      -7.4      5.215      7.843
REMARK  Name = 
REMARK  10 active torsions:
REMARK  status: ('A' for Active; 'I' for Inactive)
REMARK    1  A    between atoms: C_1  and  O_2
REMARK    2  A    between atoms: O_2  and  C_3
REMARK    3  A    between atoms: C_6  and  N_7
REMARK    4  A    between atoms: C_8  and  C_10
REMARK    5  A    between atoms: C_10  and  C_11
REMARK    6  A    between atoms: C_11  and  C_12
REMARK    7  A    between atoms: C_12  and  O_14
REMARK    8  A    between atoms: O_14  and  C_15
REMARK    9  A    between atoms: C_15  and  C_16
REMARK   10  A    between atoms: C_19  and  N_20
REMARK                            x       y       z     vdW  Elec       q    Type
REMARK                         _______ _______ _______ _____ _____    ______ ____
ROOT
ATOM      1  C   UNL     1       1.556   2.048  20.010  0.00  0.00    +0.000 C 
ENDROOT
BRANCH   1   2
ATOM      2  C   UNL     1       1.413   2.987  21.176  0.00  0.00    +0.000 C 
ATOM      3  O   UNL     1       1.408   2.651  22.350  0.00  0.00    +0.000 OA
BRANCH   2   4
ATOM      4  O   UNL     1       1.274   4.258  20.705  0.00  0.00    +0.000 OA
BRANCH   4   5
ATOM      5  C   UNL     1       2.231   5.220  21.164  0.00  0.00    +0.000 C 
BRANCH   5   6
ATOM      6  C   UNL     1       2.015   6.523  20.431  0.00  0.00    +0.000 A 
ATOM      7  C   UNL     1       1.302   7.572  21.033  0.00  0.00    +0.000 A 
ATOM      8  C   UNL     1       1.098   8.778  20.354  0.00  0.00    +0.000 A 
ATOM      9  C   UNL     1       1.612   8.935  19.060  0.00  0.00    +0.000 A 
ATOM     10  C   UNL     1       2.328   7.898  18.449  0.00  0.00    +0.000 A 
ATOM     11  C   UNL     1       2.523   6.697  19.136  0.00  0.00    +0.000 A 
BRANCH   9  12
ATOM     12  N   UNL     1       1.396  10.192  18.334  0.00  0.00    +0.000 N 
ATOM     13  O   UNL     1       2.307  10.598  17.598  0.00  0.00    +0.000 OA
ATOM     14  O   UNL     1       0.315  10.776  18.500  0.00  0.00    +0.000 OA
ENDBRANCH   9  12
ENDBRANCH   5   6
ENDBRANCH   4   5
ENDBRANCH   2   4
ENDBRANCH   1   2
BRANCH   1  15
ATOM     15  C   UNL     1       0.806   2.517  18.760  0.00  0.00    +0.000 C 
BRANCH  15  17
ATOM     16  N   UNL     1       3.093   3.066  18.111  0.00  0.00    +0.000 N 
ATOM     17  C   UNL     1       1.750   3.337  17.904  0.00  0.00    +0.000 C 
ATOM     18  O   UNL     1       1.302   4.158  17.111  0.00  0.00    +0.000 OA
ATOM     19  H   UNL     1       3.329   2.355  18.792  0.00  0.00    +0.000 HD
BRANCH  16  23
ATOM     20  C   UNL     1       6.297   4.899  16.019  0.00  0.00    +0.000 A 
ATOM     21  C   UNL     1       6.104   5.170  17.368  0.00  0.00    +0.000 A 
ATOM     22  C   UNL     1       5.062   4.564  18.070  0.00  0.00    +0.000 A 
ATOM     23  C   UNL     1       4.175   3.690  17.438  0.00  0.00    +0.000 A 
ATOM     24  C   UNL     1       4.364   3.430  16.075  0.00  0.00    +0.000 A 
ATOM     25  C   UNL     1       5.422   4.031  15.366  0.00  0.00    +0.000 A 
BRANCH  20  27
ATOM     26  C   UNL     1       7.564   5.328  14.070  0.00  0.00    +0.000 C 
ATOM     27  O   UNL     1       7.341   5.572  15.451  0.00  0.00    +0.000 OA
ENDBRANCH  20  27
ENDBRANCH  16  23
ENDBRANCH  15  17
ENDBRANCH   1  15
TORSDOF 9
ENDMDL
MODEL 7
REMARK VINA RESULT:      -7.4      5.198      7.938
REMARK  Name = 
REMARK  10 active torsions:
REMARK  status: ('A' for Active; 'I' for Inactive)
REMARK    1  A    between atoms: C_1  and  O_2
REMARK    2  A    between atoms: O_2  and  C_3
REMARK    3  A    between atoms: C_6  and  N_7
REMARK    4  A    between atoms: C_8  and  C_10
REMARK    5  A    between atoms: C_10  and  C_11
REMARK    6  A    between atoms: C_11  and  C_12
REMARK    7  A    between atoms: C_12  and  O_14
REMARK    8  A    between atoms: O_14  and  C_15
REMARK    9  A    between atoms: C_15  and  C_16
REMARK   10  A    between atoms: C_19  and  N_20
REMARK                            x       y       z     vdW  Elec       q    Type
REMARK                         _______ _______ _______ _____ _____    ______ ____
ROOT
ATOM      1  C   UNL     1       1.708   5.325  20.789  0.00  0.00    +0.000 C 
ENDROOT
BRANCH   1   2
ATOM      2  C   UNL     1       1.702   3.927  20.234  0.00  0.00    +0.000 C 
ATOM      3  O   UNL     1       0.806   3.445  19.559  0.00  0.00    +0.000 OA
BRANCH   2   4
ATOM      4  O   UNL     1       2.845   3.293  20.622  0.00  0.00    +0.000 OA
BRANCH   4   5
ATOM      5  C   UNL     1       3.480   2.460  19.645  0.00  0.00    +0.000 C 
BRANCH   5   6
ATOM      6  C   UNL     1       4.282   3.325  18.702  0.00  0.00    +0.000 A 
ATOM      7  C   UNL     1       4.007   3.330  17.326  0.00  0.00    +0.000 A 
ATOM      8  C   UNL     1       4.752   4.128  16.451  0.00  0.00    +0.000 A 
ATOM      9  C   UNL     1       5.783   4.928  16.960  0.00  0.00    +0.000 A 
ATOM     10  C   UNL     1       6.067   4.936  18.331  0.00  0.00    +0.000 A 
ATOM     11  C   UNL     1       5.318   4.133  19.195  0.00  0.00    +0.000 A 
BRANCH   9  12
ATOM     12  N   UNL     1       6.578   5.762  16.050  0.00  0.00    +0.000 N 
ATOM     13  O   UNL     1       6.267   5.765  14.849  0.00  0.00    +0.000 OA
ATOM     14  O   UNL     1       7.515   6.413  16.533  0.00  0.00    +0.000 OA
ENDBRANCH   9  12
ENDBRANCH   5   6
ENDBRANCH   4   5
ENDBRANCH   2   4
ENDBRANCH   1   2
BRANCH   1  15
ATOM     15  C   UNL     1       2.456   6.325  19.902  0.00  0.00    +0.000 C 
BRANCH  15  17
ATOM     16  N   UNL     1       1.062   7.859  21.188  0.00  0.00    +0.000 N 
ATOM     17  C   UNL     1       1.783   7.678  20.020  0.00  0.00    +0.000 C 
ATOM     18  O   UNL     1       1.906   8.504  19.122  0.00  0.00    +0.000 OA
ATOM     19  H   UNL     1       1.048   7.098  21.855  0.00  0.00    +0.000 HD
BRANCH  16  23
ATOM     20  C   UNL     1      -1.088  11.386  22.159  0.00  0.00    +0.000 A 
ATOM     21  C   UNL     1      -0.785  10.464  23.152  0.00  0.00    +0.000 A 
ATOM     22  C   UNL     1      -0.068   9.306  22.848  0.00  0.00    +0.000 A 
ATOM     23  C   UNL     1       0.345   9.031  21.543  0.00  0.00    +0.000 A 
ATOM     24  C   UNL     1       0.026   9.958  20.542  0.00  0.00    +0.000 A 
ATOM     25  C   UNL     1      -0.688  11.132  20.847  0.00  0.00    +0.000 A 
BRANCH  20  27
ATOM     26  C   UNL     1      -1.058  13.605  22.977  0.00  0.00    +0.000 C 
ATOM     27  O   UNL     1      -1.809  12.464  22.589  0.00  0.00    +0.000 OA
ENDBRANCH  20  27
ENDBRANCH  16  23
ENDBRANCH  15  17
ENDBRANCH   1  15
TORSDOF 9
ENDMDL
MODEL 8
REMARK VINA RESULT:      -7.3      3.908      7.507
REMARK  Name = 
REMARK  10 active torsions:
REMARK  status: ('A' for Active; 'I' for Inactive)
REMARK    1  A    between atoms: C_1  and  O_2
REMARK    2  A    between atoms: O_2  and  C_3
REMARK    3  A    between atoms: C_6  and  N_7
REMARK    4  A    between atoms: C_8  and  C_10
REMARK    5  A    between atoms: C_10  and  C_11
REMARK    6  A    between atoms: C_11  and  C_12
REMARK    7  A    between atoms: C_12  and  O_14
REMARK    8  A    between atoms: O_14  and  C_15
REMARK    9  A    between atoms: C_15  and  C_16
REMARK   10  A    between atoms: C_19  and  N_20
REMARK                            x       y       z     vdW  Elec       q    Type
REMARK                         _______ _______ _______ _____ _____    ______ ____
ROOT
ATOM      1  C   UNL     1       3.053   2.398  19.947  0.00  0.00    +0.000 C 
ENDROOT
BRANCH   1   2
ATOM      2  C   UNL     1       4.520   2.179  20.194  0.00  0.00    +0.000 C 
ATOM      3  O   UNL     1       4.999   1.738  21.227  0.00  0.00    +0.000 OA
BRANCH   2   4
ATOM      4  O   UNL     1       5.217   2.566  19.089  0.00  0.00    +0.000 OA
BRANCH   4   5
ATOM      5  C   UNL     1       4.608   3.566  18.264  0.00  0.00    +0.000 C 
BRANCH   5   6
ATOM      6  C   UNL     1       5.521   4.766  18.179  0.00  0.00    +0.000 A 
ATOM      7  C   UNL     1       6.622   4.889  19.042  0.00  0.00    +0.000 A 
ATOM      8  C   UNL     1       7.466   6.002  18.967  0.00  0.00    +0.000 A 
ATOM      9  C   UNL     1       7.206   7.000  18.020  0.00  0.00    +0.000 A 
ATOM     10  C   UNL     1       6.114   6.889  17.151  0.00  0.00    +0.000 A 
ATOM     11  C   UNL     1       5.276   5.774  17.236  0.00  0.00    +0.000 A 
BRANCH   9  12
ATOM     12  N   UNL     1       8.080   8.177  17.939  0.00  0.00    +0.000 N 
ATOM     13  O   UNL     1       8.766   8.456  18.934  0.00  0.00    +0.000 OA
ATOM     14  O   UNL     1       8.081   8.825  16.882  0.00  0.00    +0.000 OA
ENDBRANCH   9  12
ENDBRANCH   5   6
ENDBRANCH   4   5
ENDBRANCH   2   4
ENDBRANCH   1   2
BRANCH   1  15
ATOM     15  C   UNL     1       2.347   3.120  21.099  0.00  0.00    +0.000 C 
BRANCH  15  17
ATOM     16  N   UNL     1       2.554   5.442  20.379  0.00  0.00    +0.000 N 
ATOM     17  C   UNL     1       1.690   4.374  20.559  0.00  0.00    +0.000 C 
ATOM     18  O   UNL     1       0.488   4.381  20.318  0.00  0.00    +0.000 OA
ATOM     19  H   UNL     1       3.530   5.300  20.609  0.00  0.00    +0.000 HD
BRANCH  16  23
ATOM     20  C   UNL     1       1.453   9.295  18.986  0.00  0.00    +0.000 A 
ATOM     21  C   UNL     1       2.074   8.399  18.126  0.00  0.00    +0.000 A 
ATOM     22  C   UNL     1       2.431   7.124  18.569  0.00  0.00    +0.000 A 
ATOM     23  C   UNL     1       2.194   6.722  19.884  0.00  0.00    +0.000 A 
ATOM     24  C   UNL     1       1.579   7.633  20.752  0.00  0.00    +0.000 A 
ATOM     25  C   UNL     1       1.208   8.916  20.306  0.00  0.00    +0.000 A 
BRANCH  20  27
ATOM     26  C   UNL     1       0.065  11.210  18.976  0.00  0.00    +0.000 C 
ATOM     27  O   UNL     1       1.175  10.512  18.431  0.00  0.00    +0.000 OA
ENDBRANCH  20  27
ENDBRANCH  16  23
ENDBRANCH  15  17
ENDBRANCH   1  15
TORSDOF 9
ENDMDL
MODEL 9
REMARK VINA RESULT:      -7.3      1.443      2.215
REMARK  Name = 
REMARK  10 active torsions:
REMARK  status: ('A' for Active; 'I' for Inactive)
REMARK    1  A    between atoms: C_1  and  O_2
REMARK    2  A    between atoms: O_2  and  C_3
REMARK    3  A    between atoms: C_6  and  N_7
REMARK    4  A    between atoms: C_8  and  C_10
REMARK    5  A    between atoms: C_10  and  C_11
REMARK    6  A    between atoms: C_11  and  C_12
REMARK    7  A    between atoms: C_12  and  O_14
REMARK    8  A    between atoms: O_14  and  C_15
REMARK    9  A    between atoms: C_15  and  C_16
REMARK   10  A    between atoms: C_19  and  N_20
REMARK                            x       y       z     vdW  Elec       q    Type
REMARK                         _______ _______ _______ _____ _____    ______ ____
ROOT
ATOM      1  C   UNL     1       7.480   8.619  17.710  0.00  0.00    +0.000 C 
ENDROOT
BRANCH   1   2
ATOM      2  C   UNL     1       7.126   7.270  17.148  0.00  0.00    +0.000 C 
ATOM      3  O   UNL     1       7.819   6.629  16.374  0.00  0.00    +0.000 OA
BRANCH   2   4
ATOM      4  O   UNL     1       5.907   6.896  17.631  0.00  0.00    +0.000 OA
BRANCH   4   5
ATOM      5  C   UNL     1       4.943   6.456  16.668  0.00  0.00    +0.000 C 
BRANCH   5   6
ATOM      6  C   UNL     1       3.918   5.584  17.355  0.00  0.00    +0.000 A 
ATOM      7  C   UNL     1       3.804   4.223  17.030  0.00  0.00    +0.000 A 
ATOM      8  C   UNL     1       2.852   3.416  17.662  0.00  0.00    +0.000 A 
ATOM      9  C   UNL     1       2.007   3.977  18.629  0.00  0.00    +0.000 A 
ATOM     10  C   UNL     1       2.112   5.332  18.964  0.00  0.00    +0.000 A 
ATOM     11  C   UNL     1       3.064   6.130  18.325  0.00  0.00    +0.000 A 
BRANCH   9  12
ATOM     12  N   UNL     1       0.998   3.141  19.291  0.00  0.00    +0.000 N 
ATOM     13  O   UNL     1       0.825   3.301  20.508  0.00  0.00    +0.000 OA
ATOM     14  O   UNL     1       0.379   2.323  18.596  0.00  0.00    +0.000 OA
ENDBRANCH   9  12
ENDBRANCH   5   6
ENDBRANCH   4   5
ENDBRANCH   2   4
ENDBRANCH   1   2
BRANCH   1  15
ATOM     15  C   UNL     1       8.749   8.604  18.568  0.00  0.00    +0.000 C 
BRANCH  15  17
ATOM     16  N   UNL     1       9.199  10.865  17.769  0.00  0.00    +0.000 N 
ATOM     17  C   UNL     1       9.146  10.034  18.876  0.00  0.00    +0.000 C 
ATOM     18  O   UNL     1       9.386  10.368  20.031  0.00  0.00    +0.000 OA
ATOM     19  H   UNL     1       8.968  10.464  16.868  0.00  0.00    +0.000 HD
BRANCH  16  23
ATOM     20  C   UNL     1      10.135  15.003  17.862  0.00  0.00    +0.000 A 
ATOM     21  C   UNL     1      11.089  14.085  17.441  0.00  0.00    +0.000 A 
ATOM     22  C   UNL     1      10.790  12.723  17.394  0.00  0.00    +0.000 A 
ATOM     23  C   UNL     1       9.539  12.243  17.786  0.00  0.00    +0.000 A 
ATOM     24  C   UNL     1       8.584  13.170  18.222  0.00  0.00    +0.000 A 
ATOM     25  C   UNL     1       8.879  14.546  18.260  0.00  0.00    +0.000 A 
BRANCH  20  27
ATOM     26  C   UNL     1      10.457  16.979  19.119  0.00  0.00    +0.000 C 
ATOM     27  O   UNL     1      10.565  16.299  17.877  0.00  0.00    +0.000 OA
ENDBRANCH  20  27
ENDBRANCH  16  23
ENDBRANCH  15  17
ENDBRANCH   1  15
TORSDOF 9
ENDMDL
