MODEL 1
REMARK VINA RESULT:      -8.1      0.000      0.000
REMARK  Name = 
REMARK  9 active torsions:
REMARK  status: ('A' for Active; 'I' for Inactive)
REMARK    1  A    between atoms: C_1  and  O_2
REMARK    2  A    between atoms: O_2  and  C_3
REMARK    3  A    between atoms: C_6  and  N_7
REMARK    4  A    between atoms: N_8  and  C_9
REMARK    5  A    between atoms: N_11  and  CA_12
REMARK    6  A    between atoms: CA_12  and  CB_13
REMARK    7  A    between atoms: CA_12  and  C_20
REMARK    8  A    between atoms: CB_13  and  CG_14
REMARK    9  A    between atoms: C_20  and  OXT_22
REMARK                            x       y       z     vdW  Elec       q    Type
REMARK                         _______ _______ _______ _____ _____    ______ ____
ROOT
ATOM      1  C   UNK A   0       7.830   7.770  17.923  0.00  0.00    +0.000 C 
ATOM      2  O   UNK A   0       8.263   7.026  18.800  0.00  0.00    +0.000 OA
ATOM      3  N   PHE A   1       6.824   7.378  17.087  0.00  0.00    +0.000 N 
ATOM      4  H   PHE A   1       6.531   8.036  16.371  0.00  0.00    +0.000 HD
ENDROOT
BRANCH   1   6
ATOM      5  N   UNK A   0       8.778   9.608  18.620  0.00  0.00    +0.000 NA
ATOM      6  N   UNK A   0       8.262   9.044  17.630  0.00  0.00    +0.000 NA
BRANCH   5  10
ATOM      7  C   UNK A   0      10.454  13.410  17.801  0.00  0.00    +0.000 A 
ATOM      8  C   UNK A   0       9.086  13.173  17.665  0.00  0.00    +0.000 A 
ATOM      9  C   UNK A   0       8.557  11.904  17.922  0.00  0.00    +0.000 A 
ATOM     10  C   UNK A   0       9.386  10.841  18.299  0.00  0.00    +0.000 A 
ATOM     11  C   UNK A   0      10.763  11.085  18.401  0.00  0.00    +0.000 A 
ATOM     12  C   UNK A   0      11.297  12.355  18.151  0.00  0.00    +0.000 A 
BRANCH   7  14
ATOM     13  C   UNK A   0       9.872  15.700  17.715  0.00  0.00    +0.000 C 
ATOM     14  O   UNK A   0      10.860  14.690  17.537  0.00  0.00    +0.000 OA
ENDBRANCH   7  14
ENDBRANCH   5  10
ENDBRANCH   1   6
BRANCH   3  15
ATOM     15  CA  PHE A   1       6.257   6.033  17.053  0.00  0.00    +0.000 C 
BRANCH  15  16
ATOM     16  C   PHE A   1       7.269   5.139  16.317  0.00  0.00    +0.000 C 
ATOM     17  O   PHE A   1       7.504   5.228  15.118  0.00  0.00    +0.000 OA
BRANCH  16  18
ATOM     18  OXT PHE A   1       7.941   4.268  17.107  0.00  0.00    +0.000 OA
ATOM     19  HXT PHE A   1       7.948   3.342  16.802  0.00  0.00    +0.000 HD
ENDBRANCH  16  18
ENDBRANCH  15  16
BRANCH  15  20
ATOM     20  CB  PHE A   1       4.840   5.957  16.447  0.00  0.00    +0.000 C 
BRANCH  20  21
ATOM     21  CG  PHE A   1       3.927   5.007  17.182  0.00  0.00    +0.000 A 
ATOM     22  CD1 PHE A   1       4.077   3.620  17.045  0.00  0.00    +0.000 A 
ATOM     23  CE1 PHE A   1       3.137   2.754  17.602  0.00  0.00    +0.000 A 
ATOM     24  CZ  PHE A   1       2.049   3.264  18.307  0.00  0.00    +0.000 A 
ATOM     25  CE2 PHE A   1       1.919   4.638  18.489  0.00  0.00    +0.000 A 
ATOM     26  CD2 PHE A   1       2.859   5.506  17.938  0.00  0.00    +0.000 A 
ENDBRANCH  20  21
ENDBRANCH  15  20
ENDBRANCH   3  15
TORSDOF 8
ENDMDL
MODEL 2
REMARK VINA RESULT:      -8.0      0.398      1.420
REMARK  Name = 
REMARK  9 active torsions:
REMARK  status: ('A' for Active; 'I' for Inactive)
REMARK    1  A    between atoms: C_1  and  O_2
REMARK    2  A    between atoms: O_2  and  C_3
REMARK    3  A    between atoms: C_6  and  N_7
REMARK    4  A    between atoms: N_8  and  C_9
REMARK    5  A    between atoms: N_11  and  CA_12
REMARK    6  A    between atoms: CA_12  and  CB_13
REMARK    7  A    between atoms: CA_12  and  C_20
REMARK    8  A    between atoms: CB_13  and  CG_14
REMARK    9  A    between atoms: C_20  and  OXT_22
REMARK                            x       y       z     vdW  Elec       q    Type
REMARK                         _______ _______ _______ _____ _____    ______ ____
ROOT
ATOM      1  C   UNK A   0       7.832   7.789  17.994  0.00  0.00    +0.000 C 
ATOM      2  O   UNK A   0       8.308   6.974  18.781  0.00  0.00    +0.000 OA
ATOM      3  N   PHE A   1       6.802   7.461  17.161  0.00  0.00    +0.000 N 
ATOM      4  H   PHE A   1       6.473   8.178  16.521  0.00  0.00    +0.000 HD
ENDROOT
BRANCH   1   6
ATOM      5  N   UNK A   0       8.792   9.565  18.823  0.00  0.00    +0.000 NA
ATOM      6  N   UNK A   0       8.234   9.094  17.809  0.00  0.00    +0.000 NA
BRANCH   5  10
ATOM      7  C   UNK A   0      10.716  13.264  18.079  0.00  0.00    +0.000 A 
ATOM      8  C   UNK A   0      11.295  12.294  18.897  0.00  0.00    +0.000 A 
ATOM      9  C   UNK A   0      10.632  11.087  19.144  0.00  0.00    +0.000 A 
ATOM     10  C   UNK A   0       9.369  10.834  18.598  0.00  0.00    +0.000 A 
ATOM     11  C   UNK A   0       8.785  11.830  17.802  0.00  0.00    +0.000 A 
ATOM     12  C   UNK A   0       9.446  13.037  17.546  0.00  0.00    +0.000 A 
BRANCH   7  14
ATOM     13  C   UNK A   0      10.726  15.622  17.910  0.00  0.00    +0.000 C 
ATOM     14  O   UNK A   0      11.457  14.399  17.894  0.00  0.00    +0.000 OA
ENDBRANCH   7  14
ENDBRANCH   5  10
ENDBRANCH   1   6
BRANCH   3  15
ATOM     15  CA  PHE A   1       6.254   6.115  17.019  0.00  0.00    +0.000 C 
BRANCH  15  16
ATOM     16  C   PHE A   1       7.269   5.303  16.197  0.00  0.00    +0.000 C 
ATOM     17  O   PHE A   1       7.458   5.470  14.998  0.00  0.00    +0.000 OA
BRANCH  16  18
ATOM     18  OXT PHE A   1       7.997   4.411  16.910  0.00  0.00    +0.000 OA
ATOM     19  HXT PHE A   1       8.113   3.536  16.497  0.00  0.00    +0.000 HD
ENDBRANCH  16  18
ENDBRANCH  15  16
BRANCH  15  20
ATOM     20  CB  PHE A   1       4.830   6.069  16.425  0.00  0.00    +0.000 C 
BRANCH  20  21
ATOM     21  CG  PHE A   1       3.930   5.070  17.110  0.00  0.00    +0.000 A 
ATOM     22  CD1 PHE A   1       2.834   5.498  17.870  0.00  0.00    +0.000 A 
ATOM     23  CE1 PHE A   1       2.101   4.581  18.623  0.00  0.00    +0.000 A 
ATOM     24  CZ  PHE A   1       2.450   3.232  18.615  0.00  0.00    +0.000 A 
ATOM     25  CE2 PHE A   1       3.508   2.792  17.824  0.00  0.00    +0.000 A 
ATOM     26  CD2 PHE A   1       4.239   3.704  17.066  0.00  0.00    +0.000 A 
ENDBRANCH  20  21
ENDBRANCH  15  20
ENDBRANCH   3  15
TORSDOF 8
ENDMDL
MODEL 3
REMARK VINA RESULT:      -7.9      0.221      1.009
REMARK  Name = 
REMARK  9 active torsions:
REMARK  status: ('A' for Active; 'I' for Inactive)
REMARK    1  A    between atoms: C_1  and  O_2
REMARK    2  A    between atoms: O_2  and  C_3
REMARK    3  A    between atoms: C_6  and  N_7
REMARK    4  A    between atoms: N_8  and  C_9
REMARK    5  A    between atoms: N_11  and  CA_12
REMARK    6  A    between atoms: CA_12  and  CB_13
REMARK    7  A    between atoms: CA_12  and  C_20
REMARK    8  A    between atoms: CB_13  and  CG_14
REMARK    9  A    between atoms: C_20  and  OXT_22
REMARK                            x       y       z     vdW  Elec       q    Type
REMARK                         _______ _______ _______ _____ _____    ______ ____
ROOT
ATOM      1  C   UNK A   0       7.792   7.870  17.878  0.00  0.00    +0.000 C 
ATOM      2  O   UNK A   0       8.257   7.106  18.720  0.00  0.00    +0.000 OA
ATOM      3  N   PHE A   1       6.776   7.487  17.050  0.00  0.00    +0.000 N 
ATOM      4  H   PHE A   1       6.454   8.162  16.363  0.00  0.00    +0.000 HD
ENDROOT
BRANCH   1   6
ATOM      5  N   UNK A   0       8.816   9.665  18.580  0.00  0.00    +0.000 NA
ATOM      6  N   UNK A   0       8.191   9.163  17.621  0.00  0.00    +0.000 NA
BRANCH   5  10
ATOM      7  C   UNK A   0      10.379  13.523  17.802  0.00  0.00    +0.000 A 
ATOM      8  C   UNK A   0       9.019  13.246  17.658  0.00  0.00    +0.000 A 
ATOM      9  C   UNK A   0       8.529  11.959  17.902  0.00  0.00    +0.000 A 
ATOM     10  C   UNK A   0       9.388  10.918  18.273  0.00  0.00    +0.000 A 
ATOM     11  C   UNK A   0      10.757  11.204  18.385  0.00  0.00    +0.000 A 
ATOM     12  C   UNK A   0      11.252  12.492  18.148  0.00  0.00    +0.000 A 
BRANCH   7  14
ATOM     13  C   UNK A   0       9.758  15.805  17.830  0.00  0.00    +0.000 C 
ATOM     14  O   UNK A   0      10.747  14.817  17.552  0.00  0.00    +0.000 OA
ENDBRANCH   7  14
ENDBRANCH   5  10
ENDBRANCH   1   6
BRANCH   3  15
ATOM     15  CA  PHE A   1       6.236   6.132  16.981  0.00  0.00    +0.000 C 
BRANCH  15  16
ATOM     16  C   PHE A   1       7.263   5.280  16.215  0.00  0.00    +0.000 C 
ATOM     17  O   PHE A   1       7.482   5.399  15.016  0.00  0.00    +0.000 OA
BRANCH  16  18
ATOM     18  OXT PHE A   1       7.964   4.409  16.980  0.00  0.00    +0.000 OA
ATOM     19  HXT PHE A   1       7.458   3.969  17.688  0.00  0.00    +0.000 HD
ENDBRANCH  16  18
ENDBRANCH  15  16
BRANCH  15  20
ATOM     20  CB  PHE A   1       4.818   6.044  16.377  0.00  0.00    +0.000 C 
BRANCH  20  21
ATOM     21  CG  PHE A   1       3.898   5.129  17.148  0.00  0.00    +0.000 A 
ATOM     22  CD1 PHE A   1       2.949   5.652  18.036  0.00  0.00    +0.000 A 
ATOM     23  CE1 PHE A   1       2.210   4.799  18.856  0.00  0.00    +0.000 A 
ATOM     24  CZ  PHE A   1       2.407   3.422  18.788  0.00  0.00    +0.000 A 
ATOM     25  CE2 PHE A   1       3.313   2.892  17.874  0.00  0.00    +0.000 A 
ATOM     26  CD2 PHE A   1       4.048   3.740  17.049  0.00  0.00    +0.000 A 
ENDBRANCH  20  21
ENDBRANCH  15  20
ENDBRANCH   3  15
TORSDOF 8
ENDMDL
MODEL 4
REMARK VINA RESULT:      -7.9      0.464      1.232
REMARK  Name = 
REMARK  9 active torsions:
REMARK  status: ('A' for Active; 'I' for Inactive)
REMARK    1  A    between atoms: C_1  and  O_2
REMARK    2  A    between atoms: O_2  and  C_3
REMARK    3  A    between atoms: C_6  and  N_7
REMARK    4  A    between atoms: N_8  and  C_9
REMARK    5  A    between atoms: N_11  and  CA_12
REMARK    6  A    between atoms: CA_12  and  CB_13
REMARK    7  A    between atoms: CA_12  and  C_20
REMARK    8  A    between atoms: CB_13  and  CG_14
REMARK    9  A    between atoms: C_20  and  OXT_22
REMARK                            x       y       z     vdW  Elec       q    Type
REMARK                         _______ _______ _______ _____ _____    ______ ____
ROOT
ATOM      1  C   UNK A   0       7.823   7.786  17.970  0.00  0.00    +0.000 C 
ATOM      2  O   UNK A   0       8.253   6.974  18.786  0.00  0.00    +0.000 OA
ATOM      3  N   PHE A   1       6.808   7.470  17.114  0.00  0.00    +0.000 N 
ATOM      4  H   PHE A   1       6.517   8.182  16.452  0.00  0.00    +0.000 HD
ENDROOT
BRANCH   1   6
ATOM      5  N   UNK A   0       8.749   9.575  18.812  0.00  0.00    +0.000 NA
ATOM      6  N   UNK A   0       8.266   9.075  17.773  0.00  0.00    +0.000 NA
BRANCH   5  10
ATOM      7  C   UNK A   0      10.797  13.207  18.076  0.00  0.00    +0.000 A 
ATOM      8  C   UNK A   0      11.346  12.214  18.886  0.00  0.00    +0.000 A 
ATOM      9  C   UNK A   0      10.643  11.030  19.131  0.00  0.00    +0.000 A 
ATOM     10  C   UNK A   0       9.369  10.823  18.590  0.00  0.00    +0.000 A 
ATOM     11  C   UNK A   0       8.815  11.844  17.802  0.00  0.00    +0.000 A 
ATOM     12  C   UNK A   0       9.518  13.028  17.548  0.00  0.00    +0.000 A 
BRANCH   7  14
ATOM     13  C   UNK A   0      10.874  15.524  17.611  0.00  0.00    +0.000 C 
ATOM     14  O   UNK A   0      11.576  14.317  17.893  0.00  0.00    +0.000 OA
ENDBRANCH   7  14
ENDBRANCH   5  10
ENDBRANCH   1   6
BRANCH   3  15
ATOM     15  CA  PHE A   1       6.227   6.136  16.982  0.00  0.00    +0.000 C 
BRANCH  15  16
ATOM     16  C   PHE A   1       7.185   5.316  16.101  0.00  0.00    +0.000 C 
ATOM     17  O   PHE A   1       7.974   4.491  16.545  0.00  0.00    +0.000 OA
BRANCH  16  18
ATOM     18  OXT PHE A   1       7.058   5.529  14.770  0.00  0.00    +0.000 OA
ATOM     19  HXT PHE A   1       6.316   6.103  14.504  0.00  0.00    +0.000 HD
ENDBRANCH  16  18
ENDBRANCH  15  16
BRANCH  15  20
ATOM     20  CB  PHE A   1       4.776   6.126  16.457  0.00  0.00    +0.000 C 
BRANCH  20  21
ATOM     21  CG  PHE A   1       3.871   5.193  17.224  0.00  0.00    +0.000 A 
ATOM     22  CD1 PHE A   1       3.845   3.822  16.933  0.00  0.00    +0.000 A 
ATOM     23  CE1 PHE A   1       2.899   2.994  17.537  0.00  0.00    +0.000 A 
ATOM     24  CZ  PHE A   1       1.982   3.525  18.441  0.00  0.00    +0.000 A 
ATOM     25  CE2 PHE A   1       2.032   4.877  18.772  0.00  0.00    +0.000 A 
ATOM     26  CD2 PHE A   1       2.979   5.706  18.175  0.00  0.00    +0.000 A 
ENDBRANCH  20  21
ENDBRANCH  15  20
ENDBRANCH   3  15
TORSDOF 8
ENDMDL
MODEL 5
REMARK VINA RESULT:      -7.6      1.127      1.723
REMARK  Name = 
REMARK  9 active torsions:
REMARK  status: ('A' for Active; 'I' for Inactive)
REMARK    1  A    between atoms: C_1  and  O_2
REMARK    2  A    between atoms: O_2  and  C_3
REMARK    3  A    between atoms: C_6  and  N_7
REMARK    4  A    between atoms: N_8  and  C_9
REMARK    5  A    between atoms: N_11  and  CA_12
REMARK    6  A    between atoms: CA_12  and  CB_13
REMARK    7  A    between atoms: CA_12  and  C_20
REMARK    8  A    between atoms: CB_13  and  CG_14
REMARK    9  A    between atoms: C_20  and  OXT_22
REMARK                            x       y       z     vdW  Elec       q    Type
REMARK                         _______ _______ _______ _____ _____    ______ ____
ROOT
ATOM      1  C   UNK A   0       7.576   7.459  17.767  0.00  0.00    +0.000 C 
ATOM      2  O   UNK A   0       8.050   6.649  18.560  0.00  0.00    +0.000 OA
ATOM      3  N   PHE A   1       6.608   7.101  16.873  0.00  0.00    +0.000 N 
ATOM      4  H   PHE A   1       6.277   7.816  16.233  0.00  0.00    +0.000 HD
ENDROOT
BRANCH   1   6
ATOM      5  N   UNK A   0       8.580   9.204  18.610  0.00  0.00    +0.000 NA
ATOM      6  N   UNK A   0       7.919   8.786  17.634  0.00  0.00    +0.000 NA
BRANCH   5  10
ATOM      7  C   UNK A   0      10.305  13.010  17.922  0.00  0.00    +0.000 A 
ATOM      8  C   UNK A   0      11.005  12.003  18.587  0.00  0.00    +0.000 A 
ATOM      9  C   UNK A   0      10.408  10.760  18.820  0.00  0.00    +0.000 A 
ATOM     10  C   UNK A   0       9.093  10.504  18.414  0.00  0.00    +0.000 A 
ATOM     11  C   UNK A   0       8.390  11.536  17.774  0.00  0.00    +0.000 A 
ATOM     12  C   UNK A   0       8.986  12.780  17.532  0.00  0.00    +0.000 A 
BRANCH   7  14
ATOM     13  C   UNK A   0      12.328  14.197  18.225  0.00  0.00    +0.000 C 
ATOM     14  O   UNK A   0      10.990  14.180  17.736  0.00  0.00    +0.000 OA
ENDBRANCH   7  14
ENDBRANCH   5  10
ENDBRANCH   1   6
BRANCH   3  15
ATOM     15  CA  PHE A   1       6.138   5.733  16.671  0.00  0.00    +0.000 C 
BRANCH  15  16
ATOM     16  C   PHE A   1       6.638   5.288  15.286  0.00  0.00    +0.000 C 
ATOM     17  O   PHE A   1       7.796   5.423  14.908  0.00  0.00    +0.000 OA
BRANCH  16  18
ATOM     18  OXT PHE A   1       5.710   4.671  14.517  0.00  0.00    +0.000 OA
ATOM     19  HXT PHE A   1       5.750   4.875  13.564  0.00  0.00    +0.000 HD
ENDBRANCH  16  18
ENDBRANCH  15  16
BRANCH  15  20
ATOM     20  CB  PHE A   1       4.615   5.554  16.843  0.00  0.00    +0.000 C 
BRANCH  20  21
ATOM     21  CG  PHE A   1       4.242   4.291  17.580  0.00  0.00    +0.000 A 
ATOM     22  CD1 PHE A   1       3.197   3.478  17.123  0.00  0.00    +0.000 A 
ATOM     23  CE1 PHE A   1       2.759   2.400  17.891  0.00  0.00    +0.000 A 
ATOM     24  CZ  PHE A   1       3.366   2.121  19.113  0.00  0.00    +0.000 A 
ATOM     25  CE2 PHE A   1       4.437   2.895  19.552  0.00  0.00    +0.000 A 
ATOM     26  CD2 PHE A   1       4.881   3.969  18.784  0.00  0.00    +0.000 A 
ENDBRANCH  20  21
ENDBRANCH  15  20
ENDBRANCH   3  15
TORSDOF 8
ENDMDL
MODEL 6
REMARK VINA RESULT:      -7.6      1.136      1.395
REMARK  Name = 
REMARK  9 active torsions:
REMARK  status: ('A' for Active; 'I' for Inactive)
REMARK    1  A    between atoms: C_1  and  O_2
REMARK    2  A    between atoms: O_2  and  C_3
REMARK    3  A    between atoms: C_6  and  N_7
REMARK    4  A    between atoms: N_8  and  C_9
REMARK    5  A    between atoms: N_11  and  CA_12
REMARK    6  A    between atoms: CA_12  and  CB_13
REMARK    7  A    between atoms: CA_12  and  C_20
REMARK    8  A    between atoms: CB_13  and  CG_14
REMARK    9  A    between atoms: C_20  and  OXT_22
REMARK                            x       y       z     vdW  Elec       q    Type
REMARK                         _______ _______ _______ _____ _____    ______ ____
ROOT
ATOM      1  C   UNK A   0       7.532   7.357  17.790  0.00  0.00    +0.000 C 
ATOM      2  O   UNK A   0       7.988   6.539  18.586  0.00  0.00    +0.000 OA
ATOM      3  N   PHE A   1       6.591   7.006  16.865  0.00  0.00    +0.000 N 
ATOM      4  H   PHE A   1       6.274   7.728  16.225  0.00  0.00    +0.000 HD
ENDROOT
BRANCH   1   6
ATOM      5  N   UNK A   0       8.592   9.070  18.631  0.00  0.00    +0.000 NA
ATOM      6  N   UNK A   0       7.873   8.687  17.683  0.00  0.00    +0.000 NA
BRANCH   5  10
ATOM      7  C   UNK A   0       9.911  13.066  18.156  0.00  0.00    +0.000 A 
ATOM      8  C   UNK A   0       8.738  12.611  17.554  0.00  0.00    +0.000 A 
ATOM      9  C   UNK A   0       8.332  11.281  17.709  0.00  0.00    +0.000 A 
ATOM     10  C   UNK A   0       9.099  10.375  18.449  0.00  0.00    +0.000 A 
ATOM     11  C   UNK A   0      10.293  10.838  19.023  0.00  0.00    +0.000 A 
ATOM     12  C   UNK A   0      10.700  12.170  18.876  0.00  0.00    +0.000 A 
BRANCH   7  14
ATOM     13  C   UNK A   0      11.369  14.870  18.614  0.00  0.00    +0.000 C 
ATOM     14  O   UNK A   0      10.205  14.387  17.950  0.00  0.00    +0.000 OA
ENDBRANCH   7  14
ENDBRANCH   5  10
ENDBRANCH   1   6
BRANCH   3  15
ATOM     15  CA  PHE A   1       6.133   5.639  16.634  0.00  0.00    +0.000 C 
BRANCH  15  16
ATOM     16  C   PHE A   1       6.654   5.221  15.249  0.00  0.00    +0.000 C 
ATOM     17  O   PHE A   1       7.798   5.427  14.864  0.00  0.00    +0.000 OA
BRANCH  16  18
ATOM     18  OXT PHE A   1       5.762   4.544  14.486  0.00  0.00    +0.000 OA
ATOM     19  HXT PHE A   1       6.066   3.680  14.150  0.00  0.00    +0.000 HD
ENDBRANCH  16  18
ENDBRANCH  15  16
BRANCH  15  20
ATOM     20  CB  PHE A   1       4.609   5.447  16.784  0.00  0.00    +0.000 C 
BRANCH  20  21
ATOM     21  CG  PHE A   1       4.237   4.198  17.545  0.00  0.00    +0.000 A 
ATOM     22  CD1 PHE A   1       3.239   3.339  17.066  0.00  0.00    +0.000 A 
ATOM     23  CE1 PHE A   1       2.794   2.274  17.848  0.00  0.00    +0.000 A 
ATOM     24  CZ  PHE A   1       3.349   2.054  19.107  0.00  0.00    +0.000 A 
ATOM     25  CE2 PHE A   1       4.374   2.874  19.570  0.00  0.00    +0.000 A 
ATOM     26  CD2 PHE A   1       4.825   3.935  18.789  0.00  0.00    +0.000 A 
ENDBRANCH  20  21
ENDBRANCH  15  20
ENDBRANCH   3  15
TORSDOF 8
ENDMDL
MODEL 7
REMARK VINA RESULT:      -7.4      1.407      1.616
REMARK  Name = 
REMARK  9 active torsions:
REMARK  status: ('A' for Active; 'I' for Inactive)
REMARK    1  A    between atoms: C_1  and  O_2
REMARK    2  A    between atoms: O_2  and  C_3
REMARK    3  A    between atoms: C_6  and  N_7
REMARK    4  A    between atoms: N_8  and  C_9
REMARK    5  A    between atoms: N_11  and  CA_12
REMARK    6  A    between atoms: CA_12  and  CB_13
REMARK    7  A    between atoms: CA_12  and  C_20
REMARK    8  A    between atoms: CB_13  and  CG_14
REMARK    9  A    between atoms: C_20  and  OXT_22
REMARK                            x       y       z     vdW  Elec       q    Type
REMARK                         _______ _______ _______ _____ _____    ______ ____
ROOT
ATOM      1  C   UNK A   0       7.441   6.800  17.530  0.00  0.00    +0.000 C 
ATOM      2  O   UNK A   0       7.785   5.962  18.361  0.00  0.00    +0.000 OA
ATOM      3  N   PHE A   1       6.727   6.453  16.420  0.00  0.00    +0.000 N 
ATOM      4  H   PHE A   1       6.494   7.194  15.765  0.00  0.00    +0.000 HD
ENDROOT
BRANCH   1   6
ATOM      5  N   UNK A   0       8.363   8.484  18.568  0.00  0.00    +0.000 NA
ATOM      6  N   UNK A   0       7.706   8.151  17.558  0.00  0.00    +0.000 NA
BRANCH   5  10
ATOM      7  C   UNK A   0       9.448  12.576  18.458  0.00  0.00    +0.000 A 
ATOM      8  C   UNK A   0       8.521  12.044  17.561  0.00  0.00    +0.000 A 
ATOM      9  C   UNK A   0       8.193  10.685  17.603  0.00  0.00    +0.000 A 
ATOM     10  C   UNK A   0       8.798   9.826  18.527  0.00  0.00    +0.000 A 
ATOM     11  C   UNK A   0       9.751  10.368  19.403  0.00  0.00    +0.000 A 
ATOM     12  C   UNK A   0      10.079  11.729  19.369  0.00  0.00    +0.000 A 
BRANCH   7  14
ATOM     13  C   UNK A   0       8.677  14.773  18.869  0.00  0.00    +0.000 C 
ATOM     14  O   UNK A   0       9.684  13.918  18.336  0.00  0.00    +0.000 OA
ENDBRANCH   7  14
ENDBRANCH   5  10
ENDBRANCH   1   6
BRANCH   3  15
ATOM     15  CA  PHE A   1       6.417   5.079  16.035  0.00  0.00    +0.000 C 
BRANCH  15  16
ATOM     16  C   PHE A   1       7.032   4.854  14.643  0.00  0.00    +0.000 C 
ATOM     17  O   PHE A   1       7.888   5.581  14.156  0.00  0.00    +0.000 OA
BRANCH  16  18
ATOM     18  OXT PHE A   1       6.597   3.743  14.002  0.00  0.00    +0.000 OA
ATOM     19  HXT PHE A   1       5.670   3.494  14.171  0.00  0.00    +0.000 HD
ENDBRANCH  16  18
ENDBRANCH  15  16
BRANCH  15  20
ATOM     20  CB  PHE A   1       4.914   4.729  16.089  0.00  0.00    +0.000 C 
BRANCH  20  21
ATOM     21  CG  PHE A   1       4.331   4.814  17.478  0.00  0.00    +0.000 A 
ATOM     22  CD1 PHE A   1       4.589   3.814  18.424  0.00  0.00    +0.000 A 
ATOM     23  CE1 PHE A   1       3.926   3.819  19.651  0.00  0.00    +0.000 A 
ATOM     24  CZ  PHE A   1       3.009   4.827  19.944  0.00  0.00    +0.000 A 
ATOM     25  CE2 PHE A   1       2.782   5.851  19.028  0.00  0.00    +0.000 A 
ATOM     26  CD2 PHE A   1       3.448   5.852  17.804  0.00  0.00    +0.000 A 
ENDBRANCH  20  21
ENDBRANCH  15  20
ENDBRANCH   3  15
TORSDOF 8
ENDMDL
MODEL 8
REMARK VINA RESULT:      -7.4      1.702      2.464
REMARK  Name = 
REMARK  9 active torsions:
REMARK  status: ('A' for Active; 'I' for Inactive)
REMARK    1  A    between atoms: C_1  and  O_2
REMARK    2  A    between atoms: O_2  and  C_3
REMARK    3  A    between atoms: C_6  and  N_7
REMARK    4  A    between atoms: N_8  and  C_9
REMARK    5  A    between atoms: N_11  and  CA_12
REMARK    6  A    between atoms: CA_12  and  CB_13
REMARK    7  A    between atoms: CA_12  and  C_20
REMARK    8  A    between atoms: CB_13  and  CG_14
REMARK    9  A    between atoms: C_20  and  OXT_22
REMARK                            x       y       z     vdW  Elec       q    Type
REMARK                         _______ _______ _______ _____ _____    ______ ____
ROOT
ATOM      1  C   UNK A   0       7.296   6.591  17.845  0.00  0.00    +0.000 C 
ATOM      2  O   UNK A   0       7.671   5.450  17.585  0.00  0.00    +0.000 OA
ATOM      3  N   PHE A   1       5.974   6.931  17.819  0.00  0.00    +0.000 N 
ATOM      4  H   PHE A   1       5.738   7.897  18.023  0.00  0.00    +0.000 HD
ENDROOT
BRANCH   1   6
ATOM      5  N   UNK A   0       7.683   8.731  17.654  0.00  0.00    +0.000 NA
ATOM      6  N   UNK A   0       8.088   7.669  18.174  0.00  0.00    +0.000 NA
BRANCH   5  10
ATOM      7  C   UNK A   0       9.939  12.034  19.042  0.00  0.00    +0.000 A 
ATOM      8  C   UNK A   0      10.010  10.790  19.668  0.00  0.00    +0.000 A 
ATOM      9  C   UNK A   0       9.241   9.718  19.204  0.00  0.00    +0.000 A 
ATOM     10  C   UNK A   0       8.370   9.872  18.120  0.00  0.00    +0.000 A 
ATOM     11  C   UNK A   0       8.285  11.137  17.519  0.00  0.00    +0.000 A 
ATOM     12  C   UNK A   0       9.058  12.212  17.975  0.00  0.00    +0.000 A 
BRANCH   7  14
ATOM     13  C   UNK A   0      12.134  12.697  19.623  0.00  0.00    +0.000 C 
ATOM     14  O   UNK A   0      10.744  13.007  19.569  0.00  0.00    +0.000 OA
ENDBRANCH   7  14
ENDBRANCH   5  10
ENDBRANCH   1   6
BRANCH   3  15
ATOM     15  CA  PHE A   1       4.904   6.046  17.367  0.00  0.00    +0.000 C 
BRANCH  15  16
ATOM     16  C   PHE A   1       5.160   5.760  15.877  0.00  0.00    +0.000 C 
ATOM     17  O   PHE A   1       5.276   4.632  15.414  0.00  0.00    +0.000 OA
BRANCH  16  18
ATOM     18  OXT PHE A   1       5.194   6.857  15.084  0.00  0.00    +0.000 OA
ATOM     19  HXT PHE A   1       5.419   7.694  15.531  0.00  0.00    +0.000 HD
ENDBRANCH  16  18
ENDBRANCH  15  16
BRANCH  15  20
ATOM     20  CB  PHE A   1       3.482   6.581  17.637  0.00  0.00    +0.000 C 
BRANCH  20  21
ATOM     21  CG  PHE A   1       2.619   5.616  18.412  0.00  0.00    +0.000 A 
ATOM     22  CD1 PHE A   1       2.482   5.736  19.801  0.00  0.00    +0.000 A 
ATOM     23  CE1 PHE A   1       1.811   4.753  20.528  0.00  0.00    +0.000 A 
ATOM     24  CZ  PHE A   1       1.264   3.651  19.872  0.00  0.00    +0.000 A 
ATOM     25  CE2 PHE A   1       1.354   3.550  18.487  0.00  0.00    +0.000 A 
ATOM     26  CD2 PHE A   1       2.019   4.533  17.757  0.00  0.00    +0.000 A 
ENDBRANCH  20  21
ENDBRANCH  15  20
ENDBRANCH   3  15
TORSDOF 8
ENDMDL
MODEL 9
REMARK VINA RESULT:      -7.4      5.311      7.085
REMARK  Name = 
REMARK  9 active torsions:
REMARK  status: ('A' for Active; 'I' for Inactive)
REMARK    1  A    between atoms: C_1  and  O_2
REMARK    2  A    between atoms: O_2  and  C_3
REMARK    3  A    between atoms: C_6  and  N_7
REMARK    4  A    between atoms: N_8  and  C_9
REMARK    5  A    between atoms: N_11  and  CA_12
REMARK    6  A    between atoms: CA_12  and  CB_13
REMARK    7  A    between atoms: CA_12  and  C_20
REMARK    8  A    between atoms: CB_13  and  CG_14
REMARK    9  A    between atoms: C_20  and  OXT_22
REMARK                            x       y       z     vdW  Elec       q    Type
REMARK                         _______ _______ _______ _____ _____    ______ ____
ROOT
ATOM      1  C   UNK A   0       3.905   5.222  17.771  0.00  0.00    +0.000 C 
ATOM      2  O   UNK A   0       3.585   4.122  17.324  0.00  0.00    +0.000 OA
ATOM      3  N   PHE A   1       5.158   5.731  17.583  0.00  0.00    +0.000 N 
ATOM      4  H   PHE A   1       5.359   6.636  17.998  0.00  0.00    +0.000 HD
ENDROOT
BRANCH   1   6
ATOM      5  N   UNK A   0       3.094   7.232  18.023  0.00  0.00    +0.000 NA
ATOM      6  N   UNK A   0       3.116   6.079  18.504  0.00  0.00    +0.000 NA
BRANCH   5  10
ATOM      7  C   UNK A   0       0.429   9.803  20.078  0.00  0.00    +0.000 A 
ATOM      8  C   UNK A   0       1.020   8.710  20.712  0.00  0.00    +0.000 A 
ATOM      9  C   UNK A   0       1.882   7.863  20.007  0.00  0.00    +0.000 A 
ATOM     10  C   UNK A   0       2.155   8.078  18.652  0.00  0.00    +0.000 A 
ATOM     11  C   UNK A   0       1.529   9.162  18.019  0.00  0.00    +0.000 A 
ATOM     12  C   UNK A   0       0.671  10.017  18.720  0.00  0.00    +0.000 A 
BRANCH   7  14
ATOM     13  C   UNK A   0      -0.119  11.971  20.846  0.00  0.00    +0.000 C 
ATOM     14  O   UNK A   0      -0.385  10.571  20.864  0.00  0.00    +0.000 OA
ENDBRANCH   7  14
ENDBRANCH   5  10
ENDBRANCH   1   6
BRANCH   3  15
ATOM     15  CA  PHE A   1       6.262   4.999  16.970  0.00  0.00    +0.000 C 
BRANCH  15  16
ATOM     16  C   PHE A   1       7.287   4.720  18.083  0.00  0.00    +0.000 C 
ATOM     17  O   PHE A   1       7.136   5.072  19.246  0.00  0.00    +0.000 OA
BRANCH  16  18
ATOM     18  OXT PHE A   1       8.364   3.996  17.697  0.00  0.00    +0.000 OA
ATOM     19  HXT PHE A   1       8.166   3.162  17.231  0.00  0.00    +0.000 HD
ENDBRANCH  16  18
ENDBRANCH  15  16
BRANCH  15  20
ATOM     20  CB  PHE A   1       6.886   5.701  15.745  0.00  0.00    +0.000 C 
BRANCH  20  21
ATOM     21  CG  PHE A   1       6.757   4.903  14.471  0.00  0.00    +0.000 A 
ATOM     22  CD1 PHE A   1       7.671   5.077  13.423  0.00  0.00    +0.000 A 
ATOM     23  CE1 PHE A   1       7.457   4.452  12.194  0.00  0.00    +0.000 A 
ATOM     24  CZ  PHE A   1       6.338   3.643  12.008  0.00  0.00    +0.000 A 
ATOM     25  CE2 PHE A   1       5.452   3.426  13.059  0.00  0.00    +0.000 A 
ATOM     26  CD2 PHE A   1       5.665   4.044  14.290  0.00  0.00    +0.000 A 
ENDBRANCH  20  21
ENDBRANCH  15  20
ENDBRANCH   3  15
TORSDOF 8
ENDMDL
