MODEL 1
REMARK VINA RESULT:      -8.8      0.000      0.000
REMARK  Name = 
REMARK  8 active torsions:
REMARK  status: ('A' for Active; 'I' for Inactive)
REMARK    1  A    between atoms: C_1  and  C_2
REMARK    2  A    between atoms: C_5  and  N_6
REMARK    3  A    between atoms: C_7  and  C_9
REMARK    4  A    between atoms: N_12  and  C_13
REMARK    5  A    between atoms: C_13  and  C_14
REMARK    6  A    between atoms: N_16  and  C_17
REMARK    7  A    between atoms: C_17  and  C_18
REMARK    8  A    between atoms: C_31  and  C_32
REMARK                            x       y       z     vdW  Elec       q    Type
REMARK                         _______ _______ _______ _____ _____    ______ ____
ROOT
ATOM      1  C   UNL     1       5.057   3.816  16.668  0.00  0.00    +0.000 C 
ENDROOT
BRANCH   1   5
ATOM      2  C   UNL     1       6.850   6.730  17.307  0.00  0.00    +0.000 A 
ATOM      3  N   UNL     1       6.194   7.198  16.179  0.00  0.00    +0.000 NA
ATOM      4  C   UNL     1       5.459   6.169  15.805  0.00  0.00    +0.000 A 
ATOM      5  N   UNL     1       5.664   5.127  16.655  0.00  0.00    +0.000 N 
ATOM      6  N   UNL     1       6.537   5.456  17.615  0.00  0.00    +0.000 NA
BRANCH   2   8
ATOM      7  N   UNL     1       7.906   8.860  17.773  0.00  0.00    +0.000 N 
ATOM      8  C   UNL     1       7.812   7.511  18.113  0.00  0.00    +0.000 C 
ATOM      9  O   UNL     1       8.463   6.963  19.002  0.00  0.00    +0.000 OA
ATOM     10  H   UNL     1       7.279   9.168  17.033  0.00  0.00    +0.000 HD
BRANCH   7  15
ATOM     11  C   UNL     1      11.407  12.787  20.115  0.00  0.00    +0.000 C 
ATOM     12  C   UNL     1      10.516  11.763  19.469  0.00  0.00    +0.000 A 
ATOM     13  C   UNL     1       9.848  10.849  20.283  0.00  0.00    +0.000 A 
ATOM     14  C   UNL     1       8.995   9.890  19.735  0.00  0.00    +0.000 A 
ATOM     15  C   UNL     1       8.775   9.814  18.359  0.00  0.00    +0.000 A 
ATOM     16  C   UNL     1       9.454  10.722  17.533  0.00  0.00    +0.000 A 
ATOM     17  C   UNL     1      10.327  11.696  18.074  0.00  0.00    +0.000 A 
ATOM     18  C   UNL     1      11.050  12.651  17.163  0.00  0.00    +0.000 C 
ENDBRANCH   7  15
ENDBRANCH   2   8
ENDBRANCH   1   5
BRANCH   1  19
ATOM     19  C   UNL     1       3.808   3.805  17.511  0.00  0.00    +0.000 C 
ATOM     20  O   UNL     1       2.771   3.283  17.111  0.00  0.00    +0.000 OA
ATOM     21  N   UNL     1       3.926   4.392  18.752  0.00  0.00    +0.000 N 
ATOM     22  H   UNL     1       4.801   4.822  19.034  0.00  0.00    +0.000 HD
BRANCH  21  23
ATOM     23  C   UNL     1       2.818   4.455  19.678  0.00  0.00    +0.000 C 
BRANCH  23  24
ATOM     24  C   UNL     1       2.303   5.862  19.835  0.00  0.00    +0.000 A 
ATOM     25  C   UNL     1       1.587   6.239  20.975  0.00  0.00    +0.000 A 
ATOM     26  C   UNL     1       1.075   7.535  21.089  0.00  0.00    +0.000 A 
ATOM     27  C   UNL     1       1.280   8.498  20.077  0.00  0.00    +0.000 A 
ATOM     28  C   UNL     1       0.776   9.818  20.120  0.00  0.00    +0.000 A 
ATOM     29  N   UNL     1      -0.042  10.261  21.164  0.00  0.00    +0.000 N 
ATOM     30  N   UNL     1       0.987  10.728  19.150  0.00  0.00    +0.000 NA
ATOM     31  C   UNL     1       1.715  10.339  18.084  0.00  0.00    +0.000 A 
ATOM     32  C   UNL     1       2.246   9.070  17.933  0.00  0.00    +0.000 A 
ATOM     33  C   UNL     1       2.030   8.129  18.941  0.00  0.00    +0.000 A 
ATOM     34  C   UNL     1       2.531   6.819  18.833  0.00  0.00    +0.000 A 
ATOM     35  H   UNL     1       0.384  10.106  22.068  0.00  0.00    +0.000 HD
ATOM     36  H   UNL     1      -0.222  11.246  20.988  0.00  0.00    +0.000 HD
ENDBRANCH  23  24
ENDBRANCH  21  23
ENDBRANCH   1  19
TORSDOF 6
ENDMDL
MODEL 2
REMARK VINA RESULT:      -8.5      2.659      8.736
REMARK  Name = 
REMARK  8 active torsions:
REMARK  status: ('A' for Active; 'I' for Inactive)
REMARK    1  A    between atoms: C_1  and  C_2
REMARK    2  A    between atoms: C_5  and  N_6
REMARK    3  A    between atoms: C_7  and  C_9
REMARK    4  A    between atoms: N_12  and  C_13
REMARK    5  A    between atoms: C_13  and  C_14
REMARK    6  A    between atoms: N_16  and  C_17
REMARK    7  A    between atoms: C_17  and  C_18
REMARK    8  A    between atoms: C_31  and  C_32
REMARK                            x       y       z     vdW  Elec       q    Type
REMARK                         _______ _______ _______ _____ _____    ______ ____
ROOT
ATOM      1  C   UNL     1       6.905   6.816  16.697  0.00  0.00    +0.000 C 
ENDROOT
BRANCH   1   5
ATOM      2  C   UNL     1       3.628   6.945  17.862  0.00  0.00    +0.000 A 
ATOM      3  N   UNL     1       3.595   5.620  17.456  0.00  0.00    +0.000 NA
ATOM      4  C   UNL     1       4.804   5.420  16.969  0.00  0.00    +0.000 A 
ATOM      5  N   UNL     1       5.531   6.565  17.064  0.00  0.00    +0.000 N 
ATOM      6  N   UNL     1       4.813   7.544  17.627  0.00  0.00    +0.000 NA
BRANCH   2   8
ATOM      7  N   UNL     1       2.051   8.782  17.768  0.00  0.00    +0.000 N 
ATOM      8  C   UNL     1       2.499   7.670  18.481  0.00  0.00    +0.000 C 
ATOM      9  O   UNL     1       2.029   7.285  19.552  0.00  0.00    +0.000 OA
ATOM     10  H   UNL     1       2.524   8.952  16.885  0.00  0.00    +0.000 HD
BRANCH   7  15
ATOM     11  C   UNL     1      -2.199  12.321  19.371  0.00  0.00    +0.000 C 
ATOM     12  C   UNL     1      -1.111  11.387  18.919  0.00  0.00    +0.000 A 
ATOM     13  C   UNL     1       0.198  11.640  19.326  0.00  0.00    +0.000 A 
ATOM     14  C   UNL     1       1.242  10.794  18.949  0.00  0.00    +0.000 A 
ATOM     15  C   UNL     1       1.014   9.666  18.159  0.00  0.00    +0.000 A 
ATOM     16  C   UNL     1      -0.298   9.415  17.734  0.00  0.00    +0.000 A 
ATOM     17  C   UNL     1      -1.367  10.267  18.104  0.00  0.00    +0.000 A 
ATOM     18  C   UNL     1      -2.764   9.978  17.625  0.00  0.00    +0.000 C 
ENDBRANCH   7  15
ENDBRANCH   2   8
ENDBRANCH   1   5
BRANCH   1  19
ATOM     19  C   UNL     1       7.716   7.248  17.892  0.00  0.00    +0.000 C 
ATOM     20  O   UNL     1       8.018   6.456  18.781  0.00  0.00    +0.000 OA
ATOM     21  N   UNL     1       8.106   8.570  17.896  0.00  0.00    +0.000 N 
ATOM     22  H   UNL     1       7.823   9.190  17.145  0.00  0.00    +0.000 HD
BRANCH  21  23
ATOM     23  C   UNL     1       8.893   9.133  18.971  0.00  0.00    +0.000 C 
BRANCH  23  24
ATOM     24  C   UNL     1       9.239  10.575  18.710  0.00  0.00    +0.000 A 
ATOM     25  C   UNL     1       8.449  11.359  17.865  0.00  0.00    +0.000 A 
ATOM     26  C   UNL     1       8.804  12.683  17.594  0.00  0.00    +0.000 A 
ATOM     27  C   UNL     1       9.949  13.271  18.176  0.00  0.00    +0.000 A 
ATOM     28  C   UNL     1      10.377  14.595  17.932  0.00  0.00    +0.000 A 
ATOM     29  N   UNL     1       9.719  15.426  17.020  0.00  0.00    +0.000 N 
ATOM     30  N   UNL     1      11.468  15.144  18.501  0.00  0.00    +0.000 NA
ATOM     31  C   UNL     1      12.182  14.369  19.342  0.00  0.00    +0.000 A 
ATOM     32  C   UNL     1      11.864  13.057  19.643  0.00  0.00    +0.000 A 
ATOM     33  C   UNL     1      10.730  12.491  19.055  0.00  0.00    +0.000 A 
ATOM     34  C   UNL     1      10.367  11.156  19.311  0.00  0.00    +0.000 A 
ATOM     35  H   UNL     1       8.729  15.495  17.220  0.00  0.00    +0.000 HD
ATOM     36  H   UNL     1      10.183  16.329  17.069  0.00  0.00    +0.000 HD
ENDBRANCH  23  24
ENDBRANCH  21  23
ENDBRANCH   1  19
TORSDOF 6
ENDMDL
MODEL 3
REMARK VINA RESULT:      -8.4      1.458      2.526
REMARK  Name = 
REMARK  8 active torsions:
REMARK  status: ('A' for Active; 'I' for Inactive)
REMARK    1  A    between atoms: C_1  and  C_2
REMARK    2  A    between atoms: C_5  and  N_6
REMARK    3  A    between atoms: C_7  and  C_9
REMARK    4  A    between atoms: N_12  and  C_13
REMARK    5  A    between atoms: C_13  and  C_14
REMARK    6  A    between atoms: N_16  and  C_17
REMARK    7  A    between atoms: C_17  and  C_18
REMARK    8  A    between atoms: C_31  and  C_32
REMARK                            x       y       z     vdW  Elec       q    Type
REMARK                         _______ _______ _______ _____ _____    ______ ____
ROOT
ATOM      1  C   UNL     1       5.050   4.307  17.724  0.00  0.00    +0.000 C 
ENDROOT
BRANCH   1   5
ATOM      2  C   UNL     1       7.410   6.829  18.155  0.00  0.00    +0.000 A 
ATOM      3  N   UNL     1       8.158   5.817  18.738  0.00  0.00    +0.000 NA
ATOM      4  C   UNL     1       7.366   4.766  18.655  0.00  0.00    +0.000 A 
ATOM      5  N   UNL     1       6.196   5.121  18.060  0.00  0.00    +0.000 N 
ATOM      6  N   UNL     1       6.197   6.418  17.733  0.00  0.00    +0.000 NA
BRANCH   2   8
ATOM      7  N   UNL     1       8.718   8.686  18.998  0.00  0.00    +0.000 N 
ATOM      8  C   UNL     1       7.853   8.231  18.003  0.00  0.00    +0.000 C 
ATOM      9  O   UNL     1       7.454   8.906  17.055  0.00  0.00    +0.000 OA
ATOM     10  H   UNL     1       8.978   7.995  19.699  0.00  0.00    +0.000 HD
BRANCH   7  15
ATOM     11  C   UNL     1      10.936  13.975  19.506  0.00  0.00    +0.000 C 
ATOM     12  C   UNL     1      10.331  12.603  19.404  0.00  0.00    +0.000 A 
ATOM     13  C   UNL     1      10.366  11.947  18.174  0.00  0.00    +0.000 A 
ATOM     14  C   UNL     1       9.834  10.665  18.031  0.00  0.00    +0.000 A 
ATOM     15  C   UNL     1       9.256   9.992  19.108  0.00  0.00    +0.000 A 
ATOM     16  C   UNL     1       9.205  10.652  20.345  0.00  0.00    +0.000 A 
ATOM     17  C   UNL     1       9.735  11.956  20.504  0.00  0.00    +0.000 A 
ATOM     18  C   UNL     1       9.657  12.644  21.841  0.00  0.00    +0.000 C 
ENDBRANCH   7  15
ENDBRANCH   2   8
ENDBRANCH   1   5
BRANCH   1  19
ATOM     19  C   UNL     1       3.944   4.483  18.732  0.00  0.00    +0.000 C 
ATOM     20  O   UNL     1       3.405   3.517  19.266  0.00  0.00    +0.000 OA
ATOM     21  N   UNL     1       3.609   5.788  19.021  0.00  0.00    +0.000 N 
ATOM     22  H   UNL     1       4.075   6.554  18.546  0.00  0.00    +0.000 HD
BRANCH  21  23
ATOM     23  C   UNL     1       2.572   6.120  19.972  0.00  0.00    +0.000 C 
BRANCH  23  24
ATOM     24  C   UNL     1       2.029   7.505  19.741  0.00  0.00    +0.000 A 
ATOM     25  C   UNL     1       2.134   8.116  18.489  0.00  0.00    +0.000 A 
ATOM     26  C   UNL     1       1.667   9.420  18.298  0.00  0.00    +0.000 A 
ATOM     27  C   UNL     1       1.063  10.145  19.349  0.00  0.00    +0.000 A 
ATOM     28  C   UNL     1       0.588  11.471  19.232  0.00  0.00    +0.000 A 
ATOM     29  N   UNL     1       0.742  12.208  18.053  0.00  0.00    +0.000 N 
ATOM     30  N   UNL     1       0.007  12.147  20.241  0.00  0.00    +0.000 NA
ATOM     31  C   UNL     1      -0.112  11.510  21.424  0.00  0.00    +0.000 A 
ATOM     32  C   UNL     1       0.329  10.220  21.655  0.00  0.00    +0.000 A 
ATOM     33  C   UNL     1       0.928   9.519  20.605  0.00  0.00    +0.000 A 
ATOM     34  C   UNL     1       1.410   8.210  20.787  0.00  0.00    +0.000 A 
ATOM     35  H   UNL     1       0.372  11.716  17.250  0.00  0.00    +0.000 HD
ATOM     36  H   UNL     1       0.274  13.097  18.208  0.00  0.00    +0.000 HD
ENDBRANCH  23  24
ENDBRANCH  21  23
ENDBRANCH   1  19
TORSDOF 6
ENDMDL
MODEL 4
REMARK VINA RESULT:      -8.4      1.352      2.111
REMARK  Name = 
REMARK  8 active torsions:
REMARK  status: ('A' for Active; 'I' for Inactive)
REMARK    1  A    between atoms: C_1  and  C_2
REMARK    2  A    between atoms: C_5  and  N_6
REMARK    3  A    between atoms: C_7  and  C_9
REMARK    4  A    between atoms: N_12  and  C_13
REMARK    5  A    between atoms: C_13  and  C_14
REMARK    6  A    between atoms: N_16  and  C_17
REMARK    7  A    between atoms: C_17  and  C_18
REMARK    8  A    between atoms: C_31  and  C_32
REMARK                            x       y       z     vdW  Elec       q    Type
REMARK                         _______ _______ _______ _____ _____    ______ ____
ROOT
ATOM      1  C   UNL     1       5.750   4.300  18.898  0.00  0.00    +0.000 C 
ENDROOT
BRANCH   1   5
ATOM      2  C   UNL     1       7.426   7.069  17.617  0.00  0.00    +0.000 A 
ATOM      3  N   UNL     1       7.657   6.235  16.534  0.00  0.00    +0.000 NA
ATOM      4  C   UNL     1       7.071   5.108  16.886  0.00  0.00    +0.000 A 
ATOM      5  N   UNL     1       6.520   5.246  18.122  0.00  0.00    +0.000 N 
ATOM      6  N   UNL     1       6.728   6.476  18.606  0.00  0.00    +0.000 NA
BRANCH   2   8
ATOM      7  N   UNL     1       8.756   8.722  18.788  0.00  0.00    +0.000 N 
ATOM      8  C   UNL     1       7.891   8.468  17.724  0.00  0.00    +0.000 C 
ATOM      9  O   UNL     1       7.509   9.311  16.912  0.00  0.00    +0.000 OA
ATOM     10  H   UNL     1       9.001   7.912  19.353  0.00  0.00    +0.000 HD
BRANCH   7  15
ATOM     11  C   UNL     1      10.991  13.853  20.140  0.00  0.00    +0.000 C 
ATOM     12  C   UNL     1      10.437  12.509  19.758  0.00  0.00    +0.000 A 
ATOM     13  C   UNL     1       9.750  11.771  20.722  0.00  0.00    +0.000 A 
ATOM     14  C   UNL     1       9.201  10.526  20.413  0.00  0.00    +0.000 A 
ATOM     15  C   UNL     1       9.313   9.978  19.135  0.00  0.00    +0.000 A 
ATOM     16  C   UNL     1      10.015  10.708  18.166  0.00  0.00    +0.000 A 
ATOM     17  C   UNL     1      10.582  11.971  18.465  0.00  0.00    +0.000 A 
ATOM     18  C   UNL     1      11.339  12.728  17.407  0.00  0.00    +0.000 C 
ENDBRANCH   7  15
ENDBRANCH   2   8
ENDBRANCH   1   5
BRANCH   1  19
ATOM     19  C   UNL     1       4.276   4.438  18.614  0.00  0.00    +0.000 C 
ATOM     20  O   UNL     1       3.518   3.474  18.690  0.00  0.00    +0.000 OA
ATOM     21  N   UNL     1       3.851   5.709  18.295  0.00  0.00    +0.000 N 
ATOM     22  H   UNL     1       4.517   6.472  18.234  0.00  0.00    +0.000 HD
BRANCH  21  23
ATOM     23  C   UNL     1       2.466   6.002  18.003  0.00  0.00    +0.000 C 
BRANCH  23  24
ATOM     24  C   UNL     1       2.039   7.320  18.594  0.00  0.00    +0.000 A 
ATOM     25  C   UNL     1       2.016   8.480  17.815  0.00  0.00    +0.000 A 
ATOM     26  C   UNL     1       1.662   9.706  18.386  0.00  0.00    +0.000 A 
ATOM     27  C   UNL     1       1.302   9.806  19.748  0.00  0.00    +0.000 A 
ATOM     28  C   UNL     1       0.952  11.014  20.393  0.00  0.00    +0.000 A 
ATOM     29  N   UNL     1       1.002  12.245  19.731  0.00  0.00    +0.000 N 
ATOM     30  N   UNL     1       0.603  11.092  21.691  0.00  0.00    +0.000 NA
ATOM     31  C   UNL     1       0.599   9.945  22.401  0.00  0.00    +0.000 A 
ATOM     32  C   UNL     1       0.935   8.711  21.875  0.00  0.00    +0.000 A 
ATOM     33  C   UNL     1       1.294   8.631  20.528  0.00  0.00    +0.000 A 
ATOM     34  C   UNL     1       1.661   7.405  19.944  0.00  0.00    +0.000 A 
ATOM     35  H   UNL     1       0.467  12.232  18.872  0.00  0.00    +0.000 HD
ATOM     36  H   UNL     1       0.656  12.938  20.389  0.00  0.00    +0.000 HD
ENDBRANCH  23  24
ENDBRANCH  21  23
ENDBRANCH   1  19
TORSDOF 6
ENDMDL
MODEL 5
REMARK VINA RESULT:      -8.4      1.373      1.665
REMARK  Name = 
REMARK  8 active torsions:
REMARK  status: ('A' for Active; 'I' for Inactive)
REMARK    1  A    between atoms: C_1  and  C_2
REMARK    2  A    between atoms: C_5  and  N_6
REMARK    3  A    between atoms: C_7  and  C_9
REMARK    4  A    between atoms: N_12  and  C_13
REMARK    5  A    between atoms: C_13  and  C_14
REMARK    6  A    between atoms: N_16  and  C_17
REMARK    7  A    between atoms: C_17  and  C_18
REMARK    8  A    between atoms: C_31  and  C_32
REMARK                            x       y       z     vdW  Elec       q    Type
REMARK                         _______ _______ _______ _____ _____    ______ ____
ROOT
ATOM      1  C   UNL     1       6.087   4.779  16.356  0.00  0.00    +0.000 C 
ENDROOT
BRANCH   1   5
ATOM      2  C   UNL     1       7.732   7.449  17.865  0.00  0.00    +0.000 A 
ATOM      3  N   UNL     1       8.160   6.480  18.759  0.00  0.00    +0.000 NA
ATOM      4  C   UNL     1       7.593   5.378  18.310  0.00  0.00    +0.000 A 
ATOM      5  N   UNL     1       6.851   5.664  17.206  0.00  0.00    +0.000 N 
ATOM      6  N   UNL     1       6.923   6.965  16.902  0.00  0.00    +0.000 NA
BRANCH   2   8
ATOM      7  N   UNL     1       8.977   9.220  18.954  0.00  0.00    +0.000 N 
ATOM      8  C   UNL     1       8.090   8.882  17.932  0.00  0.00    +0.000 C 
ATOM      9  O   UNL     1       7.609   9.678  17.127  0.00  0.00    +0.000 OA
ATOM     10  H   UNL     1       9.308   8.441  19.519  0.00  0.00    +0.000 HD
BRANCH   7  15
ATOM     11  C   UNL     1      10.823  14.531  20.194  0.00  0.00    +0.000 C 
ATOM     12  C   UNL     1      10.335  13.156  19.831  0.00  0.00    +0.000 A 
ATOM     13  C   UNL     1      10.815  12.064  20.554  0.00  0.00    +0.000 A 
ATOM     14  C   UNL     1      10.379  10.770  20.268  0.00  0.00    +0.000 A 
ATOM     15  C   UNL     1       9.448  10.521  19.260  0.00  0.00    +0.000 A 
ATOM     16  C   UNL     1       8.972  11.613  18.520  0.00  0.00    +0.000 A 
ATOM     17  C   UNL     1       9.409  12.932  18.794  0.00  0.00    +0.000 A 
ATOM     18  C   UNL     1       8.889  14.085  17.977  0.00  0.00    +0.000 C 
ENDBRANCH   7  15
ENDBRANCH   2   8
ENDBRANCH   1   5
BRANCH   1  19
ATOM     19  C   UNL     1       4.797   4.370  17.020  0.00  0.00    +0.000 C 
ATOM     20  O   UNL     1       4.398   3.208  16.981  0.00  0.00    +0.000 OA
ATOM     21  N   UNL     1       4.128   5.375  17.682  0.00  0.00    +0.000 N 
ATOM     22  H   UNL     1       4.490   6.322  17.677  0.00  0.00    +0.000 HD
BRANCH  21  23
ATOM     23  C   UNL     1       2.879   5.139  18.373  0.00  0.00    +0.000 C 
BRANCH  23  24
ATOM     24  C   UNL     1       2.357   6.392  19.023  0.00  0.00    +0.000 A 
ATOM     25  C   UNL     1       1.925   6.383  20.352  0.00  0.00    +0.000 A 
ATOM     26  C   UNL     1       1.400   7.541  20.932  0.00  0.00    +0.000 A 
ATOM     27  C   UNL     1       1.309   8.749  20.206  0.00  0.00    +0.000 A 
ATOM     28  C   UNL     1       0.772   9.950  20.723  0.00  0.00    +0.000 A 
ATOM     29  N   UNL     1       0.215  10.018  22.004  0.00  0.00    +0.000 N 
ATOM     30  N   UNL     1       0.699  11.097  20.021  0.00  0.00    +0.000 NA
ATOM     31  C   UNL     1       1.162  11.078  18.755  0.00  0.00    +0.000 A 
ATOM     32  C   UNL     1       1.695   9.957  18.144  0.00  0.00    +0.000 A 
ATOM     33  C   UNL     1       1.774   8.770  18.875  0.00  0.00    +0.000 A 
ATOM     34  C   UNL     1       2.291   7.594  18.300  0.00  0.00    +0.000 A 
ATOM     35  H   UNL     1       0.856   9.682  22.712  0.00  0.00    +0.000 HD
ATOM     36  H   UNL     1      -0.045  10.989  22.152  0.00  0.00    +0.000 HD
ENDBRANCH  23  24
ENDBRANCH  21  23
ENDBRANCH   1  19
TORSDOF 6
ENDMDL
MODEL 6
REMARK VINA RESULT:      -8.3      1.822      2.980
REMARK  Name = 
REMARK  8 active torsions:
REMARK  status: ('A' for Active; 'I' for Inactive)
REMARK    1  A    between atoms: C_1  and  C_2
REMARK    2  A    between atoms: C_5  and  N_6
REMARK    3  A    between atoms: C_7  and  C_9
REMARK    4  A    between atoms: N_12  and  C_13
REMARK    5  A    between atoms: C_13  and  C_14
REMARK    6  A    between atoms: N_16  and  C_17
REMARK    7  A    between atoms: C_17  and  C_18
REMARK    8  A    between atoms: C_31  and  C_32
REMARK                            x       y       z     vdW  Elec       q    Type
REMARK                         _______ _______ _______ _____ _____    ______ ____
ROOT
ATOM      1  C   UNL     1       6.301   6.372  16.321  0.00  0.00    +0.000 C 
ENDROOT
BRANCH   1   5
ATOM      2  C   UNL     1       8.249   8.425  18.346  0.00  0.00    +0.000 A 
ATOM      3  N   UNL     1       8.495   7.249  19.037  0.00  0.00    +0.000 NA
ATOM      4  C   UNL     1       7.794   6.352  18.373  0.00  0.00    +0.000 A 
ATOM      5  N   UNL     1       7.149   6.952  17.337  0.00  0.00    +0.000 N 
ATOM      6  N   UNL     1       7.420   8.262  17.296  0.00  0.00    +0.000 NA
BRANCH   2   8
ATOM      7  N   UNL     1       8.868  10.661  17.645  0.00  0.00    +0.000 N 
ATOM      8  C   UNL     1       8.808   9.748  18.698  0.00  0.00    +0.000 C 
ATOM      9  O   UNL     1       9.184   9.975  19.848  0.00  0.00    +0.000 OA
ATOM     10  H   UNL     1       8.490  10.331  16.760  0.00  0.00    +0.000 HD
BRANCH   7  15
ATOM     11  C   UNL     1      10.963  16.016  17.945  0.00  0.00    +0.000 C 
ATOM     12  C   UNL     1      10.380  14.633  17.854  0.00  0.00    +0.000 A 
ATOM     13  C   UNL     1      11.235  13.563  17.595  0.00  0.00    +0.000 A 
ATOM     14  C   UNL     1      10.747  12.258  17.519  0.00  0.00    +0.000 A 
ATOM     15  C   UNL     1       9.393  11.976  17.705  0.00  0.00    +0.000 A 
ATOM     16  C   UNL     1       8.525  13.049  17.951  0.00  0.00    +0.000 A 
ATOM     17  C   UNL     1       9.005  14.380  18.026  0.00  0.00    +0.000 A 
ATOM     18  C   UNL     1       8.049  15.514  18.282  0.00  0.00    +0.000 C 
ENDBRANCH   7  15
ENDBRANCH   2   8
ENDBRANCH   1   5
BRANCH   1  19
ATOM     19  C   UNL     1       5.011   5.866  16.914  0.00  0.00    +0.000 C 
ATOM     20  O   UNL     1       4.480   4.837  16.506  0.00  0.00    +0.000 OA
ATOM     21  N   UNL     1       4.499   6.621  17.946  0.00  0.00    +0.000 N 
ATOM     22  H   UNL     1       4.967   7.471  18.241  0.00  0.00    +0.000 HD
BRANCH  21  23
ATOM     23  C   UNL     1       3.271   6.262  18.621  0.00  0.00    +0.000 C 
BRANCH  23  24
ATOM     24  C   UNL     1       2.410   7.468  18.887  0.00  0.00    +0.000 A 
ATOM     25  C   UNL     1       2.159   8.405  17.881  0.00  0.00    +0.000 A 
ATOM     26  C   UNL     1       1.396   9.544  18.151  0.00  0.00    +0.000 A 
ATOM     27  C   UNL     1       0.842   9.771  19.431  0.00  0.00    +0.000 A 
ATOM     28  C   UNL     1       0.078  10.908  19.778  0.00  0.00    +0.000 A 
ATOM     29  N   UNL     1      -0.139  11.954  18.875  0.00  0.00    +0.000 N 
ATOM     30  N   UNL     1      -0.450  11.107  21.001  0.00  0.00    +0.000 NA
ATOM     31  C   UNL     1      -0.220  10.162  21.935  0.00  0.00    +0.000 A 
ATOM     32  C   UNL     1       0.524   9.017  21.709  0.00  0.00    +0.000 A 
ATOM     33  C   UNL     1       1.067   8.811  20.439  0.00  0.00    +0.000 A 
ATOM     34  C   UNL     1       1.846   7.673  20.157  0.00  0.00    +0.000 A 
ATOM     35  H   UNL     1      -0.528  11.623  18.002  0.00  0.00    +0.000 HD
ATOM     36  H   UNL     1      -0.754  12.614  19.345  0.00  0.00    +0.000 HD
ENDBRANCH  23  24
ENDBRANCH  21  23
ENDBRANCH   1  19
TORSDOF 6
ENDMDL
MODEL 7
REMARK VINA RESULT:      -8.3      0.991      1.688
REMARK  Name = 
REMARK  8 active torsions:
REMARK  status: ('A' for Active; 'I' for Inactive)
REMARK    1  A    between atoms: C_1  and  C_2
REMARK    2  A    between atoms: C_5  and  N_6
REMARK    3  A    between atoms: C_7  and  C_9
REMARK    4  A    between atoms: N_12  and  C_13
REMARK    5  A    between atoms: C_13  and  C_14
REMARK    6  A    between atoms: N_16  and  C_17
REMARK    7  A    between atoms: C_17  and  C_18
REMARK    8  A    between atoms: C_31  and  C_32
REMARK                            x       y       z     vdW  Elec       q    Type
REMARK                         _______ _______ _______ _____ _____    ______ ____
ROOT
ATOM      1  C   UNL     1       4.909   3.580  16.360  0.00  0.00    +0.000 C 
ENDROOT
BRANCH   1   5
ATOM      2  C   UNL     1       7.112   6.201  16.981  0.00  0.00    +0.000 A 
ATOM      3  N   UNL     1       7.325   6.142  15.612  0.00  0.00    +0.000 NA
ATOM      4  C   UNL     1       6.540   5.157  15.223  0.00  0.00    +0.000 A 
ATOM      5  N   UNL     1       5.890   4.639  16.300  0.00  0.00    +0.000 N 
ATOM      6  N   UNL     1       6.232   5.281  17.422  0.00  0.00    +0.000 NA
BRANCH   2   8
ATOM      7  N   UNL     1       7.778   8.479  17.472  0.00  0.00    +0.000 N 
ATOM      8  C   UNL     1       7.772   7.152  17.901  0.00  0.00    +0.000 C 
ATOM      9  O   UNL     1       8.270   6.750  18.952  0.00  0.00    +0.000 OA
ATOM     10  H   UNL     1       7.298   8.654  16.592  0.00  0.00    +0.000 HD
BRANCH   7  15
ATOM     11  C   UNL     1      10.144  12.969  20.192  0.00  0.00    +0.000 C 
ATOM     12  C   UNL     1       9.531  11.816  19.446  0.00  0.00    +0.000 A 
ATOM     13  C   UNL     1       9.648  10.534  19.982  0.00  0.00    +0.000 A 
ATOM     14  C   UNL     1       9.081   9.434  19.338  0.00  0.00    +0.000 A 
ATOM     15  C   UNL     1       8.375   9.575  18.144  0.00  0.00    +0.000 A 
ATOM     16  C   UNL     1       8.265  10.859  17.591  0.00  0.00    +0.000 A 
ATOM     17  C   UNL     1       8.840  11.985  18.230  0.00  0.00    +0.000 A 
ATOM     18  C   UNL     1       8.715  13.350  17.609  0.00  0.00    +0.000 C 
ENDBRANCH   7  15
ENDBRANCH   2   8
ENDBRANCH   1   5
BRANCH   1  19
ATOM     19  C   UNL     1       3.837   3.891  17.373  0.00  0.00    +0.000 C 
ATOM     20  O   UNL     1       2.672   3.541  17.199  0.00  0.00    +0.000 OA
ATOM     21  N   UNL     1       4.263   4.562  18.498  0.00  0.00    +0.000 N 
ATOM     22  H   UNL     1       5.234   4.840  18.592  0.00  0.00    +0.000 HD
BRANCH  21  23
ATOM     23  C   UNL     1       3.354   4.926  19.562  0.00  0.00    +0.000 C 
BRANCH  23  24
ATOM     24  C   UNL     1       2.790   6.308  19.363  0.00  0.00    +0.000 A 
ATOM     25  C   UNL     1       3.077   7.039  18.207  0.00  0.00    +0.000 A 
ATOM     26  C   UNL     1       2.585   8.338  18.053  0.00  0.00    +0.000 A 
ATOM     27  C   UNL     1       1.775   8.939  19.041  0.00  0.00    +0.000 A 
ATOM     28  C   UNL     1       1.261  10.253  18.959  0.00  0.00    +0.000 A 
ATOM     29  N   UNL     1       1.577  11.103  17.895  0.00  0.00    +0.000 N 
ATOM     30  N   UNL     1       0.483  10.810  19.907  0.00  0.00    +0.000 NA
ATOM     31  C   UNL     1       0.195  10.060  20.990  0.00  0.00    +0.000 A 
ATOM     32  C   UNL     1       0.655   8.769  21.181  0.00  0.00    +0.000 A 
ATOM     33  C   UNL     1       1.458   8.192  20.195  0.00  0.00    +0.000 A 
ATOM     34  C   UNL     1       1.968   6.889  20.343  0.00  0.00    +0.000 A 
ATOM     35  H   UNL     1       1.375  10.678  17.000  0.00  0.00    +0.000 HD
ATOM     36  H   UNL     1       1.045  11.957  18.043  0.00  0.00    +0.000 HD
ENDBRANCH  23  24
ENDBRANCH  21  23
ENDBRANCH   1  19
TORSDOF 6
ENDMDL
MODEL 8
REMARK VINA RESULT:      -8.3      2.394      8.082
REMARK  Name = 
REMARK  8 active torsions:
REMARK  status: ('A' for Active; 'I' for Inactive)
REMARK    1  A    between atoms: C_1  and  C_2
REMARK    2  A    between atoms: C_5  and  N_6
REMARK    3  A    between atoms: C_7  and  C_9
REMARK    4  A    between atoms: N_12  and  C_13
REMARK    5  A    between atoms: C_13  and  C_14
REMARK    6  A    between atoms: N_16  and  C_17
REMARK    7  A    between atoms: C_17  and  C_18
REMARK    8  A    between atoms: C_31  and  C_32
REMARK                            x       y       z     vdW  Elec       q    Type
REMARK                         _______ _______ _______ _____ _____    ______ ____
ROOT
ATOM      1  C   UNL     1       5.234   6.618  16.114  0.00  0.00    +0.000 C 
ENDROOT
BRANCH   1   5
ATOM      2  C   UNL     1       3.005   6.248  18.761  0.00  0.00    +0.000 A 
ATOM      3  N   UNL     1       3.208   4.895  18.541  0.00  0.00    +0.000 NA
ATOM      4  C   UNL     1       4.051   4.873  17.528  0.00  0.00    +0.000 A 
ATOM      5  N   UNL     1       4.339   6.147  17.146  0.00  0.00    +0.000 N 
ATOM      6  N   UNL     1       3.692   7.035  17.910  0.00  0.00    +0.000 NA
BRANCH   2   8
ATOM      7  N   UNL     1       1.805   8.162  19.638  0.00  0.00    +0.000 N 
ATOM      8  C   UNL     1       2.122   6.815  19.804  0.00  0.00    +0.000 C 
ATOM      9  O   UNL     1       1.729   6.108  20.732  0.00  0.00    +0.000 OA
ATOM     10  H   UNL     1       2.186   8.600  18.803  0.00  0.00    +0.000 HD
BRANCH   7  15
ATOM     11  C   UNL     1      -1.436  11.398  23.128  0.00  0.00    +0.000 C 
ATOM     12  C   UNL     1      -0.566  10.587  22.209  0.00  0.00    +0.000 A 
ATOM     13  C   UNL     1      -0.443   9.217  22.442  0.00  0.00    +0.000 A 
ATOM     14  C   UNL     1       0.338   8.416  21.607  0.00  0.00    +0.000 A 
ATOM     15  C   UNL     1       1.015   8.951  20.511  0.00  0.00    +0.000 A 
ATOM     16  C   UNL     1       0.906  10.330  20.280  0.00  0.00    +0.000 A 
ATOM     17  C   UNL     1       0.123  11.157  21.121  0.00  0.00    +0.000 A 
ATOM     18  C   UNL     1       0.033  12.636  20.854  0.00  0.00    +0.000 C 
ENDBRANCH   7  15
ENDBRANCH   2   8
ENDBRANCH   1   5
BRANCH   1  19
ATOM     19  C   UNL     1       6.646   6.726  16.629  0.00  0.00    +0.000 C 
ATOM     20  O   UNL     1       7.538   5.994  16.207  0.00  0.00    +0.000 OA
ATOM     21  N   UNL     1       6.859   7.708  17.572  0.00  0.00    +0.000 N 
ATOM     22  H   UNL     1       6.088   8.280  17.898  0.00  0.00    +0.000 HD
BRANCH  21  23
ATOM     23  C   UNL     1       8.161   7.939  18.157  0.00  0.00    +0.000 C 
BRANCH  23  24
ATOM     24  C   UNL     1       8.469   9.409  18.266  0.00  0.00    +0.000 A 
ATOM     25  C   UNL     1       7.846  10.335  17.424  0.00  0.00    +0.000 A 
ATOM     26  C   UNL     1       8.173  11.691  17.503  0.00  0.00    +0.000 A 
ATOM     27  C   UNL     1       9.118  12.166  18.439  0.00  0.00    +0.000 A 
ATOM     28  C   UNL     1       9.509  13.519  18.560  0.00  0.00    +0.000 A 
ATOM     29  N   UNL     1       9.026  14.506  17.695  0.00  0.00    +0.000 N 
ATOM     30  N   UNL     1      10.406  13.958  19.463  0.00  0.00    +0.000 NA
ATOM     31  C   UNL     1      10.957  13.041  20.284  0.00  0.00    +0.000 A 
ATOM     32  C   UNL     1      10.658  11.691  20.246  0.00  0.00    +0.000 A 
ATOM     33  C   UNL     1       9.724  11.238  19.311  0.00  0.00    +0.000 A 
ATOM     34  C   UNL     1       9.394   9.873  19.215  0.00  0.00    +0.000 A 
ATOM     35  H   UNL     1       8.015  14.519  17.666  0.00  0.00    +0.000 HD
ATOM     36  H   UNL     1       9.412  15.388  18.024  0.00  0.00    +0.000 HD
ENDBRANCH  23  24
ENDBRANCH  21  23
ENDBRANCH   1  19
TORSDOF 6
ENDMDL
MODEL 9
REMARK VINA RESULT:      -8.1      2.369      7.905
REMARK  Name = 
REMARK  8 active torsions:
REMARK  status: ('A' for Active; 'I' for Inactive)
REMARK    1  A    between atoms: C_1  and  C_2
REMARK    2  A    between atoms: C_5  and  N_6
REMARK    3  A    between atoms: C_7  and  C_9
REMARK    4  A    between atoms: N_12  and  C_13
REMARK    5  A    between atoms: C_13  and  C_14
REMARK    6  A    between atoms: N_16  and  C_17
REMARK    7  A    between atoms: C_17  and  C_18
REMARK    8  A    between atoms: C_31  and  C_32
REMARK                            x       y       z     vdW  Elec       q    Type
REMARK                         _______ _______ _______ _____ _____    ______ ____
ROOT
ATOM      1  C   UNL     1       7.199   5.096  18.484  0.00  0.00    +0.000 C 
ENDROOT
BRANCH   1   5
ATOM      2  C   UNL     1       3.834   5.365  19.330  0.00  0.00    +0.000 A 
ATOM      3  N   UNL     1       3.863   3.981  19.254  0.00  0.00    +0.000 NA
ATOM      4  C   UNL     1       5.112   3.720  18.922  0.00  0.00    +0.000 A 
ATOM      5  N   UNL     1       5.804   4.884  18.795  0.00  0.00    +0.000 N 
ATOM      6  N   UNL     1       5.021   5.939  19.049  0.00  0.00    +0.000 NA
BRANCH   2   8
ATOM      7  N   UNL     1       2.678   7.492  19.226  0.00  0.00    +0.000 N 
ATOM      8  C   UNL     1       2.641   6.170  19.669  0.00  0.00    +0.000 C 
ATOM      9  O   UNL     1       1.714   5.666  20.302  0.00  0.00    +0.000 OA
ATOM     10  H   UNL     1       3.503   7.749  18.689  0.00  0.00    +0.000 HD
BRANCH   7  15
ATOM     11  C   UNL     1      -1.316  11.524  20.197  0.00  0.00    +0.000 C 
ATOM     12  C   UNL     1      -0.290  10.449  19.975  0.00  0.00    +0.000 A 
ATOM     13  C   UNL     1       0.250  10.295  18.698  0.00  0.00    +0.000 A 
ATOM     14  C   UNL     1       1.219   9.324  18.443  0.00  0.00    +0.000 A 
ATOM     15  C   UNL     1       1.686   8.480  19.451  0.00  0.00    +0.000 A 
ATOM     16  C   UNL     1       1.137   8.620  20.733  0.00  0.00    +0.000 A 
ATOM     17  C   UNL     1       0.149   9.597  21.007  0.00  0.00    +0.000 A 
ATOM     18  C   UNL     1      -0.430   9.718  22.391  0.00  0.00    +0.000 C 
ENDBRANCH   7  15
ENDBRANCH   2   8
ENDBRANCH   1   5
BRANCH   1  19
ATOM     19  C   UNL     1       7.372   6.235  17.512  0.00  0.00    +0.000 C 
ATOM     20  O   UNL     1       7.134   6.096  16.315  0.00  0.00    +0.000 OA
ATOM     21  N   UNL     1       7.784   7.427  18.066  0.00  0.00    +0.000 N 
ATOM     22  H   UNL     1       7.980   7.491  19.059  0.00  0.00    +0.000 HD
BRANCH  21  23
ATOM     23  C   UNL     1       7.990   8.613  17.264  0.00  0.00    +0.000 C 
BRANCH  23  24
ATOM     24  C   UNL     1       8.490   9.766  18.094  0.00  0.00    +0.000 A 
ATOM     25  C   UNL     1       8.979   9.558  19.387  0.00  0.00    +0.000 A 
ATOM     26  C   UNL     1       9.399  10.641  20.165  0.00  0.00    +0.000 A 
ATOM     27  C   UNL     1       9.361  11.962  19.667  0.00  0.00    +0.000 A 
ATOM     28  C   UNL     1       9.751  13.103  20.405  0.00  0.00    +0.000 A 
ATOM     29  N   UNL     1      10.152  13.014  21.742  0.00  0.00    +0.000 N 
ATOM     30  N   UNL     1       9.716  14.356  19.913  0.00  0.00    +0.000 NA
ATOM     31  C   UNL     1       9.276  14.513  18.649  0.00  0.00    +0.000 A 
ATOM     32  C   UNL     1       8.857  13.470  17.841  0.00  0.00    +0.000 A 
ATOM     33  C   UNL     1       8.898  12.170  18.351  0.00  0.00    +0.000 A 
ATOM     34  C   UNL     1       8.469  11.073  17.582  0.00  0.00    +0.000 A 
ATOM     35  H   UNL     1      10.899  12.344  21.867  0.00  0.00    +0.000 HD
ATOM     36  H   UNL     1      10.428  13.953  22.020  0.00  0.00    +0.000 HD
ENDBRANCH  23  24
ENDBRANCH  21  23
ENDBRANCH   1  19
TORSDOF 6
ENDMDL
