MODEL 1
REMARK VINA RESULT:      -8.4      0.000      0.000
REMARK  Name = 
REMARK  4 active torsions:
REMARK  status: ('A' for Active; 'I' for Inactive)
REMARK    1  A    between atoms: C_1  and  C_2
REMARK    2  A    between atoms: C_2  and  C_3
REMARK    3  A    between atoms: C_3  and  C_4
REMARK    4  A    between atoms: C_7  and  C_8
REMARK                            x       y       z     vdW  Elec       q    Type
REMARK                         _______ _______ _______ _____ _____    ______ ____
ROOT
ATOM      1  C   UNL     1       5.123   5.662  17.337  0.00  0.00    +0.000 C 
ATOM      2  O   UNL     1       3.745   6.095  17.245  0.00  0.00    +0.000 OA
ATOM      3  C   UNL     1       3.086   6.214  18.445  0.00  0.00    +0.000 A 
ATOM      4  C   UNL     1       2.751   7.495  18.885  0.00  0.00    +0.000 A 
ATOM      5  C   UNL     1       1.981   7.657  20.041  0.00  0.00    +0.000 A 
ATOM      6  C   UNL     1       1.487   6.542  20.720  0.00  0.00    +0.000 A 
ATOM      7  C   UNL     1       1.764   5.257  20.253  0.00  0.00    +0.000 A 
ATOM      8  C   UNL     1       2.587   5.100  19.132  0.00  0.00    +0.000 A 
ATOM      9  N   UNL     1       2.995   3.809  18.743  0.00  0.00    +0.000 N 
ATOM     10  C   UNL     1       2.252   2.652  18.764  0.00  0.00    +0.000 A 
ATOM     11  C   UNL     1       3.042   1.623  18.297  0.00  0.00    +0.000 A 
ATOM     12  C   UNL     1       4.336   2.150  18.086  0.00  0.00    +0.000 A 
ATOM     13  C   UNL     1       4.284   3.501  18.367  0.00  0.00    +0.000 A 
ATOM     14  C   UNL     1       5.346   4.495  18.354  0.00  0.00    +0.000 C 
ATOM     15  O   UNL     1       6.367   4.379  19.027  0.00  0.00    +0.000 OA
ENDROOT
BRANCH   1  16
ATOM     16  C   UNL     1       5.599   5.095  15.973  0.00  0.00    +0.000 A 
ATOM     17  C   UNL     1       4.680   4.452  15.119  0.00  0.00    +0.000 A 
ATOM     18  C   UNL     1       5.073   3.939  13.882  0.00  0.00    +0.000 A 
ATOM     19  C   UNL     1       6.399   4.062  13.462  0.00  0.00    +0.000 A 
ATOM     20  C   UNL     1       6.851   3.478  12.158  0.00  0.00    +0.000 C 
ATOM     21  C   UNL     1       7.312   4.729  14.287  0.00  0.00    +0.000 A 
ATOM     22  C   UNL     1       6.918   5.243  15.528  0.00  0.00    +0.000 A 
ENDBRANCH   1  16
BRANCH   1  24
ATOM     23  C   UNL     1       7.446   6.602  17.941  0.00  0.00    +0.000 C 
ATOM     24  C   UNL     1       5.969   6.923  17.676  0.00  0.00    +0.000 C 
ENDBRANCH   1  24
TORSDOF 2
ENDMDL
MODEL 2
REMARK VINA RESULT:      -8.4      1.502      6.211
REMARK  Name = 
REMARK  4 active torsions:
REMARK  status: ('A' for Active; 'I' for Inactive)
REMARK    1  A    between atoms: C_1  and  C_2
REMARK    2  A    between atoms: C_2  and  C_3
REMARK    3  A    between atoms: C_3  and  C_4
REMARK    4  A    between atoms: C_7  and  C_8
REMARK                            x       y       z     vdW  Elec       q    Type
REMARK                         _______ _______ _______ _____ _____    ______ ____
ROOT
ATOM      1  C   UNL     1       3.818   4.729  17.730  0.00  0.00    +0.000 C 
ATOM      2  O   UNL     1       4.100   5.469  16.518  0.00  0.00    +0.000 OA
ATOM      3  C   UNL     1       5.091   4.940  15.727  0.00  0.00    +0.000 A 
ATOM      4  C   UNL     1       4.725   4.387  14.499  0.00  0.00    +0.000 A 
ATOM      5  C   UNL     1       5.709   3.944  13.611  0.00  0.00    +0.000 A 
ATOM      6  C   UNL     1       7.061   4.113  13.917  0.00  0.00    +0.000 A 
ATOM      7  C   UNL     1       7.438   4.721  15.115  0.00  0.00    +0.000 A 
ATOM      8  C   UNL     1       6.449   5.106  16.026  0.00  0.00    +0.000 A 
ATOM      9  N   UNL     1       6.822   5.583  17.299  0.00  0.00    +0.000 N 
ATOM     10  C   UNL     1       7.886   6.396  17.612  0.00  0.00    +0.000 A 
ATOM     11  C   UNL     1       7.876   6.614  18.974  0.00  0.00    +0.000 A 
ATOM     12  C   UNL     1       6.838   5.825  19.518  0.00  0.00    +0.000 A 
ATOM     13  C   UNL     1       6.200   5.196  18.466  0.00  0.00    +0.000 A 
ATOM     14  C   UNL     1       5.102   4.244  18.480  0.00  0.00    +0.000 C 
ATOM     15  O   UNL     1       5.155   3.184  19.100  0.00  0.00    +0.000 OA
ENDROOT
BRANCH   1  16
ATOM     16  C   UNL     1       3.082   5.635  18.753  0.00  0.00    +0.000 A 
ATOM     17  C   UNL     1       2.832   6.988  18.442  0.00  0.00    +0.000 A 
ATOM     18  C   UNL     1       2.163   7.827  19.335  0.00  0.00    +0.000 A 
ATOM     19  C   UNL     1       1.720   7.333  20.563  0.00  0.00    +0.000 A 
ATOM     20  C   UNL     1       1.041   8.229  21.555  0.00  0.00    +0.000 C 
ATOM     21  C   UNL     1       1.932   5.983  20.867  0.00  0.00    +0.000 A 
ATOM     22  C   UNL     1       2.602   5.141  19.972  0.00  0.00    +0.000 A 
ENDBRANCH   1  16
BRANCH   1  24
ATOM     23  C   UNL     1       1.389   3.932  17.398  0.00  0.00    +0.000 C 
ATOM     24  C   UNL     1       2.875   3.556  17.333  0.00  0.00    +0.000 C 
ENDBRANCH   1  24
TORSDOF 2
ENDMDL
MODEL 3
REMARK VINA RESULT:      -8.0      1.666      4.802
REMARK  Name = 
REMARK  4 active torsions:
REMARK  status: ('A' for Active; 'I' for Inactive)
REMARK    1  A    between atoms: C_1  and  C_2
REMARK    2  A    between atoms: C_2  and  C_3
REMARK    3  A    between atoms: C_3  and  C_4
REMARK    4  A    between atoms: C_7  and  C_8
REMARK                            x       y       z     vdW  Elec       q    Type
REMARK                         _______ _______ _______ _____ _____    ______ ____
ROOT
ATOM      1  C   UNL     1       6.067   5.491  17.277  0.00  0.00    +0.000 C 
ATOM      2  O   UNL     1       5.566   4.739  18.408  0.00  0.00    +0.000 OA
ATOM      3  C   UNL     1       4.440   3.990  18.160  0.00  0.00    +0.000 A 
ATOM      4  C   UNL     1       4.565   2.601  18.153  0.00  0.00    +0.000 A 
ATOM      5  C   UNL     1       3.428   1.798  18.022  0.00  0.00    +0.000 A 
ATOM      6  C   UNL     1       2.159   2.378  17.966  0.00  0.00    +0.000 A 
ATOM      7  C   UNL     1       2.019   3.765  18.034  0.00  0.00    +0.000 A 
ATOM      8  C   UNL     1       3.164   4.564  18.103  0.00  0.00    +0.000 A 
ATOM      9  N   UNL     1       3.041   5.966  18.022  0.00  0.00    +0.000 N 
ATOM     10  C   UNL     1       2.060   6.756  18.574  0.00  0.00    +0.000 A 
ATOM     11  C   UNL     1       2.327   8.068  18.248  0.00  0.00    +0.000 A 
ATOM     12  C   UNL     1       3.445   8.066  17.383  0.00  0.00    +0.000 A 
ATOM     13  C   UNL     1       3.869   6.758  17.257  0.00  0.00    +0.000 A 
ATOM     14  C   UNL     1       4.945   6.202  16.452  0.00  0.00    +0.000 C 
ATOM     15  O   UNL     1       5.004   6.354  15.234  0.00  0.00    +0.000 OA
ENDROOT
BRANCH   1  16
ATOM     16  C   UNL     1       6.988   6.641  17.765  0.00  0.00    +0.000 A 
ATOM     17  C   UNL     1       6.944   7.897  17.125  0.00  0.00    +0.000 A 
ATOM     18  C   UNL     1       7.752   8.956  17.544  0.00  0.00    +0.000 A 
ATOM     19  C   UNL     1       8.622   8.788  18.623  0.00  0.00    +0.000 A 
ATOM     20  C   UNL     1       9.530   9.897  19.060  0.00  0.00    +0.000 C 
ATOM     21  C   UNL     1       8.648   7.556  19.287  0.00  0.00    +0.000 A 
ATOM     22  C   UNL     1       7.839   6.494  18.867  0.00  0.00    +0.000 A 
ENDBRANCH   1  16
BRANCH   1  24
ATOM     23  C   UNL     1       6.124   3.904  15.247  0.00  0.00    +0.000 C 
ATOM     24  C   UNL     1       6.911   4.505  16.418  0.00  0.00    +0.000 C 
ENDBRANCH   1  24
TORSDOF 2
ENDMDL
MODEL 4
REMARK VINA RESULT:      -7.8      8.689     11.139
REMARK  Name = 
REMARK  4 active torsions:
REMARK  status: ('A' for Active; 'I' for Inactive)
REMARK    1  A    between atoms: C_1  and  C_2
REMARK    2  A    between atoms: C_2  and  C_3
REMARK    3  A    between atoms: C_3  and  C_4
REMARK    4  A    between atoms: C_7  and  C_8
REMARK                            x       y       z     vdW  Elec       q    Type
REMARK                         _______ _______ _______ _____ _____    ______ ____
ROOT
ATOM      1  C   UNL     1      10.222  13.640  18.766  0.00  0.00    +0.000 C 
ATOM      2  O   UNL     1       9.691  14.486  17.718  0.00  0.00    +0.000 OA
ATOM      3  C   UNL     1       9.771  15.837  17.959  0.00  0.00    +0.000 A 
ATOM      4  C   UNL     1      10.656  16.590  17.189  0.00  0.00    +0.000 A 
ATOM      5  C   UNL     1      10.686  17.982  17.319  0.00  0.00    +0.000 A 
ATOM      6  C   UNL     1       9.786  18.629  18.167  0.00  0.00    +0.000 A 
ATOM      7  C   UNL     1       8.854  17.890  18.896  0.00  0.00    +0.000 A 
ATOM      8  C   UNL     1       8.871  16.494  18.809  0.00  0.00    +0.000 A 
ATOM      9  N   UNL     1       8.036  15.733  19.652  0.00  0.00    +0.000 N 
ATOM     10  C   UNL     1       6.748  16.019  20.037  0.00  0.00    +0.000 A 
ATOM     11  C   UNL     1       6.309  15.006  20.864  0.00  0.00    +0.000 A 
ATOM     12  C   UNL     1       7.401  14.132  21.072  0.00  0.00    +0.000 A 
ATOM     13  C   UNL     1       8.457  14.601  20.315  0.00  0.00    +0.000 A 
ATOM     14  C   UNL     1       9.817  14.099  20.205  0.00  0.00    +0.000 C 
ATOM     15  O   UNL     1      10.554  13.972  21.181  0.00  0.00    +0.000 OA
ENDROOT
BRANCH   1  16
ATOM     16  C   UNL     1       9.651  12.203  18.635  0.00  0.00    +0.000 A 
ATOM     17  C   UNL     1       8.711  11.908  17.625  0.00  0.00    +0.000 A 
ATOM     18  C   UNL     1       8.186  10.624  17.473  0.00  0.00    +0.000 A 
ATOM     19  C   UNL     1       8.593   9.595  18.325  0.00  0.00    +0.000 A 
ATOM     20  C   UNL     1       8.008   8.220  18.208  0.00  0.00    +0.000 C 
ATOM     21  C   UNL     1       9.552   9.869  19.308  0.00  0.00    +0.000 A 
ATOM     22  C   UNL     1      10.079  11.157  19.461  0.00  0.00    +0.000 A 
ENDBRANCH   1  16
BRANCH   1  24
ATOM     23  C   UNL     1      12.169  13.156  17.148  0.00  0.00    +0.000 C 
ATOM     24  C   UNL     1      11.763  13.586  18.564  0.00  0.00    +0.000 C 
ENDBRANCH   1  24
TORSDOF 2
ENDMDL
MODEL 5
REMARK VINA RESULT:      -7.3      8.842     10.548
REMARK  Name = 
REMARK  4 active torsions:
REMARK  status: ('A' for Active; 'I' for Inactive)
REMARK    1  A    between atoms: C_1  and  C_2
REMARK    2  A    between atoms: C_2  and  C_3
REMARK    3  A    between atoms: C_3  and  C_4
REMARK    4  A    between atoms: C_7  and  C_8
REMARK                            x       y       z     vdW  Elec       q    Type
REMARK                         _______ _______ _______ _____ _____    ______ ____
ROOT
ATOM      1  C   UNL     1      -1.453  12.342  20.211  0.00  0.00    +0.000 C 
ATOM      2  O   UNL     1      -2.581  13.238  20.067  0.00  0.00    +0.000 OA
ATOM      3  C   UNL     1      -3.816  12.645  20.171  0.00  0.00    +0.000 A 
ATOM      4  C   UNL     1      -4.592  12.938  21.293  0.00  0.00    +0.000 A 
ATOM      5  C   UNL     1      -5.899  12.451  21.384  0.00  0.00    +0.000 A 
ATOM      6  C   UNL     1      -6.458  11.730  20.327  0.00  0.00    +0.000 A 
ATOM      7  C   UNL     1      -5.712  11.485  19.174  0.00  0.00    +0.000 A 
ATOM      8  C   UNL     1      -4.384  11.921  19.115  0.00  0.00    +0.000 A 
ATOM      9  N   UNL     1      -3.577  11.550  18.020  0.00  0.00    +0.000 N 
ATOM     10  C   UNL     1      -3.947  11.455  16.699  0.00  0.00    +0.000 A 
ATOM     11  C   UNL     1      -2.845  11.060  15.970  0.00  0.00    +0.000 A 
ATOM     12  C   UNL     1      -1.802  10.806  16.889  0.00  0.00    +0.000 A 
ATOM     13  C   UNL     1      -2.276  11.115  18.149  0.00  0.00    +0.000 A 
ATOM     14  C   UNL     1      -1.626  10.990  19.444  0.00  0.00    +0.000 C 
ATOM     15  O   UNL     1      -1.178   9.923  19.857  0.00  0.00    +0.000 OA
ENDROOT
BRANCH   1  16
ATOM     16  C   UNL     1      -0.178  12.983  19.601  0.00  0.00    +0.000 A 
ATOM     17  C   UNL     1      -0.213  14.313  19.134  0.00  0.00    +0.000 A 
ATOM     18  C   UNL     1       0.918  14.923  18.589  0.00  0.00    +0.000 A 
ATOM     19  C   UNL     1       2.120  14.217  18.502  0.00  0.00    +0.000 A 
ATOM     20  C   UNL     1       3.334  14.838  17.878  0.00  0.00    +0.000 C 
ATOM     21  C   UNL     1       2.175  12.908  18.993  0.00  0.00    +0.000 A 
ATOM     22  C   UNL     1       1.041  12.296  19.540  0.00  0.00    +0.000 A 
ENDBRANCH   1  16
BRANCH   1  24
ATOM     23  C   UNL     1      -1.001  13.459  22.490  0.00  0.00    +0.000 C 
ATOM     24  C   UNL     1      -1.229  12.141  21.738  0.00  0.00    +0.000 C 
ENDBRANCH   1  24
TORSDOF 2
ENDMDL
MODEL 6
REMARK VINA RESULT:      -7.2      9.116     12.246
REMARK  Name = 
REMARK  4 active torsions:
REMARK  status: ('A' for Active; 'I' for Inactive)
REMARK    1  A    between atoms: C_1  and  C_2
REMARK    2  A    between atoms: C_2  and  C_3
REMARK    3  A    between atoms: C_3  and  C_4
REMARK    4  A    between atoms: C_7  and  C_8
REMARK                            x       y       z     vdW  Elec       q    Type
REMARK                         _______ _______ _______ _____ _____    ______ ____
ROOT
ATOM      1  C   UNL     1       8.667  15.033  20.301  0.00  0.00    +0.000 C 
ATOM      2  O   UNL     1      10.089  15.258  20.455  0.00  0.00    +0.000 OA
ATOM      3  C   UNL     1      10.738  15.693  19.324  0.00  0.00    +0.000 A 
ATOM      4  C   UNL     1      11.219  17.002  19.307  0.00  0.00    +0.000 A 
ATOM      5  C   UNL     1      11.986  17.450  18.228  0.00  0.00    +0.000 A 
ATOM      6  C   UNL     1      12.331  16.574  17.197  0.00  0.00    +0.000 A 
ATOM      7  C   UNL     1      11.908  15.245  17.235  0.00  0.00    +0.000 A 
ATOM      8  C   UNL     1      11.089  14.819  18.287  0.00  0.00    +0.000 A 
ATOM      9  N   UNL     1      10.534  13.524  18.257  0.00  0.00    +0.000 N 
ATOM     10  C   UNL     1      11.131  12.365  17.821  0.00  0.00    +0.000 A 
ATOM     11  C   UNL     1      10.230  11.332  17.969  0.00  0.00    +0.000 A 
ATOM     12  C   UNL     1       9.012  11.898  18.410  0.00  0.00    +0.000 A 
ATOM     13  C   UNL     1       9.223  13.253  18.581  0.00  0.00    +0.000 A 
ATOM     14  C   UNL     1       8.290  14.297  18.974  0.00  0.00    +0.000 C 
ATOM     15  O   UNL     1       7.252  14.521  18.355  0.00  0.00    +0.000 OA
ENDROOT
BRANCH   1  16
ATOM     16  C   UNL     1       8.147  14.103  21.430  0.00  0.00    +0.000 A 
ATOM     17  C   UNL     1       9.041  13.247  22.105  0.00  0.00    +0.000 A 
ATOM     18  C   UNL     1       8.607  12.406  23.132  0.00  0.00    +0.000 A 
ATOM     19  C   UNL     1       7.265  12.404  23.516  0.00  0.00    +0.000 A 
ATOM     20  C   UNL     1       6.770  11.477  24.584  0.00  0.00    +0.000 C 
ATOM     21  C   UNL     1       6.376  13.276  22.875  0.00  0.00    +0.000 A 
ATOM     22  C   UNL     1       6.810  14.119  21.846  0.00  0.00    +0.000 A 
ENDBRANCH   1  16
BRANCH   1  24
ATOM     23  C   UNL     1       8.404  17.185  21.696  0.00  0.00    +0.000 C 
ATOM     24  C   UNL     1       7.975  16.420  20.437  0.00  0.00    +0.000 C 
ENDBRANCH   1  24
TORSDOF 2
ENDMDL
MODEL 7
REMARK VINA RESULT:      -7.0      9.051     10.790
REMARK  Name = 
REMARK  4 active torsions:
REMARK  status: ('A' for Active; 'I' for Inactive)
REMARK    1  A    between atoms: C_1  and  C_2
REMARK    2  A    between atoms: C_2  and  C_3
REMARK    3  A    between atoms: C_3  and  C_4
REMARK    4  A    between atoms: C_7  and  C_8
REMARK                            x       y       z     vdW  Elec       q    Type
REMARK                         _______ _______ _______ _____ _____    ______ ____
ROOT
ATOM      1  C   UNL     1      -1.051  13.078  20.879  0.00  0.00    +0.000 C 
ATOM      2  O   UNL     1      -2.178  13.935  20.582  0.00  0.00    +0.000 OA
ATOM      3  C   UNL     1      -3.414  13.381  20.818  0.00  0.00    +0.000 A 
ATOM      4  C   UNL     1      -4.170  13.890  21.873  0.00  0.00    +0.000 A 
ATOM      5  C   UNL     1      -5.477  13.437  22.078  0.00  0.00    +0.000 A 
ATOM      6  C   UNL     1      -6.055  12.529  21.189  0.00  0.00    +0.000 A 
ATOM      7  C   UNL     1      -5.328  12.061  20.093  0.00  0.00    +0.000 A 
ATOM      8  C   UNL     1      -4.000  12.469  19.930  0.00  0.00    +0.000 A 
ATOM      9  N   UNL     1      -3.212  11.889  18.916  0.00  0.00    +0.000 N 
ATOM     10  C   UNL     1      -3.604  11.542  17.644  0.00  0.00    +0.000 A 
ATOM     11  C   UNL     1      -2.516  11.007  16.988  0.00  0.00    +0.000 A 
ATOM     12  C   UNL     1      -1.458  10.929  17.923  0.00  0.00    +0.000 A 
ATOM     13  C   UNL     1      -1.911  11.479  19.107  0.00  0.00    +0.000 A 
ATOM     14  C   UNL     1      -1.240  11.604  20.391  0.00  0.00    +0.000 C 
ATOM     15  O   UNL     1      -0.789  10.634  20.996  0.00  0.00    +0.000 OA
ENDROOT
BRANCH   1  16
ATOM     16  C   UNL     1       0.216  13.580  20.136  0.00  0.00    +0.000 A 
ATOM     17  C   UNL     1       0.136  14.707  19.293  0.00  0.00    +0.000 A 
ATOM     18  C   UNL     1       1.258  15.192  18.618  0.00  0.00    +0.000 A 
ATOM     19  C   UNL     1       2.495  14.564  18.775  0.00  0.00    +0.000 A 
ATOM     20  C   UNL     1       3.702  15.040  18.025  0.00  0.00    +0.000 C 
ATOM     21  C   UNL     1       2.592  13.465  19.637  0.00  0.00    +0.000 A 
ATOM     22  C   UNL     1       1.468  12.979  20.314  0.00  0.00    +0.000 A 
ENDBRANCH   1  16
BRANCH   1  24
ATOM     23  C   UNL     1      -0.622  14.618  22.901  0.00  0.00    +0.000 C 
ATOM     24  C   UNL     1      -0.802  13.175  22.412  0.00  0.00    +0.000 C 
ENDBRANCH   1  24
TORSDOF 2
ENDMDL
MODEL 8
REMARK VINA RESULT:      -7.0      5.970      9.323
REMARK  Name = 
REMARK  4 active torsions:
REMARK  status: ('A' for Active; 'I' for Inactive)
REMARK    1  A    between atoms: C_1  and  C_2
REMARK    2  A    between atoms: C_2  and  C_3
REMARK    3  A    between atoms: C_3  and  C_4
REMARK    4  A    between atoms: C_7  and  C_8
REMARK                            x       y       z     vdW  Elec       q    Type
REMARK                         _______ _______ _______ _____ _____    ______ ____
ROOT
ATOM      1  C   UNL     1      -0.245  11.397  19.946  0.00  0.00    +0.000 C 
ATOM      2  O   UNL     1      -0.176  11.485  21.389  0.00  0.00    +0.000 OA
ATOM      3  C   UNL     1      -0.583  12.685  21.922  0.00  0.00    +0.000 A 
ATOM      4  C   UNL     1      -1.771  12.709  22.653  0.00  0.00    +0.000 A 
ATOM      5  C   UNL     1      -2.163  13.879  23.310  0.00  0.00    +0.000 A 
ATOM      6  C   UNL     1      -1.337  15.005  23.297  0.00  0.00    +0.000 A 
ATOM      7  C   UNL     1      -0.117  14.972  22.620  0.00  0.00    +0.000 A 
ATOM      8  C   UNL     1       0.240  13.819  21.913  0.00  0.00    +0.000 A 
ATOM      9  N   UNL     1       1.396  13.827  21.106  0.00  0.00    +0.000 N 
ATOM     10  C   UNL     1       2.602  14.431  21.374  0.00  0.00    +0.000 A 
ATOM     11  C   UNL     1       3.451  14.186  20.316  0.00  0.00    +0.000 A 
ATOM     12  C   UNL     1       2.706  13.503  19.328  0.00  0.00    +0.000 A 
ATOM     13  C   UNL     1       1.439  13.292  19.837  0.00  0.00    +0.000 A 
ATOM     14  C   UNL     1       0.277  12.678  19.215  0.00  0.00    +0.000 C 
ATOM     15  O   UNL     1      -0.200  13.088  18.159  0.00  0.00    +0.000 OA
ENDROOT
BRANCH   1  16
ATOM     16  C   UNL     1       0.669  10.251  19.435  0.00  0.00    +0.000 A 
ATOM     17  C   UNL     1       0.936   9.142  20.264  0.00  0.00    +0.000 A 
ATOM     18  C   UNL     1       1.745   8.089  19.831  0.00  0.00    +0.000 A 
ATOM     19  C   UNL     1       2.305   8.116  18.553  0.00  0.00    +0.000 A 
ATOM     20  C   UNL     1       3.213   7.019  18.086  0.00  0.00    +0.000 C 
ATOM     21  C   UNL     1       2.018   9.196  17.710  0.00  0.00    +0.000 A 
ATOM     22  C   UNL     1       1.207  10.251  18.142  0.00  0.00    +0.000 A 
ENDBRANCH   1  16
BRANCH   1  24
ATOM     23  C   UNL     1      -1.847  10.213  18.311  0.00  0.00    +0.000 C 
ATOM     24  C   UNL     1      -1.720  11.058  19.585  0.00  0.00    +0.000 C 
ENDBRANCH   1  24
TORSDOF 2
ENDMDL
MODEL 9
REMARK VINA RESULT:      -7.0      8.161     10.391
REMARK  Name = 
REMARK  4 active torsions:
REMARK  status: ('A' for Active; 'I' for Inactive)
REMARK    1  A    between atoms: C_1  and  C_2
REMARK    2  A    between atoms: C_2  and  C_3
REMARK    3  A    between atoms: C_3  and  C_4
REMARK    4  A    between atoms: C_7  and  C_8
REMARK                            x       y       z     vdW  Elec       q    Type
REMARK                         _______ _______ _______ _____ _____    ______ ____
ROOT
ATOM      1  C   UNL     1       0.490  12.740  19.934  0.00  0.00    +0.000 C 
ATOM      2  O   UNL     1       0.044  14.117  19.917  0.00  0.00    +0.000 OA
ATOM      3  C   UNL     1       0.449  14.877  20.989  0.00  0.00    +0.000 A 
ATOM      4  C   UNL     1       1.385  15.886  20.761  0.00  0.00    +0.000 A 
ATOM      5  C   UNL     1       1.739  16.758  21.795  0.00  0.00    +0.000 A 
ATOM      6  C   UNL     1       1.109  16.667  23.038  0.00  0.00    +0.000 A 
ATOM      7  C   UNL     1       0.127  15.701  23.258  0.00  0.00    +0.000 A 
ATOM      8  C   UNL     1      -0.178  14.792  22.239  0.00  0.00    +0.000 A 
ATOM      9  N   UNL     1      -1.058  13.723  22.499  0.00  0.00    +0.000 N 
ATOM     10  C   UNL     1      -2.197  13.742  23.269  0.00  0.00    +0.000 A 
ATOM     11  C   UNL     1      -2.751  12.479  23.251  0.00  0.00    +0.000 A 
ATOM     12  C   UNL     1      -1.865  11.642  22.536  0.00  0.00    +0.000 A 
ATOM     13  C   UNL     1      -0.826  12.431  22.081  0.00  0.00    +0.000 A 
ATOM     14  C   UNL     1       0.367  12.059  21.337  0.00  0.00    +0.000 C 
ATOM     15  O   UNL     1       1.164  11.218  21.746  0.00  0.00    +0.000 OA
ENDROOT
BRANCH   1  16
ATOM     16  C   UNL     1      -0.397  11.878  18.997  0.00  0.00    +0.000 A 
ATOM     17  C   UNL     1      -1.596  12.409  18.478  0.00  0.00    +0.000 A 
ATOM     18  C   UNL     1      -2.412  11.664  17.624  0.00  0.00    +0.000 A 
ATOM     19  C   UNL     1      -2.046  10.366  17.262  0.00  0.00    +0.000 A 
ATOM     20  C   UNL     1      -2.930   9.533  16.384  0.00  0.00    +0.000 C 
ATOM     21  C   UNL     1      -0.841   9.842  17.744  0.00  0.00    +0.000 A 
ATOM     22  C   UNL     1      -0.023  10.589  18.600  0.00  0.00    +0.000 A 
ENDBRANCH   1  16
BRANCH   1  24
ATOM     23  C   UNL     1       2.082  13.423  18.025  0.00  0.00    +0.000 C 
ATOM     24  C   UNL     1       1.947  12.732  19.389  0.00  0.00    +0.000 C 
ENDBRANCH   1  24
TORSDOF 2
ENDMDL
