MODEL 1
REMARK VINA RESULT:      -7.8      0.000      0.000
REMARK  Name = 
REMARK  7 active torsions:
REMARK  status: ('A' for Active; 'I' for Inactive)
REMARK    1  A    between atoms: C_1  and  C_2
REMARK    2  A    between atoms: C_11  and  O_12
REMARK    3  A    between atoms: O_12  and  C_13
REMARK    4  A    between atoms: C_13  and  C_15
REMARK    5  A    between atoms: C_23  and  C_24
REMARK    6  A    between atoms: C_27  and  C_28
REMARK    7  A    between atoms: C_30  and  N_31
REMARK                            x       y       z     vdW  Elec       q    Type
REMARK                         _______ _______ _______ _____ _____    ______ ____
ROOT
ATOM      1  C   UNL     1      -2.120  13.237  20.186  0.00  0.00    +0.000 C 
ATOM      2  C   UNL     1      -0.739  13.543  20.808  0.00  0.00    +0.000 C 
ATOM      3  C   UNL     1       0.351  13.686  19.732  0.00  0.00    +0.000 C 
ATOM      4  C   UNL     1       0.588  12.367  18.978  0.00  0.00    +0.000 C 
ATOM      5  C   UNL     1       0.839  11.132  19.884  0.00  0.00    +0.000 C 
ATOM      6  C   UNL     1      -0.147  11.050  21.093  0.00  0.00    +0.000 C 
ATOM      7  C   UNL     1       0.323   9.949  22.060  0.00  0.00    +0.000 C 
ATOM      8  C   UNL     1       0.780   8.688  21.374  0.00  0.00    +0.000 C 
ATOM      9  C   UNL     1       1.044   8.573  20.058  0.00  0.00    +0.000 C 
ATOM     10  C   UNL     1       1.491   7.238  19.457  0.00  0.00    +0.000 C 
ATOM     11  C   UNL     1       2.765   7.404  18.616  0.00  0.00    +0.000 C 
ATOM     12  C   UNL     1       2.571   8.464  17.531  0.00  0.00    +0.000 C 
ATOM     13  C   UNL     1       2.187   9.807  18.169  0.00  0.00    +0.000 C 
ATOM     14  C   UNL     1       0.926   9.761  19.089  0.00  0.00    +0.000 C 
ATOM     15  C   UNL     1      -0.335   9.538  18.221  0.00  0.00    +0.000 C 
ATOM     16  C   UNL     1      -0.221  12.432  21.768  0.00  0.00    +0.000 C 
ATOM     17  C   UNL     1      -1.015  12.645  23.054  0.00  0.00    +0.000 C 
ATOM     18  C   UNL     1      -1.085  14.153  23.048  0.00  0.00    +0.000 C 
ATOM     19  C   UNL     1      -0.894  14.677  21.817  0.00  0.00    +0.000 C 
ENDROOT
BRANCH  19  20
ATOM     20  N   UNL     1      -0.774  16.033  21.486  0.00  0.00    +0.000 N 
ATOM     21  C   UNL     1      -1.740  16.856  20.931  0.00  0.00    +0.000 A 
ATOM     22  N   UNL     1      -1.257  18.037  20.627  0.00  0.00    +0.000 NA
ATOM     23  C   UNL     1       0.027  17.940  21.047  0.00  0.00    +0.000 A 
ATOM     24  N   UNL     1       0.352  16.790  21.638  0.00  0.00    +0.000 NA
ENDBRANCH  19  20
BRANCH  18  25
ATOM     25  C   UNL     1      -1.366  14.900  24.282  0.00  0.00    +0.000 C 
ATOM     26  O   UNL     1      -0.486  15.467  24.907  0.00  0.00    +0.000 OA
ENDBRANCH  18  25
BRANCH  11  27
ATOM     27  O   UNL     1       3.339   6.163  18.125  0.00  0.00    +0.000 OA
BRANCH  27  28
ATOM     28  C   UNL     1       3.863   5.216  18.947  0.00  0.00    +0.000 C 
ATOM     29  O   UNL     1       4.664   5.444  19.843  0.00  0.00    +0.000 OA
BRANCH  28  30
ATOM     30  C   UNL     1       3.384   3.808  18.541  0.00  0.00    +0.000 C 
ATOM     31  C   UNL     1       3.790   2.723  19.557  0.00  0.00    +0.000 C 
ATOM     32  C   UNL     1       2.988   2.799  20.855  0.00  0.00    +0.000 C 
ATOM     33  C   UNL     1       1.484   2.764  20.601  0.00  0.00    +0.000 C 
ATOM     34  C   UNL     1       1.056   3.807  19.573  0.00  0.00    +0.000 C 
ATOM     35  C   UNL     1       1.871   3.703  18.286  0.00  0.00    +0.000 C 
ENDBRANCH  28  30
ENDBRANCH  27  28
ENDBRANCH  11  27
TORSDOF 5
ENDMDL
MODEL 2
REMARK VINA RESULT:      -7.8      1.631      2.393
REMARK  Name = 
REMARK  7 active torsions:
REMARK  status: ('A' for Active; 'I' for Inactive)
REMARK    1  A    between atoms: C_1  and  C_2
REMARK    2  A    between atoms: C_11  and  O_12
REMARK    3  A    between atoms: O_12  and  C_13
REMARK    4  A    between atoms: C_13  and  C_15
REMARK    5  A    between atoms: C_23  and  C_24
REMARK    6  A    between atoms: C_27  and  C_28
REMARK    7  A    between atoms: C_30  and  N_31
REMARK                            x       y       z     vdW  Elec       q    Type
REMARK                         _______ _______ _______ _____ _____    ______ ____
ROOT
ATOM      1  C   UNL     1      -2.215  13.116  20.002  0.00  0.00    +0.000 C 
ATOM      2  C   UNL     1      -0.813  13.569  20.466  0.00  0.00    +0.000 C 
ATOM      3  C   UNL     1       0.179  13.644  19.291  0.00  0.00    +0.000 C 
ATOM      4  C   UNL     1       0.441  12.262  18.673  0.00  0.00    +0.000 C 
ATOM      5  C   UNL     1       0.842  11.158  19.688  0.00  0.00    +0.000 C 
ATOM      6  C   UNL     1      -0.039  11.164  20.978  0.00  0.00    +0.000 C 
ATOM      7  C   UNL     1       0.577  10.213  22.020  0.00  0.00    +0.000 C 
ATOM      8  C   UNL     1       1.060   8.907  21.444  0.00  0.00    +0.000 C 
ATOM      9  C   UNL     1       1.227   8.652  20.131  0.00  0.00    +0.000 C 
ATOM     10  C   UNL     1       1.712   7.283  19.649  0.00  0.00    +0.000 C 
ATOM     11  C   UNL     1       2.902   7.420  18.690  0.00  0.00    +0.000 C 
ATOM     12  C   UNL     1       2.556   8.332  17.512  0.00  0.00    +0.000 C 
ATOM     13  C   UNL     1       2.135   9.717  18.025  0.00  0.00    +0.000 C 
ATOM     14  C   UNL     1       0.956   9.709  19.049  0.00  0.00    +0.000 C 
ATOM     15  C   UNL     1      -0.351   9.315  18.321  0.00  0.00    +0.000 C 
ATOM     16  C   UNL     1      -0.150  12.610  21.497  0.00  0.00    +0.000 C 
ATOM     17  C   UNL     1      -0.853  12.927  22.813  0.00  0.00    +0.000 C 
ATOM     18  C   UNL     1      -1.021  14.418  22.643  0.00  0.00    +0.000 C 
ATOM     19  C   UNL     1      -0.962  14.803  21.350  0.00  0.00    +0.000 C 
ENDROOT
BRANCH  19  20
ATOM     20  N   UNL     1      -0.957  16.116  20.858  0.00  0.00    +0.000 N 
ATOM     21  C   UNL     1      -2.011  16.808  20.286  0.00  0.00    +0.000 A 
ATOM     22  N   UNL     1      -1.631  17.971  19.815  0.00  0.00    +0.000 NA
ATOM     23  C   UNL     1      -0.319  18.002  20.148  0.00  0.00    +0.000 A 
ATOM     24  N   UNL     1       0.122  16.952  20.841  0.00  0.00    +0.000 NA
ENDBRANCH  19  20
BRANCH  18  25
ATOM     25  C   UNL     1      -1.253  15.289  23.805  0.00  0.00    +0.000 C 
ATOM     26  O   UNL     1      -0.928  14.959  24.933  0.00  0.00    +0.000 OA
ENDBRANCH  18  25
BRANCH  11  27
ATOM     27  O   UNL     1       3.516   6.164  18.294  0.00  0.00    +0.000 OA
BRANCH  27  28
ATOM     28  C   UNL     1       4.833   5.892  18.493  0.00  0.00    +0.000 C 
ATOM     29  O   UNL     1       5.278   5.303  19.468  0.00  0.00    +0.000 OA
BRANCH  28  30
ATOM     30  C   UNL     1       5.698   6.506  17.374  0.00  0.00    +0.000 C 
ATOM     31  C   UNL     1       7.176   6.080  17.459  0.00  0.00    +0.000 C 
ATOM     32  C   UNL     1       7.396   4.623  17.053  0.00  0.00    +0.000 C 
ATOM     33  C   UNL     1       6.826   4.322  15.670  0.00  0.00    +0.000 C 
ATOM     34  C   UNL     1       5.371   4.764  15.545  0.00  0.00    +0.000 C 
ATOM     35  C   UNL     1       5.184   6.225  15.952  0.00  0.00    +0.000 C 
ENDBRANCH  28  30
ENDBRANCH  27  28
ENDBRANCH  11  27
TORSDOF 5
ENDMDL
MODEL 3
REMARK VINA RESULT:      -7.6      0.945      1.006
REMARK  Name = 
REMARK  7 active torsions:
REMARK  status: ('A' for Active; 'I' for Inactive)
REMARK    1  A    between atoms: C_1  and  C_2
REMARK    2  A    between atoms: C_11  and  O_12
REMARK    3  A    between atoms: O_12  and  C_13
REMARK    4  A    between atoms: C_13  and  C_15
REMARK    5  A    between atoms: C_23  and  C_24
REMARK    6  A    between atoms: C_27  and  C_28
REMARK    7  A    between atoms: C_30  and  N_31
REMARK                            x       y       z     vdW  Elec       q    Type
REMARK                         _______ _______ _______ _____ _____    ______ ____
ROOT
ATOM      1  C   UNL     1      -2.797  12.736  20.253  0.00  0.00    +0.000 C 
ATOM      2  C   UNL     1      -1.453  13.306  20.761  0.00  0.00    +0.000 C 
ATOM      3  C   UNL     1      -0.477  13.579  19.603  0.00  0.00    +0.000 C 
ATOM      4  C   UNL     1      -0.063  12.285  18.885  0.00  0.00    +0.000 C 
ATOM      5  C   UNL     1       0.460  11.159  19.817  0.00  0.00    +0.000 C 
ATOM      6  C   UNL     1      -0.416  10.969  21.096  0.00  0.00    +0.000 C 
ATOM      7  C   UNL     1       0.302  10.016  22.069  0.00  0.00    +0.000 C 
ATOM      8  C   UNL     1       0.927   8.819  21.400  0.00  0.00    +0.000 C 
ATOM      9  C   UNL     1       1.120   8.685  20.073  0.00  0.00    +0.000 C 
ATOM     10  C   UNL     1       1.754   7.419  19.493  0.00  0.00    +0.000 C 
ATOM     11  C   UNL     1       2.922   7.759  18.556  0.00  0.00    +0.000 C 
ATOM     12  C   UNL     1       2.476   8.714  17.447  0.00  0.00    +0.000 C 
ATOM     13  C   UNL     1       1.904  10.001  18.060  0.00  0.00    +0.000 C 
ATOM     14  C   UNL     1       0.734   9.784  19.071  0.00  0.00    +0.000 C 
ATOM     15  C   UNL     1      -0.522   9.304  18.305  0.00  0.00    +0.000 C 
ATOM     16  C   UNL     1      -0.687  12.350  21.722  0.00  0.00    +0.000 C 
ATOM     17  C   UNL     1      -1.421  12.487  23.053  0.00  0.00    +0.000 C 
ATOM     18  C   UNL     1      -1.754  13.959  22.994  0.00  0.00    +0.000 C 
ATOM     19  C   UNL     1      -1.739  14.445  21.734  0.00  0.00    +0.000 C 
ENDROOT
BRANCH  19  20
ATOM     20  N   UNL     1      -1.880  15.783  21.343  0.00  0.00    +0.000 N 
ATOM     21  C   UNL     1      -2.997  16.390  20.793  0.00  0.00    +0.000 A 
ATOM     22  N   UNL     1      -2.748  17.623  20.422  0.00  0.00    +0.000 NA
ATOM     23  C   UNL     1      -1.456  17.781  20.797  0.00  0.00    +0.000 A 
ATOM     24  N   UNL     1      -0.908  16.739  21.421  0.00  0.00    +0.000 NA
ENDBRANCH  19  20
BRANCH  18  25
ATOM     25  C   UNL     1      -2.081  14.707  24.216  0.00  0.00    +0.000 C 
ATOM     26  O   UNL     1      -2.971  14.353  24.971  0.00  0.00    +0.000 OA
ENDBRANCH  18  25
BRANCH  11  27
ATOM     27  O   UNL     1       3.672   6.612  18.072  0.00  0.00    +0.000 OA
BRANCH  27  28
ATOM     28  C   UNL     1       3.587   5.381  18.641  0.00  0.00    +0.000 C 
ATOM     29  O   UNL     1       4.000   5.106  19.759  0.00  0.00    +0.000 OA
BRANCH  28  30
ATOM     30  C   UNL     1       2.986   4.358  17.656  0.00  0.00    +0.000 C 
ATOM     31  C   UNL     1       3.652   2.973  17.754  0.00  0.00    +0.000 C 
ATOM     32  C   UNL     1       3.267   2.219  19.027  0.00  0.00    +0.000 C 
ATOM     33  C   UNL     1       1.754   2.103  19.186  0.00  0.00    +0.000 C 
ATOM     34  C   UNL     1       1.062   3.457  19.061  0.00  0.00    +0.000 C 
ATOM     35  C   UNL     1       1.463   4.183  17.778  0.00  0.00    +0.000 C 
ENDBRANCH  28  30
ENDBRANCH  27  28
ENDBRANCH  11  27
TORSDOF 5
ENDMDL
MODEL 4
REMARK VINA RESULT:      -7.6      3.357      4.563
REMARK  Name = 
REMARK  7 active torsions:
REMARK  status: ('A' for Active; 'I' for Inactive)
REMARK    1  A    between atoms: C_1  and  C_2
REMARK    2  A    between atoms: C_11  and  O_12
REMARK    3  A    between atoms: O_12  and  C_13
REMARK    4  A    between atoms: C_13  and  C_15
REMARK    5  A    between atoms: C_23  and  C_24
REMARK    6  A    between atoms: C_27  and  C_28
REMARK    7  A    between atoms: C_30  and  N_31
REMARK                            x       y       z     vdW  Elec       q    Type
REMARK                         _______ _______ _______ _____ _____    ______ ____
ROOT
ATOM      1  C   UNL     1      -3.016  14.579  21.125  0.00  0.00    +0.000 C 
ATOM      2  C   UNL     1      -3.882  13.309  21.275  0.00  0.00    +0.000 C 
ATOM      3  C   UNL     1      -3.443  12.460  22.482  0.00  0.00    +0.000 C 
ATOM      4  C   UNL     1      -2.023  11.901  22.303  0.00  0.00    +0.000 C 
ATOM      5  C   UNL     1      -1.777  11.156  20.963  0.00  0.00    +0.000 C 
ATOM      6  C   UNL     1      -2.365  11.910  19.728  0.00  0.00    +0.000 C 
ATOM      7  C   UNL     1      -2.294  10.996  18.492  0.00  0.00    +0.000 C 
ATOM      8  C   UNL     1      -0.997  10.240  18.365  0.00  0.00    +0.000 C 
ATOM      9  C   UNL     1      -0.075  10.113  19.340  0.00  0.00    +0.000 C 
ATOM     10  C   UNL     1       1.220   9.333  19.103  0.00  0.00    +0.000 C 
ATOM     11  C   UNL     1       1.454   8.292  20.207  0.00  0.00    +0.000 C 
ATOM     12  C   UNL     1       1.446   8.947  21.589  0.00  0.00    +0.000 C 
ATOM     13  C   UNL     1       0.109   9.667  21.822  0.00  0.00    +0.000 C 
ATOM     14  C   UNL     1      -0.266  10.725  20.737  0.00  0.00    +0.000 C 
ATOM     15  C   UNL     1       0.685  11.940  20.854  0.00  0.00    +0.000 C 
ATOM     16  C   UNL     1      -3.806  12.347  20.053  0.00  0.00    +0.000 C 
ATOM     17  C   UNL     1      -4.690  13.007  18.999  0.00  0.00    +0.000 C 
ATOM     18  C   UNL     1      -5.767  13.562  19.901  0.00  0.00    +0.000 C 
ATOM     19  C   UNL     1      -5.352  13.701  21.179  0.00  0.00    +0.000 C 
ENDROOT
BRANCH  19  20
ATOM     20  N   UNL     1      -6.132  14.068  22.285  0.00  0.00    +0.000 N 
ATOM     21  C   UNL     1      -6.165  15.295  22.926  0.00  0.00    +0.000 A 
ATOM     22  N   UNL     1      -6.907  15.260  24.006  0.00  0.00    +0.000 NA
ATOM     23  C   UNL     1      -7.370  13.988  23.996  0.00  0.00    +0.000 A 
ATOM     24  N   UNL     1      -7.000  13.251  22.950  0.00  0.00    +0.000 NA
ENDBRANCH  19  20
BRANCH  18  25
ATOM     25  C   UNL     1      -7.088  13.921  19.366  0.00  0.00    +0.000 C 
ATOM     26  O   UNL     1      -7.759  13.132  18.722  0.00  0.00    +0.000 OA
ENDBRANCH  18  25
BRANCH  11  27
ATOM     27  O   UNL     1       2.586   7.409  19.986  0.00  0.00    +0.000 OA
BRANCH  27  28
ATOM     28  C   UNL     1       2.593   6.444  19.029  0.00  0.00    +0.000 C 
ATOM     29  O   UNL     1       2.180   6.597  17.888  0.00  0.00    +0.000 OA
BRANCH  28  30
ATOM     30  C   UNL     1       3.103   5.105  19.600  0.00  0.00    +0.000 C 
ATOM     31  C   UNL     1       2.284   4.623  20.812  0.00  0.00    +0.000 C 
ATOM     32  C   UNL     1       0.895   4.116  20.425  0.00  0.00    +0.000 C 
ATOM     33  C   UNL     1       0.961   3.032  19.352  0.00  0.00    +0.000 C 
ATOM     34  C   UNL     1       1.795   3.470  18.151  0.00  0.00    +0.000 C 
ATOM     35  C   UNL     1       3.177   3.966  18.570  0.00  0.00    +0.000 C 
ENDBRANCH  28  30
ENDBRANCH  27  28
ENDBRANCH  11  27
TORSDOF 5
ENDMDL
MODEL 5
REMARK VINA RESULT:      -7.6      1.497      1.921
REMARK  Name = 
REMARK  7 active torsions:
REMARK  status: ('A' for Active; 'I' for Inactive)
REMARK    1  A    between atoms: C_1  and  C_2
REMARK    2  A    between atoms: C_11  and  O_12
REMARK    3  A    between atoms: O_12  and  C_13
REMARK    4  A    between atoms: C_13  and  C_15
REMARK    5  A    between atoms: C_23  and  C_24
REMARK    6  A    between atoms: C_27  and  C_28
REMARK    7  A    between atoms: C_30  and  N_31
REMARK                            x       y       z     vdW  Elec       q    Type
REMARK                         _______ _______ _______ _____ _____    ______ ____
ROOT
ATOM      1  C   UNL     1      -3.298  13.365  20.863  0.00  0.00    +0.000 C 
ATOM      2  C   UNL     1      -1.975  13.809  21.527  0.00  0.00    +0.000 C 
ATOM      3  C   UNL     1      -0.842  13.958  20.496  0.00  0.00    +0.000 C 
ATOM      4  C   UNL     1      -0.478  12.613  19.847  0.00  0.00    +0.000 C 
ATOM      5  C   UNL     1      -0.191  11.461  20.847  0.00  0.00    +0.000 C 
ATOM      6  C   UNL     1      -1.231  11.388  22.010  0.00  0.00    +0.000 C 
ATOM      7  C   UNL     1      -0.737  10.389  23.073  0.00  0.00    +0.000 C 
ATOM      8  C   UNL     1      -0.161   9.122  22.498  0.00  0.00    +0.000 C 
ATOM      9  C   UNL     1       0.178   8.939  21.206  0.00  0.00    +0.000 C 
ATOM     10  C   UNL     1       0.745   7.604  20.721  0.00  0.00    +0.000 C 
ATOM     11  C   UNL     1       2.046   7.804  19.932  0.00  0.00    +0.000 C 
ATOM     12  C   UNL     1       1.838   8.775  18.768  0.00  0.00    +0.000 C 
ATOM     13  C   UNL     1       1.331  10.126  19.293  0.00  0.00    +0.000 C 
ATOM     14  C   UNL     1       0.030  10.050  20.154  0.00  0.00    +0.000 C 
ATOM     15  C   UNL     1      -1.166   9.681  19.244  0.00  0.00    +0.000 C 
ATOM     16  C   UNL     1      -1.433  12.803  22.584  0.00  0.00    +0.000 C 
ATOM     17  C   UNL     1      -2.306  13.042  23.813  0.00  0.00    +0.000 C 
ATOM     18  C   UNL     1      -2.477  14.538  23.700  0.00  0.00    +0.000 C 
ATOM     19  C   UNL     1      -2.259  14.992  22.447  0.00  0.00    +0.000 C 
ENDROOT
BRANCH  19  20
ATOM     20  N   UNL     1      -2.215  16.329  22.028  0.00  0.00    +0.000 N 
ATOM     21  C   UNL     1      -1.181  17.234  22.198  0.00  0.00    +0.000 A 
ATOM     22  N   UNL     1      -1.517  18.438  21.802  0.00  0.00    +0.000 NA
ATOM     23  C   UNL     1      -2.777  18.248  21.342  0.00  0.00    +0.000 A 
ATOM     24  N   UNL     1      -3.218  16.991  21.382  0.00  0.00    +0.000 NA
ENDBRANCH  19  20
BRANCH  18  25
ATOM     25  C   UNL     1      -2.872  15.342  24.866  0.00  0.00    +0.000 C 
ATOM     26  O   UNL     1      -3.937  15.936  24.909  0.00  0.00    +0.000 OA
ENDBRANCH  18  25
BRANCH  11  27
ATOM     27  O   UNL     1       2.729   6.578  19.555  0.00  0.00    +0.000 OA
BRANCH  27  28
ATOM     28  C   UNL     1       2.256   5.344  19.870  0.00  0.00    +0.000 C 
ATOM     29  O   UNL     1       2.281   4.859  20.992  0.00  0.00    +0.000 OA
BRANCH  28  30
ATOM     30  C   UNL     1       1.769   4.602  18.608  0.00  0.00    +0.000 C 
ATOM     31  C   UNL     1       2.899   4.348  17.593  0.00  0.00    +0.000 C 
ATOM     32  C   UNL     1       3.876   3.266  18.051  0.00  0.00    +0.000 C 
ATOM     33  C   UNL     1       3.162   1.963  18.402  0.00  0.00    +0.000 C 
ATOM     34  C   UNL     1       2.015   2.188  19.383  0.00  0.00    +0.000 C 
ATOM     35  C   UNL     1       1.055   3.270  18.895  0.00  0.00    +0.000 C 
ENDBRANCH  28  30
ENDBRANCH  27  28
ENDBRANCH  11  27
TORSDOF 5
ENDMDL
MODEL 6
REMARK VINA RESULT:      -7.6      3.254      4.544
REMARK  Name = 
REMARK  7 active torsions:
REMARK  status: ('A' for Active; 'I' for Inactive)
REMARK    1  A    between atoms: C_1  and  C_2
REMARK    2  A    between atoms: C_11  and  O_12
REMARK    3  A    between atoms: O_12  and  C_13
REMARK    4  A    between atoms: C_13  and  C_15
REMARK    5  A    between atoms: C_23  and  C_24
REMARK    6  A    between atoms: C_27  and  C_28
REMARK    7  A    between atoms: C_30  and  N_31
REMARK                            x       y       z     vdW  Elec       q    Type
REMARK                         _______ _______ _______ _____ _____    ______ ____
ROOT
ATOM      1  C   UNL     1      -2.768  14.701  21.139  0.00  0.00    +0.000 C 
ATOM      2  C   UNL     1      -3.666  13.463  21.358  0.00  0.00    +0.000 C 
ATOM      3  C   UNL     1      -3.205  12.632  22.569  0.00  0.00    +0.000 C 
ATOM      4  C   UNL     1      -1.812  12.023  22.348  0.00  0.00    +0.000 C 
ATOM      5  C   UNL     1      -1.644  11.237  21.020  0.00  0.00    +0.000 C 
ATOM      6  C   UNL     1      -2.259  11.978  19.789  0.00  0.00    +0.000 C 
ATOM      7  C   UNL     1      -2.268  11.030  18.576  0.00  0.00    +0.000 C 
ATOM      8  C   UNL     1      -1.001  10.230  18.418  0.00  0.00    +0.000 C 
ATOM      9  C   UNL     1      -0.044  10.098  19.357  0.00  0.00    +0.000 C 
ATOM     10  C   UNL     1       1.214   9.270  19.090  0.00  0.00    +0.000 C 
ATOM     11  C   UNL     1       1.461   8.251  20.211  0.00  0.00    +0.000 C 
ATOM     12  C   UNL     1       1.530   8.940  21.574  0.00  0.00    +0.000 C 
ATOM     13  C   UNL     1       0.227   9.709  21.841  0.00  0.00    +0.000 C 
ATOM     14  C   UNL     1      -0.159  10.751  20.744  0.00  0.00    +0.000 C 
ATOM     15  C   UNL     1       0.834  11.936  20.791  0.00  0.00    +0.000 C 
ATOM     16  C   UNL     1      -3.671  12.469  20.160  0.00  0.00    +0.000 C 
ATOM     17  C   UNL     1      -4.576  13.131  19.125  0.00  0.00    +0.000 C 
ATOM     18  C   UNL     1      -5.597  13.744  20.054  0.00  0.00    +0.000 C 
ATOM     19  C   UNL     1      -5.127  13.901  21.311  0.00  0.00    +0.000 C 
ENDROOT
BRANCH  19  20
ATOM     20  N   UNL     1      -5.848  14.321  22.437  0.00  0.00    +0.000 N 
ATOM     21  C   UNL     1      -6.721  13.574  23.209  0.00  0.00    +0.000 A 
ATOM     22  N   UNL     1      -7.326  14.309  24.110  0.00  0.00    +0.000 NA
ATOM     23  C   UNL     1      -6.773  15.529  23.905  0.00  0.00    +0.000 A 
ATOM     24  N   UNL     1      -5.827  15.579  22.967  0.00  0.00    +0.000 NA
ENDBRANCH  19  20
BRANCH  18  25
ATOM     25  C   UNL     1      -6.927  14.131  19.564  0.00  0.00    +0.000 C 
ATOM     26  O   UNL     1      -7.905  13.419  19.720  0.00  0.00    +0.000 OA
ENDBRANCH  18  25
BRANCH  11  27
ATOM     27  O   UNL     1       2.555   7.326  19.968  0.00  0.00    +0.000 OA
BRANCH  27  28
ATOM     28  C   UNL     1       2.360   6.013  19.678  0.00  0.00    +0.000 C 
ATOM     29  O   UNL     1       2.217   5.133  20.515  0.00  0.00    +0.000 OA
BRANCH  28  30
ATOM     30  C   UNL     1       2.438   5.767  18.158  0.00  0.00    +0.000 C 
ATOM     31  C   UNL     1       3.710   6.358  17.522  0.00  0.00    +0.000 C 
ATOM     32  C   UNL     1       4.971   5.571  17.878  0.00  0.00    +0.000 C 
ATOM     33  C   UNL     1       4.836   4.090  17.538  0.00  0.00    +0.000 C 
ATOM     34  C   UNL     1       3.566   3.484  18.128  0.00  0.00    +0.000 C 
ATOM     35  C   UNL     1       2.324   4.288  17.750  0.00  0.00    +0.000 C 
ENDBRANCH  28  30
ENDBRANCH  27  28
ENDBRANCH  11  27
TORSDOF 5
ENDMDL
MODEL 7
REMARK VINA RESULT:      -7.5      2.928      4.147
REMARK  Name = 
REMARK  7 active torsions:
REMARK  status: ('A' for Active; 'I' for Inactive)
REMARK    1  A    between atoms: C_1  and  C_2
REMARK    2  A    between atoms: C_11  and  O_12
REMARK    3  A    between atoms: O_12  and  C_13
REMARK    4  A    between atoms: C_13  and  C_15
REMARK    5  A    between atoms: C_23  and  C_24
REMARK    6  A    between atoms: C_27  and  C_28
REMARK    7  A    between atoms: C_30  and  N_31
REMARK                            x       y       z     vdW  Elec       q    Type
REMARK                         _______ _______ _______ _____ _____    ______ ____
ROOT
ATOM      1  C   UNL     1      -2.389  14.334  20.595  0.00  0.00    +0.000 C 
ATOM      2  C   UNL     1      -3.252  13.086  20.887  0.00  0.00    +0.000 C 
ATOM      3  C   UNL     1      -2.644  12.223  22.006  0.00  0.00    +0.000 C 
ATOM      4  C   UNL     1      -1.288  11.627  21.598  0.00  0.00    +0.000 C 
ATOM      5  C   UNL     1      -1.284  10.880  20.237  0.00  0.00    +0.000 C 
ATOM      6  C   UNL     1      -2.046  11.653  19.114  0.00  0.00    +0.000 C 
ATOM      7  C   UNL     1      -2.203  10.741  17.883  0.00  0.00    +0.000 C 
ATOM      8  C   UNL     1      -0.965   9.953  17.547  0.00  0.00    +0.000 C 
ATOM      9  C   UNL     1       0.101   9.798  18.357  0.00  0.00    +0.000 C 
ATOM     10  C   UNL     1       1.318   8.984  17.913  0.00  0.00    +0.000 C 
ATOM     11  C   UNL     1       1.701   7.934  18.965  0.00  0.00    +0.000 C 
ATOM     12  C   UNL     1       1.937   8.584  20.329  0.00  0.00    +0.000 C 
ATOM     13  C   UNL     1       0.677   9.339  20.777  0.00  0.00    +0.000 C 
ATOM     14  C   UNL     1       0.157  10.409  19.766  0.00  0.00    +0.000 C 
ATOM     15  C   UNL     1       1.146  11.598  19.725  0.00  0.00    +0.000 C 
ATOM     16  C   UNL     1      -3.402  12.127  19.670  0.00  0.00    +0.000 C 
ATOM     17  C   UNL     1      -4.429  12.814  18.774  0.00  0.00    +0.000 C 
ATOM     18  C   UNL     1      -5.329  13.394  19.839  0.00  0.00    +0.000 C 
ATOM     19  C   UNL     1      -4.707  13.518  21.032  0.00  0.00    +0.000 C 
ENDROOT
BRANCH  19  20
ATOM     20  N   UNL     1      -5.285  13.902  22.250  0.00  0.00    +0.000 N 
ATOM     21  C   UNL     1      -6.083  13.138  23.085  0.00  0.00    +0.000 A 
ATOM     22  N   UNL     1      -6.563  13.845  24.080  0.00  0.00    +0.000 NA
ATOM     23  C   UNL     1      -6.007  15.061  23.864  0.00  0.00    +0.000 A 
ATOM     24  N   UNL     1      -5.173  15.134  22.827  0.00  0.00    +0.000 NA
ENDBRANCH  19  20
BRANCH  18  25
ATOM     25  C   UNL     1      -6.710  13.789  19.527  0.00  0.00    +0.000 C 
ATOM     26  O   UNL     1      -7.052  14.959  19.484  0.00  0.00    +0.000 OA
ENDBRANCH  18  25
BRANCH  11  27
ATOM     27  O   UNL     1       2.759   7.022  18.562  0.00  0.00    +0.000 OA
BRANCH  27  28
ATOM     28  C   UNL     1       3.025   5.864  19.223  0.00  0.00    +0.000 C 
ATOM     29  O   UNL     1       4.087   5.612  19.775  0.00  0.00    +0.000 OA
BRANCH  28  30
ATOM     30  C   UNL     1       1.847   4.877  19.103  0.00  0.00    +0.000 C 
ATOM     31  C   UNL     1       1.638   4.370  17.663  0.00  0.00    +0.000 C 
ATOM     32  C   UNL     1       2.720   3.387  17.218  0.00  0.00    +0.000 C 
ATOM     33  C   UNL     1       2.863   2.217  18.187  0.00  0.00    +0.000 C 
ATOM     34  C   UNL     1       3.039   2.688  19.627  0.00  0.00    +0.000 C 
ATOM     35  C   UNL     1       1.941   3.664  20.044  0.00  0.00    +0.000 C 
ENDBRANCH  28  30
ENDBRANCH  27  28
ENDBRANCH  11  27
TORSDOF 5
ENDMDL
MODEL 8
REMARK VINA RESULT:      -7.5      1.401      1.705
REMARK  Name = 
REMARK  7 active torsions:
REMARK  status: ('A' for Active; 'I' for Inactive)
REMARK    1  A    between atoms: C_1  and  C_2
REMARK    2  A    between atoms: C_11  and  O_12
REMARK    3  A    between atoms: O_12  and  C_13
REMARK    4  A    between atoms: C_13  and  C_15
REMARK    5  A    between atoms: C_23  and  C_24
REMARK    6  A    between atoms: C_27  and  C_28
REMARK    7  A    between atoms: C_30  and  N_31
REMARK                            x       y       z     vdW  Elec       q    Type
REMARK                         _______ _______ _______ _____ _____    ______ ____
ROOT
ATOM      1  C   UNL     1      -0.877  12.598  18.813  0.00  0.00    +0.000 C 
ATOM      2  C   UNL     1       0.444  12.853  19.574  0.00  0.00    +0.000 C 
ATOM      3  C   UNL     1       1.665  12.752  18.643  0.00  0.00    +0.000 C 
ATOM      4  C   UNL     1       1.846  11.331  18.086  0.00  0.00    +0.000 C 
ATOM      5  C   UNL     1       1.851  10.206  19.156  0.00  0.00    +0.000 C 
ATOM      6  C   UNL     1       0.723  10.373  20.223  0.00  0.00    +0.000 C 
ATOM      7  C   UNL     1       0.950   9.368  21.367  0.00  0.00    +0.000 C 
ATOM      8  C   UNL     1       1.347   7.992  20.900  0.00  0.00    +0.000 C 
ATOM      9  C   UNL     1       1.754   7.683  19.653  0.00  0.00    +0.000 C 
ATOM     10  C   UNL     1       2.122   6.246  19.277  0.00  0.00    +0.000 C 
ATOM     11  C   UNL     1       3.498   6.182  18.600  0.00  0.00    +0.000 C 
ATOM     12  C   UNL     1       3.554   7.106  17.382  0.00  0.00    +0.000 C 
ATOM     13  C   UNL     1       3.243   8.550  17.802  0.00  0.00    +0.000 C 
ATOM     14  C   UNL     1       1.884   8.741  18.545  0.00  0.00    +0.000 C 
ATOM     15  C   UNL     1       0.720   8.525  17.548  0.00  0.00    +0.000 C 
ATOM     16  C   UNL     1       0.719  11.832  20.717  0.00  0.00    +0.000 C 
ATOM     17  C   UNL     1      -0.198  12.282  21.851  0.00  0.00    +0.000 C 
ATOM     18  C   UNL     1      -0.101  13.777  21.660  0.00  0.00    +0.000 C 
ATOM     19  C   UNL     1       0.292  14.117  20.414  0.00  0.00    +0.000 C 
ENDROOT
BRANCH  19  20
ATOM     20  N   UNL     1       0.598  15.402  19.945  0.00  0.00    +0.000 N 
ATOM     21  C   UNL     1      -0.185  16.219  19.147  0.00  0.00    +0.000 A 
ATOM     22  N   UNL     1       0.456  17.304  18.784  0.00  0.00    +0.000 NA
ATOM     23  C   UNL     1       1.646  17.160  19.415  0.00  0.00    +0.000 A 
ATOM     24  N   UNL     1       1.759  16.078  20.185  0.00  0.00    +0.000 NA
ENDBRANCH  19  20
BRANCH  18  25
ATOM     25  C   UNL     1      -0.447  14.701  22.751  0.00  0.00    +0.000 C 
ATOM     26  O   UNL     1      -0.826  14.301  23.839  0.00  0.00    +0.000 OA
ENDBRANCH  18  25
BRANCH  11  27
ATOM     27  O   UNL     1       3.990   4.840  18.338  0.00  0.00    +0.000 OA
BRANCH  27  28
ATOM     28  C   UNL     1       4.761   4.152  19.220  0.00  0.00    +0.000 C 
ATOM     29  O   UNL     1       5.735   4.616  19.796  0.00  0.00    +0.000 OA
BRANCH  28  30
ATOM     30  C   UNL     1       4.301   2.684  19.326  0.00  0.00    +0.000 C 
ATOM     31  C   UNL     1       3.602   2.373  20.663  0.00  0.00    +0.000 C 
ATOM     32  C   UNL     1       2.206   2.988  20.758  0.00  0.00    +0.000 C 
ATOM     33  C   UNL     1       1.323   2.587  19.580  0.00  0.00    +0.000 C 
ATOM     34  C   UNL     1       2.003   2.854  18.241  0.00  0.00    +0.000 C 
ATOM     35  C   UNL     1       3.393   2.222  18.175  0.00  0.00    +0.000 C 
ENDBRANCH  28  30
ENDBRANCH  27  28
ENDBRANCH  11  27
TORSDOF 5
ENDMDL
MODEL 9
REMARK VINA RESULT:      -7.5      1.523      2.057
REMARK  Name = 
REMARK  7 active torsions:
REMARK  status: ('A' for Active; 'I' for Inactive)
REMARK    1  A    between atoms: C_1  and  C_2
REMARK    2  A    between atoms: C_11  and  O_12
REMARK    3  A    between atoms: O_12  and  C_13
REMARK    4  A    between atoms: C_13  and  C_15
REMARK    5  A    between atoms: C_23  and  C_24
REMARK    6  A    between atoms: C_27  and  C_28
REMARK    7  A    between atoms: C_30  and  N_31
REMARK                            x       y       z     vdW  Elec       q    Type
REMARK                         _______ _______ _______ _____ _____    ______ ____
ROOT
ATOM      1  C   UNL     1      -0.853  12.385  18.487  0.00  0.00    +0.000 C 
ATOM      2  C   UNL     1       0.441  12.725  19.261  0.00  0.00    +0.000 C 
ATOM      3  C   UNL     1       1.693  12.550  18.383  0.00  0.00    +0.000 C 
ATOM      4  C   UNL     1       1.902  11.084  17.971  0.00  0.00    +0.000 C 
ATOM      5  C   UNL     1       1.881  10.066  19.143  0.00  0.00    +0.000 C 
ATOM      6  C   UNL     1       0.717  10.322  20.154  0.00  0.00    +0.000 C 
ATOM      7  C   UNL     1       0.916   9.434  21.395  0.00  0.00    +0.000 C 
ATOM      8  C   UNL     1       1.338   8.024  21.075  0.00  0.00    +0.000 C 
ATOM      9  C   UNL     1       1.788   7.601  19.876  0.00  0.00    +0.000 C 
ATOM     10  C   UNL     1       2.180   6.139  19.652  0.00  0.00    +0.000 C 
ATOM     11  C   UNL     1       3.577   6.026  19.028  0.00  0.00    +0.000 C 
ATOM     12  C   UNL     1       3.665   6.830  17.729  0.00  0.00    +0.000 C 
ATOM     13  C   UNL     1       3.330   8.304  17.999  0.00  0.00    +0.000 C 
ATOM     14  C   UNL     1       1.945   8.550  18.677  0.00  0.00    +0.000 C 
ATOM     15  C   UNL     1       0.816   8.227  17.669  0.00  0.00    +0.000 C 
ATOM     16  C   UNL     1       0.686  11.822  20.504  0.00  0.00    +0.000 C 
ATOM     17  C   UNL     1      -0.270  12.368  21.561  0.00  0.00    +0.000 C 
ATOM     18  C   UNL     1      -0.179  13.839  21.231  0.00  0.00    +0.000 C 
ATOM     19  C   UNL     1       0.252  14.062  19.970  0.00  0.00    +0.000 C 
ENDROOT
BRANCH  19  20
ATOM     20  N   UNL     1       0.562  15.300  19.390  0.00  0.00    +0.000 N 
ATOM     21  C   UNL     1       1.762  15.988  19.458  0.00  0.00    +0.000 A 
ATOM     22  N   UNL     1       1.673  17.177  18.913  0.00  0.00    +0.000 NA
ATOM     23  C   UNL     1       0.394  17.193  18.466  0.00  0.00    +0.000 A 
ATOM     24  N   UNL     1      -0.294  16.069  18.656  0.00  0.00    +0.000 NA
ENDBRANCH  19  20
BRANCH  18  25
ATOM     25  C   UNL     1      -0.567  14.858  22.216  0.00  0.00    +0.000 C 
ATOM     26  O   UNL     1      -0.197  14.807  23.377  0.00  0.00    +0.000 OA
ENDBRANCH  18  25
BRANCH  11  27
ATOM     27  O   UNL     1       4.088   4.671  18.911  0.00  0.00    +0.000 OA
BRANCH  27  28
ATOM     28  C   UNL     1       3.480   3.716  18.159  0.00  0.00    +0.000 C 
ATOM     29  O   UNL     1       3.069   3.890  17.021  0.00  0.00    +0.000 OA
BRANCH  28  30
ATOM     30  C   UNL     1       3.293   2.415  18.966  0.00  0.00    +0.000 C 
ATOM     31  C   UNL     1       3.636   2.584  20.459  0.00  0.00    +0.000 C 
ATOM     32  C   UNL     1       2.589   3.398  21.218  0.00  0.00    +0.000 C 
ATOM     33  C   UNL     1       1.186   2.825  21.049  0.00  0.00    +0.000 C 
ATOM     34  C   UNL     1       0.830   2.615  19.580  0.00  0.00    +0.000 C 
ATOM     35  C   UNL     1       1.891   1.795  18.850  0.00  0.00    +0.000 C 
ENDBRANCH  28  30
ENDBRANCH  27  28
ENDBRANCH  11  27
TORSDOF 5
ENDMDL
