MODEL 1
REMARK VINA RESULT:      -7.9      0.000      0.000
REMARK  Name = 
REMARK  8 active torsions:
REMARK  status: ('A' for Active; 'I' for Inactive)
REMARK    1  A    between atoms: C_2  and  C_3
REMARK    2  A    between atoms: C_3  and  C_4
REMARK    3  A    between atoms: C_7  and  O_8
REMARK    4  A    between atoms: C_9  and  C_10
REMARK    5  A    between atoms: C_12  and  C_13
REMARK    6  A    between atoms: C_15  and  O_16
REMARK    7  A    between atoms: C_17  and  C_18
REMARK    8  A    between atoms: C_18  and  C_19
REMARK                            x       y       z     vdW  Elec       q    Type
REMARK                         _______ _______ _______ _____ _____    ______ ____
ROOT
ATOM      1  C   UNL     1       4.997   4.821  15.988  0.00  0.00    +0.000 A 
ATOM      2  C   UNL     1       4.578   6.113  16.357  0.00  0.00    +0.000 A 
ATOM      3  C   UNL     1       3.918   6.344  17.572  0.00  0.00    +0.000 A 
ATOM      4  C   UNL     1       3.614   5.282  18.431  0.00  0.00    +0.000 A 
ATOM      5  C   UNL     1       3.969   3.977  18.078  0.00  0.00    +0.000 A 
ATOM      6  C   UNL     1       4.691   3.776  16.884  0.00  0.00    +0.000 A 
ENDROOT
BRANCH   1  11
ATOM      7  C   UNL     1       5.791   3.551  12.470  0.00  0.00    +0.000 A 
ATOM      8  C   UNL     1       7.048   4.113  12.239  0.00  0.00    +0.000 A 
ATOM      9  C   UNL     1       7.664   4.876  13.228  0.00  0.00    +0.000 A 
ATOM     10  C   UNL     1       7.022   5.086  14.453  0.00  0.00    +0.000 A 
ATOM     11  C   UNL     1       5.734   4.580  14.717  0.00  0.00    +0.000 A 
ATOM     12  C   UNL     1       5.141   3.812  13.690  0.00  0.00    +0.000 A 
BRANCH  10  13
ATOM     13  O   UNL     1       7.698   5.787  15.419  0.00  0.00    +0.000 OA
ATOM     14  H   UNL     1       7.060   6.206  16.018  0.00  0.00    +0.000 HD
ENDBRANCH  10  13
BRANCH   7  15
ATOM     15  C   UNL     1       5.124   2.701  11.414  0.00  0.00    +0.000 C 
BRANCH  15  17
ATOM     16  C   UNL     1       3.312   3.751  10.025  0.00  0.00    +0.000 C 
ATOM     17  C   UNL     1       3.711   3.130  11.142  0.00  0.00    +0.000 C 
ENDBRANCH  15  17
ENDBRANCH   7  15
ENDBRANCH   1  11
BRANCH   3  18
ATOM     18  C   UNL     1       3.548   7.733  17.904  0.00  0.00    +0.000 C 
ATOM     19  O   UNL     1       2.695   8.333  17.258  0.00  0.00    +0.000 OA
ENDBRANCH   3  18
BRANCH   4  20
ATOM     20  O   UNL     1       2.963   5.476  19.620  0.00  0.00    +0.000 OA
ATOM     21  H   UNL     1       3.196   4.736  20.225  0.00  0.00    +0.000 HD
ENDBRANCH   4  20
BRANCH   5  22
ATOM     22  C   UNL     1       3.581   2.777  18.913  0.00  0.00    +0.000 C 
BRANCH  22  23
ATOM     23  C   UNL     1       2.352   2.066  18.423  0.00  0.00    +0.000 C 
ATOM     24  C   UNL     1       1.098   2.421  18.733  0.00  0.00    +0.000 C 
ENDBRANCH  22  23
ENDBRANCH   5  22
TORSDOF 8
ENDMDL
MODEL 2
REMARK VINA RESULT:      -7.9      1.565      1.973
REMARK  Name = 
REMARK  8 active torsions:
REMARK  status: ('A' for Active; 'I' for Inactive)
REMARK    1  A    between atoms: C_2  and  C_3
REMARK    2  A    between atoms: C_3  and  C_4
REMARK    3  A    between atoms: C_7  and  O_8
REMARK    4  A    between atoms: C_9  and  C_10
REMARK    5  A    between atoms: C_12  and  C_13
REMARK    6  A    between atoms: C_15  and  O_16
REMARK    7  A    between atoms: C_17  and  C_18
REMARK    8  A    between atoms: C_18  and  C_19
REMARK                            x       y       z     vdW  Elec       q    Type
REMARK                         _______ _______ _______ _____ _____    ______ ____
ROOT
ATOM      1  C   UNL     1       5.659   4.673  15.771  0.00  0.00    +0.000 A 
ATOM      2  C   UNL     1       6.548   5.127  16.763  0.00  0.00    +0.000 A 
ATOM      3  C   UNL     1       6.125   5.316  18.087  0.00  0.00    +0.000 A 
ATOM      4  C   UNL     1       4.789   5.104  18.444  0.00  0.00    +0.000 A 
ATOM      5  C   UNL     1       3.864   4.701  17.478  0.00  0.00    +0.000 A 
ATOM      6  C   UNL     1       4.325   4.452  16.169  0.00  0.00    +0.000 A 
ENDROOT
BRANCH   1  11
ATOM      7  C   UNL     1       5.719   3.378  12.174  0.00  0.00    +0.000 A 
ATOM      8  C   UNL     1       6.884   3.966  11.677  0.00  0.00    +0.000 A 
ATOM      9  C   UNL     1       7.677   4.755  12.506  0.00  0.00    +0.000 A 
ATOM     10  C   UNL     1       7.305   4.966  13.838  0.00  0.00    +0.000 A 
ATOM     11  C   UNL     1       6.115   4.433  14.374  0.00  0.00    +0.000 A 
ATOM     12  C   UNL     1       5.337   3.639  13.502  0.00  0.00    +0.000 A 
BRANCH  10  13
ATOM     13  O   UNL     1       8.152   5.694  14.633  0.00  0.00    +0.000 OA
ATOM     14  H   UNL     1       7.997   5.465  15.564  0.00  0.00    +0.000 HD
ENDBRANCH  10  13
BRANCH   7  15
ATOM     15  C   UNL     1       4.865   2.500  11.290  0.00  0.00    +0.000 C 
BRANCH  15  17
ATOM     16  C   UNL     1       3.228   3.752   9.852  0.00  0.00    +0.000 C 
ATOM     17  C   UNL     1       3.529   3.115  10.991  0.00  0.00    +0.000 C 
ENDBRANCH  15  17
ENDBRANCH   7  15
ENDBRANCH   1  11
BRANCH   3  18
ATOM     18  C   UNL     1       7.128   5.754  19.076  0.00  0.00    +0.000 C 
ATOM     19  O   UNL     1       7.304   5.130  20.118  0.00  0.00    +0.000 OA
ENDBRANCH   3  18
BRANCH   4  20
ATOM     20  O   UNL     1       4.346   5.289  19.727  0.00  0.00    +0.000 OA
ATOM     21  H   UNL     1       3.810   6.114  19.753  0.00  0.00    +0.000 HD
ENDBRANCH   4  20
BRANCH   5  22
ATOM     22  C   UNL     1       2.389   4.553  17.779  0.00  0.00    +0.000 C 
BRANCH  22  23
ATOM     23  C   UNL     1       1.923   3.126  17.847  0.00  0.00    +0.000 C 
ATOM     24  C   UNL     1       1.610   2.486  18.982  0.00  0.00    +0.000 C 
ENDBRANCH  22  23
ENDBRANCH   5  22
TORSDOF 8
ENDMDL
MODEL 3
REMARK VINA RESULT:      -7.7      1.509      3.188
REMARK  Name = 
REMARK  8 active torsions:
REMARK  status: ('A' for Active; 'I' for Inactive)
REMARK    1  A    between atoms: C_2  and  C_3
REMARK    2  A    between atoms: C_3  and  C_4
REMARK    3  A    between atoms: C_7  and  O_8
REMARK    4  A    between atoms: C_9  and  C_10
REMARK    5  A    between atoms: C_12  and  C_13
REMARK    6  A    between atoms: C_15  and  O_16
REMARK    7  A    between atoms: C_17  and  C_18
REMARK    8  A    between atoms: C_18  and  C_19
REMARK                            x       y       z     vdW  Elec       q    Type
REMARK                         _______ _______ _______ _____ _____    ______ ____
ROOT
ATOM      1  C   UNL     1       4.912   4.522  16.680  0.00  0.00    +0.000 A 
ATOM      2  C   UNL     1       4.920   3.397  17.525  0.00  0.00    +0.000 A 
ATOM      3  C   UNL     1       4.175   3.374  18.713  0.00  0.00    +0.000 A 
ATOM      4  C   UNL     1       3.439   4.495  19.113  0.00  0.00    +0.000 A 
ATOM      5  C   UNL     1       3.444   5.649  18.326  0.00  0.00    +0.000 A 
ATOM      6  C   UNL     1       4.146   5.627  17.103  0.00  0.00    +0.000 A 
ENDROOT
BRANCH   1  11
ATOM      7  C   UNL     1       5.851   3.803  13.043  0.00  0.00    +0.000 A 
ATOM      8  C   UNL     1       7.025   4.544  12.899  0.00  0.00    +0.000 A 
ATOM      9  C   UNL     1       7.542   5.252  13.981  0.00  0.00    +0.000 A 
ATOM     10  C   UNL     1       6.883   5.227  15.215  0.00  0.00    +0.000 A 
ATOM     11  C   UNL     1       5.670   4.533  15.398  0.00  0.00    +0.000 A 
ATOM     12  C   UNL     1       5.176   3.828  14.277  0.00  0.00    +0.000 A 
BRANCH  10  13
ATOM     13  O   UNL     1       7.467   5.884  16.267  0.00  0.00    +0.000 OA
ATOM     14  H   UNL     1       6.777   6.185  16.881  0.00  0.00    +0.000 HD
ENDBRANCH  10  13
BRANCH   7  15
ATOM     15  C   UNL     1       5.294   3.011  11.883  0.00  0.00    +0.000 C 
BRANCH  15  17
ATOM     16  C   UNL     1       3.335   3.126  10.314  0.00  0.00    +0.000 C 
ATOM     17  C   UNL     1       3.954   3.516  11.436  0.00  0.00    +0.000 C 
ENDBRANCH  15  17
ENDBRANCH   7  15
ENDBRANCH   1  11
BRANCH   3  18
ATOM     18  C   UNL     1       4.204   2.142  19.523  0.00  0.00    +0.000 C 
ATOM     19  O   UNL     1       4.805   2.101  20.593  0.00  0.00    +0.000 OA
ENDBRANCH   3  18
BRANCH   4  20
ATOM     20  O   UNL     1       2.709   4.505  20.272  0.00  0.00    +0.000 OA
ATOM     21  H   UNL     1       3.159   3.924  20.926  0.00  0.00    +0.000 HD
ENDBRANCH   4  20
BRANCH   5  22
ATOM     22  C   UNL     1       2.752   6.925  18.753  0.00  0.00    +0.000 C 
BRANCH  22  23
ATOM     23  C   UNL     1       2.708   7.980  17.685  0.00  0.00    +0.000 C 
ATOM     24  C   UNL     1       2.077   9.156  17.808  0.00  0.00    +0.000 C 
ENDBRANCH  22  23
ENDBRANCH   5  22
TORSDOF 8
ENDMDL
MODEL 4
REMARK VINA RESULT:      -7.6      2.772      7.412
REMARK  Name = 
REMARK  8 active torsions:
REMARK  status: ('A' for Active; 'I' for Inactive)
REMARK    1  A    between atoms: C_2  and  C_3
REMARK    2  A    between atoms: C_3  and  C_4
REMARK    3  A    between atoms: C_7  and  O_8
REMARK    4  A    between atoms: C_9  and  C_10
REMARK    5  A    between atoms: C_12  and  C_13
REMARK    6  A    between atoms: C_15  and  O_16
REMARK    7  A    between atoms: C_17  and  C_18
REMARK    8  A    between atoms: C_18  and  C_19
REMARK                            x       y       z     vdW  Elec       q    Type
REMARK                         _______ _______ _______ _____ _____    ______ ____
ROOT
ATOM      1  C   UNL     1       4.753   4.922  18.116  0.00  0.00    +0.000 A 
ATOM      2  C   UNL     1       4.639   4.485  16.783  0.00  0.00    +0.000 A 
ATOM      3  C   UNL     1       5.633   4.771  15.836  0.00  0.00    +0.000 A 
ATOM      4  C   UNL     1       6.746   5.544  16.184  0.00  0.00    +0.000 A 
ATOM      5  C   UNL     1       6.873   6.038  17.485  0.00  0.00    +0.000 A 
ATOM      6  C   UNL     1       5.896   5.682  18.437  0.00  0.00    +0.000 A 
ENDROOT
BRANCH   1  11
ATOM      7  C   UNL     1       1.814   5.311  20.530  0.00  0.00    +0.000 A 
ATOM      8  C   UNL     1       1.680   4.015  21.030  0.00  0.00    +0.000 A 
ATOM      9  C   UNL     1       2.557   3.014  20.620  0.00  0.00    +0.000 A 
ATOM     10  C   UNL     1       3.572   3.304  19.702  0.00  0.00    +0.000 A 
ATOM     11  C   UNL     1       3.719   4.584  19.133  0.00  0.00    +0.000 A 
ATOM     12  C   UNL     1       2.810   5.573  19.572  0.00  0.00    +0.000 A 
BRANCH  10  13
ATOM     13  O   UNL     1       4.451   2.302  19.380  0.00  0.00    +0.000 OA
ATOM     14  H   UNL     1       5.324   2.509  19.752  0.00  0.00    +0.000 HD
ENDBRANCH  10  13
BRANCH   7  15
ATOM     15  C   UNL     1       0.883   6.411  20.987  0.00  0.00    +0.000 C 
BRANCH  15  17
ATOM     16  C   UNL     1       1.255   8.800  21.672  0.00  0.00    +0.000 C 
ATOM     17  C   UNL     1       1.495   7.774  20.844  0.00  0.00    +0.000 C 
ENDBRANCH  15  17
ENDBRANCH   7  15
ENDBRANCH   1  11
BRANCH   3  18
ATOM     18  C   UNL     1       5.458   4.242  14.470  0.00  0.00    +0.000 C 
ATOM     19  O   UNL     1       6.414   3.818  13.828  0.00  0.00    +0.000 OA
ENDBRANCH   3  18
BRANCH   4  20
ATOM     20  O   UNL     1       7.729   5.846  15.278  0.00  0.00    +0.000 OA
ATOM     21  H   UNL     1       8.228   5.022  15.077  0.00  0.00    +0.000 HD
ENDBRANCH   4  20
BRANCH   5  22
ATOM     22  C   UNL     1       7.999   6.960  17.896  0.00  0.00    +0.000 C 
BRANCH  22  23
ATOM     23  C   UNL     1       7.705   8.416  17.672  0.00  0.00    +0.000 C 
ATOM     24  C   UNL     1       8.444   9.421  18.162  0.00  0.00    +0.000 C 
ENDBRANCH  22  23
ENDBRANCH   5  22
TORSDOF 8
ENDMDL
MODEL 5
REMARK VINA RESULT:      -7.6      1.748      2.669
REMARK  Name = 
REMARK  8 active torsions:
REMARK  status: ('A' for Active; 'I' for Inactive)
REMARK    1  A    between atoms: C_2  and  C_3
REMARK    2  A    between atoms: C_3  and  C_4
REMARK    3  A    between atoms: C_7  and  O_8
REMARK    4  A    between atoms: C_9  and  C_10
REMARK    5  A    between atoms: C_12  and  C_13
REMARK    6  A    between atoms: C_15  and  O_16
REMARK    7  A    between atoms: C_17  and  C_18
REMARK    8  A    between atoms: C_18  and  C_19
REMARK                            x       y       z     vdW  Elec       q    Type
REMARK                         _______ _______ _______ _____ _____    ______ ____
ROOT
ATOM      1  C   UNL     1       5.954   4.669  15.739  0.00  0.00    +0.000 A 
ATOM      2  C   UNL     1       6.973   4.863  16.689  0.00  0.00    +0.000 A 
ATOM      3  C   UNL     1       6.677   5.037  18.049  0.00  0.00    +0.000 A 
ATOM      4  C   UNL     1       5.348   5.071  18.489  0.00  0.00    +0.000 A 
ATOM      5  C   UNL     1       4.306   4.931  17.569  0.00  0.00    +0.000 A 
ATOM      6  C   UNL     1       4.629   4.690  16.218  0.00  0.00    +0.000 A 
ENDROOT
BRANCH   1  11
ATOM      7  C   UNL     1       5.670   3.391  12.146  0.00  0.00    +0.000 A 
ATOM      8  C   UNL     1       6.766   4.003  11.537  0.00  0.00    +0.000 A 
ATOM      9  C   UNL     1       7.625   4.803  12.286  0.00  0.00    +0.000 A 
ATOM     10  C   UNL     1       7.388   5.001  13.650  0.00  0.00    +0.000 A 
ATOM     11  C   UNL     1       6.269   4.443  14.301  0.00  0.00    +0.000 A 
ATOM     12  C   UNL     1       5.420   3.638  13.508  0.00  0.00    +0.000 A 
BRANCH  10  13
ATOM     13  O   UNL     1       8.299   5.741  14.359  0.00  0.00    +0.000 OA
ATOM     14  H   UNL     1       9.038   5.984  13.778  0.00  0.00    +0.000 HD
ENDBRANCH  10  13
BRANCH   7  15
ATOM     15  C   UNL     1       4.746   2.500  11.349  0.00  0.00    +0.000 C 
BRANCH  15  17
ATOM     16  C   UNL     1       3.282   3.981   9.941  0.00  0.00    +0.000 C 
ATOM     17  C   UNL     1       3.453   3.181  11.002  0.00  0.00    +0.000 C 
ENDBRANCH  15  17
ENDBRANCH   7  15
ENDBRANCH   1  11
BRANCH   3  18
ATOM     18  C   UNL     1       7.804   5.194  18.988  0.00  0.00    +0.000 C 
ATOM     19  O   UNL     1       7.613   5.502  20.160  0.00  0.00    +0.000 OA
ENDBRANCH   3  18
BRANCH   4  20
ATOM     20  O   UNL     1       5.028   5.248  19.809  0.00  0.00    +0.000 OA
ATOM     21  H   UNL     1       5.746   5.769  20.234  0.00  0.00    +0.000 HD
ENDBRANCH   4  20
BRANCH   5  22
ATOM     22  C   UNL     1       2.852   5.058  17.967  0.00  0.00    +0.000 C 
BRANCH  22  23
ATOM     23  C   UNL     1       2.346   6.473  17.976  0.00  0.00    +0.000 C 
ATOM     24  C   UNL     1       3.121   7.556  17.830  0.00  0.00    +0.000 C 
ENDBRANCH  22  23
ENDBRANCH   5  22
TORSDOF 8
ENDMDL
MODEL 6
REMARK VINA RESULT:      -7.6      2.102      3.709
REMARK  Name = 
REMARK  8 active torsions:
REMARK  status: ('A' for Active; 'I' for Inactive)
REMARK    1  A    between atoms: C_2  and  C_3
REMARK    2  A    between atoms: C_3  and  C_4
REMARK    3  A    between atoms: C_7  and  O_8
REMARK    4  A    between atoms: C_9  and  C_10
REMARK    5  A    between atoms: C_12  and  C_13
REMARK    6  A    between atoms: C_15  and  O_16
REMARK    7  A    between atoms: C_17  and  C_18
REMARK    8  A    between atoms: C_18  and  C_19
REMARK                            x       y       z     vdW  Elec       q    Type
REMARK                         _______ _______ _______ _____ _____    ______ ____
ROOT
ATOM      1  C   UNL     1       6.254   4.705  15.605  0.00  0.00    +0.000 A 
ATOM      2  C   UNL     1       5.315   3.971  16.352  0.00  0.00    +0.000 A 
ATOM      3  C   UNL     1       5.116   4.221  17.718  0.00  0.00    +0.000 A 
ATOM      4  C   UNL     1       5.887   5.179  18.385  0.00  0.00    +0.000 A 
ATOM      5  C   UNL     1       6.865   5.895  17.690  0.00  0.00    +0.000 A 
ATOM      6  C   UNL     1       7.001   5.675  16.304  0.00  0.00    +0.000 A 
ENDROOT
BRANCH   1  11
ATOM      7  C   UNL     1       5.648   3.399  12.063  0.00  0.00    +0.000 A 
ATOM      8  C   UNL     1       6.682   4.009  11.351  0.00  0.00    +0.000 A 
ATOM      9  C   UNL     1       7.603   4.817  12.013  0.00  0.00    +0.000 A 
ATOM     10  C   UNL     1       7.491   5.025  13.392  0.00  0.00    +0.000 A 
ATOM     11  C   UNL     1       6.438   4.469  14.146  0.00  0.00    +0.000 A 
ATOM     12  C   UNL     1       5.523   3.656  13.440  0.00  0.00    +0.000 A 
BRANCH  10  13
ATOM     13  O   UNL     1       8.460   5.774  14.009  0.00  0.00    +0.000 OA
ATOM     14  H   UNL     1       8.150   6.689  14.101  0.00  0.00    +0.000 HD
ENDBRANCH  10  13
BRANCH   7  15
ATOM     15  C   UNL     1       4.658   2.499  11.360  0.00  0.00    +0.000 C 
BRANCH  15  17
ATOM     16  C   UNL     1       3.208   3.908   9.868  0.00  0.00    +0.000 C 
ATOM     17  C   UNL     1       3.389   3.216  11.000  0.00  0.00    +0.000 C 
ENDBRANCH  15  17
ENDBRANCH   7  15
ENDBRANCH   1  11
BRANCH   3  18
ATOM     18  C   UNL     1       4.084   3.437  18.421  0.00  0.00    +0.000 C 
ATOM     19  O   UNL     1       2.892   3.586  18.165  0.00  0.00    +0.000 OA
ENDBRANCH   3  18
BRANCH   4  20
ATOM     20  O   UNL     1       5.722   5.439  19.720  0.00  0.00    +0.000 OA
ATOM     21  H   UNL     1       6.573   5.781  20.077  0.00  0.00    +0.000 HD
ENDBRANCH   4  20
BRANCH   5  22
ATOM     22  C   UNL     1       7.797   6.870  18.375  0.00  0.00    +0.000 C 
BRANCH  22  23
ATOM     23  C   UNL     1       7.917   8.192  17.672  0.00  0.00    +0.000 C 
ATOM     24  C   UNL     1       8.415   9.304  18.231  0.00  0.00    +0.000 C 
ENDBRANCH  22  23
ENDBRANCH   5  22
TORSDOF 8
ENDMDL
MODEL 7
REMARK VINA RESULT:      -7.5      1.757      3.109
REMARK  Name = 
REMARK  8 active torsions:
REMARK  status: ('A' for Active; 'I' for Inactive)
REMARK    1  A    between atoms: C_2  and  C_3
REMARK    2  A    between atoms: C_3  and  C_4
REMARK    3  A    between atoms: C_7  and  O_8
REMARK    4  A    between atoms: C_9  and  C_10
REMARK    5  A    between atoms: C_12  and  C_13
REMARK    6  A    between atoms: C_15  and  O_16
REMARK    7  A    between atoms: C_17  and  C_18
REMARK    8  A    between atoms: C_18  and  C_19
REMARK                            x       y       z     vdW  Elec       q    Type
REMARK                         _______ _______ _______ _____ _____    ______ ____
ROOT
ATOM      1  C   UNL     1       5.348   4.328  15.926  0.00  0.00    +0.000 A 
ATOM      2  C   UNL     1       4.082   3.789  16.221  0.00  0.00    +0.000 A 
ATOM      3  C   UNL     1       3.539   3.871  17.511  0.00  0.00    +0.000 A 
ATOM      4  C   UNL     1       4.269   4.450  18.555  0.00  0.00    +0.000 A 
ATOM      5  C   UNL     1       5.550   4.952  18.315  0.00  0.00    +0.000 A 
ATOM      6  C   UNL     1       6.048   4.921  16.996  0.00  0.00    +0.000 A 
ENDROOT
BRANCH   1  11
ATOM      7  C   UNL     1       5.746   3.436  12.230  0.00  0.00    +0.000 A 
ATOM      8  C   UNL     1       6.880   4.171  11.878  0.00  0.00    +0.000 A 
ATOM      9  C   UNL     1       7.545   4.931  12.837  0.00  0.00    +0.000 A 
ATOM     10  C   UNL     1       7.075   4.965  14.155  0.00  0.00    +0.000 A 
ATOM     11  C   UNL     1       5.909   4.279  14.548  0.00  0.00    +0.000 A 
ATOM     12  C   UNL     1       5.261   3.519  13.547  0.00  0.00    +0.000 A 
BRANCH  10  13
ATOM     13  O   UNL     1       7.802   5.673  15.077  0.00  0.00    +0.000 OA
ATOM     14  H   UNL     1       7.328   6.489  15.302  0.00  0.00    +0.000 HD
ENDBRANCH  10  13
BRANCH   7  15
ATOM     15  C   UNL     1       5.032   2.589  11.203  0.00  0.00    +0.000 C 
BRANCH  15  17
ATOM     16  C   UNL     1       3.263   3.911  10.003  0.00  0.00    +0.000 C 
ATOM     17  C   UNL     1       3.623   3.048  10.962  0.00  0.00    +0.000 C 
ENDBRANCH  15  17
ENDBRANCH   7  15
ENDBRANCH   1  11
BRANCH   3  18
ATOM     18  C   UNL     1       2.188   3.318  17.729  0.00  0.00    +0.000 C 
ATOM     19  O   UNL     1       1.979   2.483  18.604  0.00  0.00    +0.000 OA
ENDBRANCH   3  18
BRANCH   4  20
ATOM     20  O   UNL     1       3.767   4.536  19.827  0.00  0.00    +0.000 OA
ATOM     21  H   UNL     1       4.382   5.084  20.366  0.00  0.00    +0.000 HD
ENDBRANCH   4  20
BRANCH   5  22
ATOM     22  C   UNL     1       6.427   5.499  19.420  0.00  0.00    +0.000 C 
BRANCH  22  23
ATOM     23  C   UNL     1       7.799   5.906  18.962  0.00  0.00    +0.000 C 
ATOM     24  C   UNL     1       8.116   7.130  18.518  0.00  0.00    +0.000 C 
ENDBRANCH  22  23
ENDBRANCH   5  22
TORSDOF 8
ENDMDL
MODEL 8
REMARK VINA RESULT:      -7.4      2.610      7.135
REMARK  Name = 
REMARK  8 active torsions:
REMARK  status: ('A' for Active; 'I' for Inactive)
REMARK    1  A    between atoms: C_2  and  C_3
REMARK    2  A    between atoms: C_3  and  C_4
REMARK    3  A    between atoms: C_7  and  O_8
REMARK    4  A    between atoms: C_9  and  C_10
REMARK    5  A    between atoms: C_12  and  C_13
REMARK    6  A    between atoms: C_15  and  O_16
REMARK    7  A    between atoms: C_17  and  C_18
REMARK    8  A    between atoms: C_18  and  C_19
REMARK                            x       y       z     vdW  Elec       q    Type
REMARK                         _______ _______ _______ _____ _____    ______ ____
ROOT
ATOM      1  C   UNL     1       4.358   4.200  17.738  0.00  0.00    +0.000 A 
ATOM      2  C   UNL     1       4.325   4.075  16.336  0.00  0.00    +0.000 A 
ATOM      3  C   UNL     1       5.488   4.218  15.565  0.00  0.00    +0.000 A 
ATOM      4  C   UNL     1       6.709   4.537  16.171  0.00  0.00    +0.000 A 
ATOM      5  C   UNL     1       6.774   4.718  17.555  0.00  0.00    +0.000 A 
ATOM      6  C   UNL     1       5.607   4.504  18.317  0.00  0.00    +0.000 A 
ENDROOT
BRANCH   1  11
ATOM      7  C   UNL     1       1.507   4.936  20.176  0.00  0.00    +0.000 A 
ATOM      8  C   UNL     1       0.772   3.750  20.124  0.00  0.00    +0.000 A 
ATOM      9  C   UNL     1       1.208   2.692  19.330  0.00  0.00    +0.000 A 
ATOM     10  C   UNL     1       2.381   2.817  18.578  0.00  0.00    +0.000 A 
ATOM     11  C   UNL     1       3.132   4.009  18.561  0.00  0.00    +0.000 A 
ATOM     12  C   UNL     1       2.658   5.060  19.378  0.00  0.00    +0.000 A 
BRANCH  10  13
ATOM     13  O   UNL     1       2.806   1.725  17.866  0.00  0.00    +0.000 OA
ATOM     14  H   UNL     1       2.038   1.278  17.474  0.00  0.00    +0.000 HD
ENDBRANCH  10  13
BRANCH   7  15
ATOM     15  C   UNL     1       1.056   6.080  21.053  0.00  0.00    +0.000 C 
BRANCH  15  17
ATOM     16  C   UNL     1       1.155   8.591  21.014  0.00  0.00    +0.000 C 
ATOM     17  C   UNL     1       1.608   7.401  20.599  0.00  0.00    +0.000 C 
ENDBRANCH  15  17
ENDBRANCH   7  15
ENDBRANCH   1  11
BRANCH   3  18
ATOM     18  C   UNL     1       5.377   4.031  14.106  0.00  0.00    +0.000 C 
ATOM     19  O   UNL     1       6.346   3.689  13.436  0.00  0.00    +0.000 OA
ENDBRANCH   3  18
BRANCH   4  20
ATOM     20  O   UNL     1       7.859   4.691  15.443  0.00  0.00    +0.000 OA
ATOM     21  H   UNL     1       7.657   5.252  14.660  0.00  0.00    +0.000 HD
ENDBRANCH   4  20
BRANCH   5  22
ATOM     22  C   UNL     1       8.038   5.162  18.256  0.00  0.00    +0.000 C 
BRANCH  22  23
ATOM     23  C   UNL     1       8.042   6.613  18.644  0.00  0.00    +0.000 C 
ATOM     24  C   UNL     1       7.765   7.622  17.806  0.00  0.00    +0.000 C 
ENDBRANCH  22  23
ENDBRANCH   5  22
TORSDOF 8
ENDMDL
MODEL 9
REMARK VINA RESULT:      -7.4      2.015      6.583
REMARK  Name = 
REMARK  8 active torsions:
REMARK  status: ('A' for Active; 'I' for Inactive)
REMARK    1  A    between atoms: C_2  and  C_3
REMARK    2  A    between atoms: C_3  and  C_4
REMARK    3  A    between atoms: C_7  and  O_8
REMARK    4  A    between atoms: C_9  and  C_10
REMARK    5  A    between atoms: C_12  and  C_13
REMARK    6  A    between atoms: C_15  and  O_16
REMARK    7  A    between atoms: C_17  and  C_18
REMARK    8  A    between atoms: C_18  and  C_19
REMARK                            x       y       z     vdW  Elec       q    Type
REMARK                         _______ _______ _______ _____ _____    ______ ____
ROOT
ATOM      1  C   UNL     1       4.806   4.216  17.287  0.00  0.00    +0.000 A 
ATOM      2  C   UNL     1       5.702   5.194  17.758  0.00  0.00    +0.000 A 
ATOM      3  C   UNL     1       6.711   5.713  16.935  0.00  0.00    +0.000 A 
ATOM      4  C   UNL     1       6.882   5.234  15.631  0.00  0.00    +0.000 A 
ATOM      5  C   UNL     1       6.045   4.229  15.142  0.00  0.00    +0.000 A 
ATOM      6  C   UNL     1       4.995   3.769  15.964  0.00  0.00    +0.000 A 
ENDROOT
BRANCH   1  11
ATOM      7  C   UNL     1       1.817   4.150  19.671  0.00  0.00    +0.000 A 
ATOM      8  C   UNL     1       1.559   2.782  19.769  0.00  0.00    +0.000 A 
ATOM      9  C   UNL     1       2.367   1.869  19.097  0.00  0.00    +0.000 A 
ATOM     10  C   UNL     1       3.437   2.320  18.316  0.00  0.00    +0.000 A 
ATOM     11  C   UNL     1       3.709   3.693  18.148  0.00  0.00    +0.000 A 
ATOM     12  C   UNL     1       2.867   4.589  18.844  0.00  0.00    +0.000 A 
BRANCH  10  13
ATOM     13  O   UNL     1       4.244   1.380  17.728  0.00  0.00    +0.000 OA
ATOM     14  H   UNL     1       4.633   1.751  16.920  0.00  0.00    +0.000 HD
ENDBRANCH  10  13
BRANCH   7  15
ATOM     15  C   UNL     1       0.962   5.148  20.416  0.00  0.00    +0.000 C 
BRANCH  15  17
ATOM     16  C   UNL     1       1.992   7.402  19.999  0.00  0.00    +0.000 C 
ATOM     17  C   UNL     1       1.730   6.374  20.816  0.00  0.00    +0.000 C 
ENDBRANCH  15  17
ENDBRANCH   7  15
ENDBRANCH   1  11
BRANCH   3  18
ATOM     18  C   UNL     1       7.583   6.765  17.490  0.00  0.00    +0.000 C 
ATOM     19  O   UNL     1       7.725   7.840  16.915  0.00  0.00    +0.000 OA
ENDBRANCH   3  18
BRANCH   4  20
ATOM     20  O   UNL     1       7.864   5.717  14.806  0.00  0.00    +0.000 OA
ATOM     21  H   UNL     1       7.869   6.698  14.872  0.00  0.00    +0.000 HD
ENDBRANCH   4  20
BRANCH   5  22
ATOM     22  C   UNL     1       6.242   3.600  13.781  0.00  0.00    +0.000 C 
BRANCH  22  23
ATOM     23  C   UNL     1       5.095   3.822  12.836  0.00  0.00    +0.000 C 
ATOM     24  C   UNL     1       4.876   3.100  11.729  0.00  0.00    +0.000 C 
ENDBRANCH  22  23
ENDBRANCH   5  22
TORSDOF 8
ENDMDL
