MODEL 1
REMARK VINA RESULT:      -9.0      0.000      0.000
REMARK  Name = 
REMARK  4 active torsions:
REMARK  status: ('A' for Active; 'I' for Inactive)
REMARK    1  A    between atoms: C_1  and  C_2
REMARK    2  A    between atoms: C_6  and  C_7
REMARK    3  A    between atoms: C_13  and  C_14
REMARK    4  A    between atoms: C_16  and  N_17
REMARK                            x       y       z     vdW  Elec       q    Type
REMARK                         _______ _______ _______ _____ _____    ______ ____
ROOT
ATOM      1  C   UNL     1       3.323   3.676  17.260  0.00  0.00    +0.000 C 
ATOM      2  O   UNL     1       2.571   3.406  16.323  0.00  0.00    +0.000 OA
ATOM      3  N   UNL     1       2.926   3.562  18.599  0.00  0.00    +0.000 N 
ATOM      4  C   UNL     1       1.698   2.829  18.896  0.00  0.00    +0.000 C 
ATOM      5  C   UNL     1       0.754   3.610  19.803  0.00  0.00    +0.000 C 
ATOM      6  C   UNL     1       1.480   4.098  21.054  0.00  0.00    +0.000 C 
ATOM      7  C   UNL     1       2.706   4.951  20.689  0.00  0.00    +0.000 C 
ATOM      8  C   UNL     1       3.627   4.154  19.750  0.00  0.00    +0.000 C 
ENDROOT
BRANCH   1  14
ATOM      9  C   UNL     1       7.827   5.433  18.611  0.00  0.00    +0.000 C 
ATOM     10  C   UNL     1       6.932   4.869  17.550  0.00  0.00    +0.000 A 
ATOM     11  C   UNL     1       7.351   4.740  16.222  0.00  0.00    +0.000 A 
ATOM     12  C   UNL     1       6.471   4.259  15.250  0.00  0.00    +0.000 A 
ATOM     13  C   UNL     1       5.154   3.939  15.590  0.00  0.00    +0.000 A 
ATOM     14  C   UNL     1       4.716   4.078  16.912  0.00  0.00    +0.000 A 
ATOM     15  C   UNL     1       5.629   4.491  17.891  0.00  0.00    +0.000 A 
ENDBRANCH   1  14
BRANCH   7  16
ATOM     16  C   UNL     1       2.310   6.307  20.121  0.00  0.00    +0.000 A 
ATOM     17  C   UNL     1       1.402   7.089  20.810  0.00  0.00    +0.000 A 
ATOM     18  C   UNL     1       0.999   8.288  20.248  0.00  0.00    +0.000 A 
ATOM     19  N   UNL     1       1.520   8.695  19.079  0.00  0.00    +0.000 NA
ATOM     20  C   UNL     1       2.411   7.887  18.487  0.00  0.00    +0.000 A 
ATOM     21  N   UNL     1       2.834   6.708  18.954  0.00  0.00    +0.000 NA
BRANCH  18  22
ATOM     22  N   UNL     1       0.087   9.095  20.894  0.00  0.00    +0.000 N 
ATOM     23  C   UNL     1      -0.098  10.511  20.547  0.00  0.00    +0.000 C 
ATOM     24  C   UNL     1       0.278  11.419  21.727  0.00  0.00    +0.000 C 
ATOM     25  O   UNL     1      -0.409  11.041  22.928  0.00  0.00    +0.000 OA
ATOM     26  C   UNL     1      -0.051   9.696  23.292  0.00  0.00    +0.000 C 
ATOM     27  C   UNL     1      -0.449   8.695  22.201  0.00  0.00    +0.000 C 
ENDBRANCH  18  22
ENDBRANCH   7  16
TORSDOF 3
ENDMDL
MODEL 2
REMARK VINA RESULT:      -8.9      0.366      1.373
REMARK  Name = 
REMARK  4 active torsions:
REMARK  status: ('A' for Active; 'I' for Inactive)
REMARK    1  A    between atoms: C_1  and  C_2
REMARK    2  A    between atoms: C_6  and  C_7
REMARK    3  A    between atoms: C_13  and  C_14
REMARK    4  A    between atoms: C_16  and  N_17
REMARK                            x       y       z     vdW  Elec       q    Type
REMARK                         _______ _______ _______ _____ _____    ______ ____
ROOT
ATOM      1  C   UNL     1       3.326   3.597  17.245  0.00  0.00    +0.000 C 
ATOM      2  O   UNL     1       2.539   3.293  16.347  0.00  0.00    +0.000 OA
ATOM      3  N   UNL     1       2.973   3.549  18.600  0.00  0.00    +0.000 N 
ATOM      4  C   UNL     1       1.749   2.846  18.972  0.00  0.00    +0.000 C 
ATOM      5  C   UNL     1       0.845   3.679  19.873  0.00  0.00    +0.000 C 
ATOM      6  C   UNL     1       1.619   4.215  21.075  0.00  0.00    +0.000 C 
ATOM      7  C   UNL     1       2.840   5.035  20.629  0.00  0.00    +0.000 C 
ATOM      8  C   UNL     1       3.720   4.185  19.698  0.00  0.00    +0.000 C 
ENDROOT
BRANCH   1  14
ATOM      9  C   UNL     1       6.745   4.399  13.658  0.00  0.00    +0.000 C 
ATOM     10  C   UNL     1       6.374   4.424  15.110  0.00  0.00    +0.000 A 
ATOM     11  C   UNL     1       7.301   4.749  16.104  0.00  0.00    +0.000 A 
ATOM     12  C   UNL     1       6.933   4.711  17.451  0.00  0.00    +0.000 A 
ATOM     13  C   UNL     1       5.645   4.311  17.816  0.00  0.00    +0.000 A 
ATOM     14  C   UNL     1       4.711   3.966  16.832  0.00  0.00    +0.000 A 
ATOM     15  C   UNL     1       5.070   4.080  15.484  0.00  0.00    +0.000 A 
ENDBRANCH   1  14
BRANCH   7  16
ATOM     16  C   UNL     1       2.439   6.369  20.012  0.00  0.00    +0.000 A 
ATOM     17  C   UNL     1       1.543   7.181  20.682  0.00  0.00    +0.000 A 
ATOM     18  C   UNL     1       1.135   8.357  20.078  0.00  0.00    +0.000 A 
ATOM     19  N   UNL     1       1.640   8.715  18.887  0.00  0.00    +0.000 NA
ATOM     20  C   UNL     1       2.520   7.881  18.315  0.00  0.00    +0.000 A 
ATOM     21  N   UNL     1       2.947   6.721  18.823  0.00  0.00    +0.000 NA
BRANCH  18  22
ATOM     22  N   UNL     1       0.233   9.192  20.704  0.00  0.00    +0.000 N 
ATOM     23  C   UNL     1       0.174  10.634  20.430  0.00  0.00    +0.000 C 
ATOM     24  C   UNL     1       0.521  11.446  21.687  0.00  0.00    +0.000 C 
ATOM     25  O   UNL     1      -0.281  11.055  22.810  0.00  0.00    +0.000 OA
ATOM     26  C   UNL     1      -0.045   9.669  23.118  0.00  0.00    +0.000 C 
ATOM     27  C   UNL     1      -0.427   8.761  21.943  0.00  0.00    +0.000 C 
ENDBRANCH  18  22
ENDBRANCH   7  16
TORSDOF 3
ENDMDL
MODEL 3
REMARK VINA RESULT:      -8.8      1.489      2.180
REMARK  Name = 
REMARK  4 active torsions:
REMARK  status: ('A' for Active; 'I' for Inactive)
REMARK    1  A    between atoms: C_1  and  C_2
REMARK    2  A    between atoms: C_6  and  C_7
REMARK    3  A    between atoms: C_13  and  C_14
REMARK    4  A    between atoms: C_16  and  N_17
REMARK                            x       y       z     vdW  Elec       q    Type
REMARK                         _______ _______ _______ _____ _____    ______ ____
ROOT
ATOM      1  C   UNL     1       4.984   5.408  17.176  0.00  0.00    +0.000 C 
ATOM      2  O   UNL     1       4.860   5.411  15.951  0.00  0.00    +0.000 OA
ATOM      3  N   UNL     1       4.042   4.811  18.024  0.00  0.00    +0.000 N 
ATOM      4  C   UNL     1       3.046   3.921  17.435  0.00  0.00    +0.000 C 
ATOM      5  C   UNL     1       1.625   4.263  17.867  0.00  0.00    +0.000 C 
ATOM      6  C   UNL     1       1.524   4.355  19.387  0.00  0.00    +0.000 C 
ATOM      7  C   UNL     1       2.520   5.382  19.949  0.00  0.00    +0.000 C 
ATOM      8  C   UNL     1       3.941   5.033  19.477  0.00  0.00    +0.000 C 
ENDROOT
BRANCH   1  14
ATOM      9  C   UNL     1       8.140   9.293  17.558  0.00  0.00    +0.000 C 
ATOM     10  C   UNL     1       7.742   7.912  17.985  0.00  0.00    +0.000 A 
ATOM     11  C   UNL     1       8.523   7.157  18.864  0.00  0.00    +0.000 A 
ATOM     12  C   UNL     1       8.147   5.853  19.197  0.00  0.00    +0.000 A 
ATOM     13  C   UNL     1       7.008   5.282  18.625  0.00  0.00    +0.000 A 
ATOM     14  C   UNL     1       6.225   6.021  17.730  0.00  0.00    +0.000 A 
ATOM     15  C   UNL     1       6.572   7.351  17.462  0.00  0.00    +0.000 A 
ENDBRANCH   1  14
BRANCH   7  16
ATOM     16  C   UNL     1       2.118   6.812  19.614  0.00  0.00    +0.000 A 
ATOM     17  C   UNL     1       1.227   7.474  20.438  0.00  0.00    +0.000 A 
ATOM     18  C   UNL     1       0.817   8.747  20.084  0.00  0.00    +0.000 A 
ATOM     19  N   UNL     1       1.317   9.337  18.986  0.00  0.00    +0.000 NA
ATOM     20  C   UNL     1       2.192   8.634  18.254  0.00  0.00    +0.000 A 
ATOM     21  N   UNL     1       2.621   7.395  18.517  0.00  0.00    +0.000 NA
BRANCH  18  22
ATOM     22  N   UNL     1      -0.080   9.440  20.870  0.00  0.00    +0.000 N 
ATOM     23  C   UNL     1      -0.362  10.868  20.671  0.00  0.00    +0.000 C 
ATOM     24  C   UNL     1       0.062  11.688  21.898  0.00  0.00    +0.000 C 
ATOM     25  O   UNL     1      -0.507  11.166  23.107  0.00  0.00    +0.000 OA
ATOM     26  C   UNL     1      -0.054   9.817  23.317  0.00  0.00    +0.000 C 
ATOM     27  C   UNL     1      -0.488   8.895  22.171  0.00  0.00    +0.000 C 
ENDBRANCH  18  22
ENDBRANCH   7  16
TORSDOF 3
ENDMDL
MODEL 4
REMARK VINA RESULT:      -8.7      1.179      1.948
REMARK  Name = 
REMARK  4 active torsions:
REMARK  status: ('A' for Active; 'I' for Inactive)
REMARK    1  A    between atoms: C_1  and  C_2
REMARK    2  A    between atoms: C_6  and  C_7
REMARK    3  A    between atoms: C_13  and  C_14
REMARK    4  A    between atoms: C_16  and  N_17
REMARK                            x       y       z     vdW  Elec       q    Type
REMARK                         _______ _______ _______ _____ _____    ______ ____
ROOT
ATOM      1  C   UNL     1       3.349   3.697  17.288  0.00  0.00    +0.000 C 
ATOM      2  O   UNL     1       2.533   3.259  16.476  0.00  0.00    +0.000 OA
ATOM      3  N   UNL     1       3.042   3.859  18.646  0.00  0.00    +0.000 N 
ATOM      4  C   UNL     1       1.834   3.225  19.163  0.00  0.00    +0.000 C 
ATOM      5  C   UNL     1       0.958   4.189  19.955  0.00  0.00    +0.000 C 
ATOM      6  C   UNL     1       1.770   4.902  21.033  0.00  0.00    +0.000 C 
ATOM      7  C   UNL     1       2.973   5.642  20.424  0.00  0.00    +0.000 C 
ATOM      8  C   UNL     1       3.823   4.656  19.607  0.00  0.00    +0.000 C 
ENDROOT
BRANCH   1  14
ATOM      9  C   UNL     1       6.571   4.193  13.472  0.00  0.00    +0.000 C 
ATOM     10  C   UNL     1       6.289   4.305  14.939  0.00  0.00    +0.000 A 
ATOM     11  C   UNL     1       7.284   4.648  15.859  0.00  0.00    +0.000 A 
ATOM     12  C   UNL     1       6.995   4.691  17.225  0.00  0.00    +0.000 A 
ATOM     13  C   UNL     1       5.720   4.356  17.685  0.00  0.00    +0.000 A 
ATOM     14  C   UNL     1       4.717   3.995  16.777  0.00  0.00    +0.000 A 
ATOM     15  C   UNL     1       4.999   4.027  15.406  0.00  0.00    +0.000 A 
ENDBRANCH   1  14
BRANCH   7  16
ATOM     16  C   UNL     1       2.546   6.864  19.623  0.00  0.00    +0.000 A 
ATOM     17  C   UNL     1       1.700   7.791  20.203  0.00  0.00    +0.000 A 
ATOM     18  C   UNL     1       1.266   8.861  19.439  0.00  0.00    +0.000 A 
ATOM     19  N   UNL     1       1.700   9.011  18.178  0.00  0.00    +0.000 NA
ATOM     20  C   UNL     1       2.537   8.080  17.700  0.00  0.00    +0.000 A 
ATOM     21  N   UNL     1       2.984   7.009  18.364  0.00  0.00    +0.000 NA
BRANCH  18  22
ATOM     22  N   UNL     1       0.412   9.803  19.973  0.00  0.00    +0.000 N 
ATOM     23  C   UNL     1      -0.756  10.312  19.241  0.00  0.00    +0.000 C 
ATOM     24  C   UNL     1      -0.618  11.816  18.965  0.00  0.00    +0.000 C 
ATOM     25  O   UNL     1      -0.342  12.553  20.164  0.00  0.00    +0.000 OA
ATOM     26  C   UNL     1       0.901  12.108  20.735  0.00  0.00    +0.000 C 
ATOM     27  C   UNL     1       0.844  10.622  21.112  0.00  0.00    +0.000 C 
ENDBRANCH  18  22
ENDBRANCH   7  16
TORSDOF 3
ENDMDL
MODEL 5
REMARK VINA RESULT:      -8.7      1.513      2.339
REMARK  Name = 
REMARK  4 active torsions:
REMARK  status: ('A' for Active; 'I' for Inactive)
REMARK    1  A    between atoms: C_1  and  C_2
REMARK    2  A    between atoms: C_6  and  C_7
REMARK    3  A    between atoms: C_13  and  C_14
REMARK    4  A    between atoms: C_16  and  N_17
REMARK                            x       y       z     vdW  Elec       q    Type
REMARK                         _______ _______ _______ _____ _____    ______ ____
ROOT
ATOM      1  C   UNL     1       4.884   5.288  17.163  0.00  0.00    +0.000 C 
ATOM      2  O   UNL     1       4.752   5.269  15.939  0.00  0.00    +0.000 OA
ATOM      3  N   UNL     1       3.928   4.742  18.030  0.00  0.00    +0.000 N 
ATOM      4  C   UNL     1       2.898   3.875  17.466  0.00  0.00    +0.000 C 
ATOM      5  C   UNL     1       1.493   4.276  17.898  0.00  0.00    +0.000 C 
ATOM      6  C   UNL     1       1.405   4.403  19.417  0.00  0.00    +0.000 C 
ATOM      7  C   UNL     1       2.440   5.406  19.951  0.00  0.00    +0.000 C 
ATOM      8  C   UNL     1       3.845   4.998  19.478  0.00  0.00    +0.000 C 
ENDROOT
BRANCH   1  14
ATOM      9  C   UNL     1       8.082   9.132  17.595  0.00  0.00    +0.000 C 
ATOM     10  C   UNL     1       7.690   7.737  17.976  0.00  0.00    +0.000 A 
ATOM     11  C   UNL     1       8.497   6.940  18.793  0.00  0.00    +0.000 A 
ATOM     12  C   UNL     1       8.123   5.625  19.083  0.00  0.00    +0.000 A 
ATOM     13  C   UNL     1       6.960   5.086  18.529  0.00  0.00    +0.000 A 
ATOM     14  C   UNL     1       6.150   5.868  17.696  0.00  0.00    +0.000 A 
ATOM     15  C   UNL     1       6.497   7.206  17.473  0.00  0.00    +0.000 A 
ENDBRANCH   1  14
BRANCH   7  16
ATOM     16  C   UNL     1       2.086   6.842  19.588  0.00  0.00    +0.000 A 
ATOM     17  C   UNL     1       1.732   7.725  20.592  0.00  0.00    +0.000 A 
ATOM     18  C   UNL     1       1.346   9.006  20.241  0.00  0.00    +0.000 A 
ATOM     19  N   UNL     1       1.362   9.389  18.954  0.00  0.00    +0.000 NA
ATOM     20  C   UNL     1       1.739   8.478  18.046  0.00  0.00    +0.000 A 
ATOM     21  N   UNL     1       2.105   7.217  18.301  0.00  0.00    +0.000 NA
BRANCH  18  22
ATOM     22  N   UNL     1       0.973   9.917  21.207  0.00  0.00    +0.000 N 
ATOM     23  C   UNL     1       0.734   9.530  22.604  0.00  0.00    +0.000 C 
ATOM     24  C   UNL     1      -0.729   9.778  22.999  0.00  0.00    +0.000 C 
ATOM     25  O   UNL     1      -1.136  11.123  22.712  0.00  0.00    +0.000 OA
ATOM     26  C   UNL     1      -1.026  11.375  21.300  0.00  0.00    +0.000 C 
ATOM     27  C   UNL     1       0.420  11.219  20.814  0.00  0.00    +0.000 C 
ENDBRANCH  18  22
ENDBRANCH   7  16
TORSDOF 3
ENDMDL
MODEL 6
REMARK VINA RESULT:      -8.5      1.086      1.318
REMARK  Name = 
REMARK  4 active torsions:
REMARK  status: ('A' for Active; 'I' for Inactive)
REMARK    1  A    between atoms: C_1  and  C_2
REMARK    2  A    between atoms: C_6  and  C_7
REMARK    3  A    between atoms: C_13  and  C_14
REMARK    4  A    between atoms: C_16  and  N_17
REMARK                            x       y       z     vdW  Elec       q    Type
REMARK                         _______ _______ _______ _____ _____    ______ ____
ROOT
ATOM      1  C   UNL     1       3.345   3.770  17.360  0.00  0.00    +0.000 C 
ATOM      2  O   UNL     1       2.577   3.349  16.494  0.00  0.00    +0.000 OA
ATOM      3  N   UNL     1       2.967   3.892  18.703  0.00  0.00    +0.000 N 
ATOM      4  C   UNL     1       1.740   3.233  19.139  0.00  0.00    +0.000 C 
ATOM      5  C   UNL     1       0.815   4.168  19.911  0.00  0.00    +0.000 C 
ATOM      6  C   UNL     1       1.563   4.858  21.049  0.00  0.00    +0.000 C 
ATOM      7  C   UNL     1       2.788   5.624  20.524  0.00  0.00    +0.000 C 
ATOM      8  C   UNL     1       3.690   4.669  19.725  0.00  0.00    +0.000 C 
ENDROOT
BRANCH   1  14
ATOM      9  C   UNL     1       8.019   5.249  18.439  0.00  0.00    +0.000 C 
ATOM     10  C   UNL     1       7.029   4.748  17.431  0.00  0.00    +0.000 A 
ATOM     11  C   UNL     1       7.357   4.608  16.080  0.00  0.00    +0.000 A 
ATOM     12  C   UNL     1       6.392   4.189  15.161  0.00  0.00    +0.000 A 
ATOM     13  C   UNL     1       5.082   3.942  15.580  0.00  0.00    +0.000 A 
ATOM     14  C   UNL     1       4.736   4.094  16.928  0.00  0.00    +0.000 A 
ATOM     15  C   UNL     1       5.729   4.443  17.850  0.00  0.00    +0.000 A 
ENDBRANCH   1  14
BRANCH   7  16
ATOM     16  C   UNL     1       2.392   6.865  19.735  0.00  0.00    +0.000 A 
ATOM     17  C   UNL     1       1.575   7.810  20.328  0.00  0.00    +0.000 A 
ATOM     18  C   UNL     1       1.167   8.898  19.576  0.00  0.00    +0.000 A 
ATOM     19  N   UNL     1       1.599   9.047  18.313  0.00  0.00    +0.000 NA
ATOM     20  C   UNL     1       2.405   8.096  17.822  0.00  0.00    +0.000 A 
ATOM     21  N   UNL     1       2.826   7.008  18.475  0.00  0.00    +0.000 NA
BRANCH  18  22
ATOM     22  N   UNL     1       0.343   9.860  20.122  0.00  0.00    +0.000 N 
ATOM     23  C   UNL     1      -0.866  10.341  19.440  0.00  0.00    +0.000 C 
ATOM     24  C   UNL     1      -0.747  11.834  19.101  0.00  0.00    +0.000 C 
ATOM     25  O   UNL     1      -0.404  12.615  20.255  0.00  0.00    +0.000 OA
ATOM     26  C   UNL     1       0.870  12.190  20.770  0.00  0.00    +0.000 C 
ATOM     27  C   UNL     1       0.838  10.720  21.204  0.00  0.00    +0.000 C 
ENDBRANCH  18  22
ENDBRANCH   7  16
TORSDOF 3
ENDMDL
MODEL 7
REMARK VINA RESULT:      -8.4      0.540      1.075
REMARK  Name = 
REMARK  4 active torsions:
REMARK  status: ('A' for Active; 'I' for Inactive)
REMARK    1  A    between atoms: C_1  and  C_2
REMARK    2  A    between atoms: C_6  and  C_7
REMARK    3  A    between atoms: C_13  and  C_14
REMARK    4  A    between atoms: C_16  and  N_17
REMARK                            x       y       z     vdW  Elec       q    Type
REMARK                         _______ _______ _______ _____ _____    ______ ____
ROOT
ATOM      1  C   UNL     1       3.351   3.685  17.223  0.00  0.00    +0.000 C 
ATOM      2  O   UNL     1       2.619   3.432  16.265  0.00  0.00    +0.000 OA
ATOM      3  N   UNL     1       2.917   3.570  18.550  0.00  0.00    +0.000 N 
ATOM      4  C   UNL     1       1.670   2.857  18.811  0.00  0.00    +0.000 C 
ATOM      5  C   UNL     1       0.716   3.649  19.697  0.00  0.00    +0.000 C 
ATOM      6  C   UNL     1       1.417   4.118  20.970  0.00  0.00    +0.000 C 
ATOM      7  C   UNL     1       2.666   4.953  20.641  0.00  0.00    +0.000 C 
ATOM      8  C   UNL     1       3.598   4.145  19.722  0.00  0.00    +0.000 C 
ENDROOT
BRANCH   1  14
ATOM      9  C   UNL     1       7.821   5.440  18.683  0.00  0.00    +0.000 C 
ATOM     10  C   UNL     1       6.959   4.855  17.606  0.00  0.00    +0.000 A 
ATOM     11  C   UNL     1       7.422   4.685  16.298  0.00  0.00    +0.000 A 
ATOM     12  C   UNL     1       6.572   4.185  15.309  0.00  0.00    +0.000 A 
ATOM     13  C   UNL     1       5.242   3.886  15.611  0.00  0.00    +0.000 A 
ATOM     14  C   UNL     1       4.759   4.066  16.913  0.00  0.00    +0.000 A 
ATOM     15  C   UNL     1       5.641   4.497  17.911  0.00  0.00    +0.000 A 
ENDBRANCH   1  14
BRANCH   7  16
ATOM     16  C   UNL     1       2.307   6.318  20.070  0.00  0.00    +0.000 A 
ATOM     17  C   UNL     1       1.904   7.325  20.927  0.00  0.00    +0.000 A 
ATOM     18  C   UNL     1       1.516   8.538  20.388  0.00  0.00    +0.000 A 
ATOM     19  N   UNL     1       1.576   8.739  19.062  0.00  0.00    +0.000 NA
ATOM     20  C   UNL     1       1.998   7.718  18.303  0.00  0.00    +0.000 A 
ATOM     21  N   UNL     1       2.370   6.512  18.744  0.00  0.00    +0.000 NA
BRANCH  18  22
ATOM     22  N   UNL     1       1.096   9.567  21.205  0.00  0.00    +0.000 N 
ATOM     23  C   UNL     1       0.741   9.359  22.616  0.00  0.00    +0.000 C 
ATOM     24  C   UNL     1      -0.740   9.678  22.862  0.00  0.00    +0.000 C 
ATOM     25  O   UNL     1      -1.088  10.985  22.383  0.00  0.00    +0.000 OA
ATOM     26  C   UNL     1      -0.865  11.059  20.964  0.00  0.00    +0.000 C 
ATOM     27  C   UNL     1       0.609  10.820  20.615  0.00  0.00    +0.000 C 
ENDBRANCH  18  22
ENDBRANCH   7  16
TORSDOF 3
ENDMDL
MODEL 8
REMARK VINA RESULT:      -8.4      0.640      1.729
REMARK  Name = 
REMARK  4 active torsions:
REMARK  status: ('A' for Active; 'I' for Inactive)
REMARK    1  A    between atoms: C_1  and  C_2
REMARK    2  A    between atoms: C_6  and  C_7
REMARK    3  A    between atoms: C_13  and  C_14
REMARK    4  A    between atoms: C_16  and  N_17
REMARK                            x       y       z     vdW  Elec       q    Type
REMARK                         _______ _______ _______ _____ _____    ______ ____
ROOT
ATOM      1  C   UNL     1       3.233   3.579  17.216  0.00  0.00    +0.000 C 
ATOM      2  O   UNL     1       2.461   3.326  16.291  0.00  0.00    +0.000 OA
ATOM      3  N   UNL     1       2.845   3.498  18.560  0.00  0.00    +0.000 N 
ATOM      4  C   UNL     1       1.593   2.818  18.880  0.00  0.00    +0.000 C 
ATOM      5  C   UNL     1       0.690   3.648  19.785  0.00  0.00    +0.000 C 
ATOM      6  C   UNL     1       1.447   4.124  21.022  0.00  0.00    +0.000 C 
ATOM      7  C   UNL     1       2.701   4.923  20.632  0.00  0.00    +0.000 C 
ATOM      8  C   UNL     1       3.581   4.078  19.696  0.00  0.00    +0.000 C 
ENDROOT
BRANCH   1  14
ATOM      9  C   UNL     1       6.776   4.336  13.743  0.00  0.00    +0.000 C 
ATOM     10  C   UNL     1       6.362   4.358  15.182  0.00  0.00    +0.000 A 
ATOM     11  C   UNL     1       7.264   4.656  16.207  0.00  0.00    +0.000 A 
ATOM     12  C   UNL     1       6.853   4.615  17.542  0.00  0.00    +0.000 A 
ATOM     13  C   UNL     1       5.547   4.239  17.864  0.00  0.00    +0.000 A 
ATOM     14  C   UNL     1       4.637   3.922  16.849  0.00  0.00    +0.000 A 
ATOM     15  C   UNL     1       5.040   4.039  15.513  0.00  0.00    +0.000 A 
ENDBRANCH   1  14
BRANCH   7  16
ATOM     16  C   UNL     1       2.352   6.286  20.049  0.00  0.00    +0.000 A 
ATOM     17  C   UNL     1       1.942   7.299  20.896  0.00  0.00    +0.000 A 
ATOM     18  C   UNL     1       1.562   8.510  20.345  0.00  0.00    +0.000 A 
ATOM     19  N   UNL     1       1.637   8.703  19.019  0.00  0.00    +0.000 NA
ATOM     20  C   UNL     1       2.065   7.676  18.271  0.00  0.00    +0.000 A 
ATOM     21  N   UNL     1       2.429   6.472  18.723  0.00  0.00    +0.000 NA
BRANCH  18  22
ATOM     22  N   UNL     1       1.136   9.545  21.151  0.00  0.00    +0.000 N 
ATOM     23  C   UNL     1       0.782   9.349  22.564  0.00  0.00    +0.000 C 
ATOM     24  C   UNL     1      -0.702   9.663  22.806  0.00  0.00    +0.000 C 
ATOM     25  O   UNL     1      -1.057  10.963  22.312  0.00  0.00    +0.000 OA
ATOM     26  C   UNL     1      -0.833  11.023  20.893  0.00  0.00    +0.000 C 
ATOM     27  C   UNL     1       0.642  10.789  20.547  0.00  0.00    +0.000 C 
ENDBRANCH  18  22
ENDBRANCH   7  16
TORSDOF 3
ENDMDL
MODEL 9
REMARK VINA RESULT:      -8.2      1.722      2.499
REMARK  Name = 
REMARK  4 active torsions:
REMARK  status: ('A' for Active; 'I' for Inactive)
REMARK    1  A    between atoms: C_1  and  C_2
REMARK    2  A    between atoms: C_6  and  C_7
REMARK    3  A    between atoms: C_13  and  C_14
REMARK    4  A    between atoms: C_16  and  N_17
REMARK                            x       y       z     vdW  Elec       q    Type
REMARK                         _______ _______ _______ _____ _____    ______ ____
ROOT
ATOM      1  C   UNL     1       4.935   5.244  17.329  0.00  0.00    +0.000 C 
ATOM      2  O   UNL     1       4.851   5.040  16.117  0.00  0.00    +0.000 OA
ATOM      3  N   UNL     1       3.933   4.856  18.227  0.00  0.00    +0.000 N 
ATOM      4  C   UNL     1       2.905   3.931  17.759  0.00  0.00    +0.000 C 
ATOM      5  C   UNL     1       1.494   4.419  18.065  0.00  0.00    +0.000 C 
ATOM      6  C   UNL     1       1.350   4.780  19.541  0.00  0.00    +0.000 C 
ATOM      7  C   UNL     1       2.388   5.834  19.960  0.00  0.00    +0.000 C 
ATOM      8  C   UNL     1       3.799   5.332  19.614  0.00  0.00    +0.000 C 
ENDROOT
BRANCH   1  14
ATOM      9  C   UNL     1       8.072   9.159  17.512  0.00  0.00    +0.000 C 
ATOM     10  C   UNL     1       7.704   7.784  17.979  0.00  0.00    +0.000 A 
ATOM     11  C   UNL     1       8.525   7.051  18.840  0.00  0.00    +0.000 A 
ATOM     12  C   UNL     1       8.174   5.751  19.212  0.00  0.00    +0.000 A 
ATOM     13  C   UNL     1       7.018   5.160  18.696  0.00  0.00    +0.000 A 
ATOM     14  C   UNL     1       6.193   5.877  17.820  0.00  0.00    +0.000 A 
ATOM     15  C   UNL     1       6.518   7.204  17.514  0.00  0.00    +0.000 A 
ENDBRANCH   1  14
BRANCH   7  16
ATOM     16  C   UNL     1       2.083   7.203  19.367  0.00  0.00    +0.000 A 
ATOM     17  C   UNL     1       1.301   8.090  20.083  0.00  0.00    +0.000 A 
ATOM     18  C   UNL     1       0.976   9.304  19.503  0.00  0.00    +0.000 A 
ATOM     19  N   UNL     1       1.452   9.622  18.289  0.00  0.00    +0.000 NA
ATOM     20  C   UNL     1       2.220   8.714  17.672  0.00  0.00    +0.000 A 
ATOM     21  N   UNL     1       2.562   7.515  18.154  0.00  0.00    +0.000 NA
BRANCH  18  22
ATOM     22  N   UNL     1       0.189  10.215  20.176  0.00  0.00    +0.000 N 
ATOM     23  C   UNL     1      -1.068  10.733  19.619  0.00  0.00    +0.000 C 
ATOM     24  C   UNL     1      -0.980  12.248  19.383  0.00  0.00    +0.000 C 
ATOM     25  O   UNL     1      -0.559  12.946  20.564  0.00  0.00    +0.000 OA
ATOM     26  C   UNL     1       0.751  12.497  20.954  0.00  0.00    +0.000 C 
ATOM     27  C   UNL     1       0.756  10.999  21.280  0.00  0.00    +0.000 C 
ENDBRANCH  18  22
ENDBRANCH   7  16
TORSDOF 3
ENDMDL
