MODEL 1
REMARK VINA RESULT:      -7.6      0.000      0.000
REMARK  Name = 
REMARK  5 active torsions:
REMARK  status: ('A' for Active; 'I' for Inactive)
REMARK    1  A    between atoms: C_5  and  O_6
REMARK    2  A    between atoms: C_7  and  C_8
REMARK    3  A    between atoms: C_12  and  O_13
REMARK    4  A    between atoms: O_13  and  C_14
REMARK    5  A    between atoms: C_14  and  C_15
REMARK                            x       y       z     vdW  Elec       q    Type
REMARK                         _______ _______ _______ _____ _____    ______ ____
ROOT
ATOM      1  C   UNL     1       3.047   6.536  18.197  0.00  0.00    +0.000 A 
ATOM      2  C   UNL     1       4.363   6.758  17.766  0.00  0.00    +0.000 A 
ATOM      3  C   UNL     1       5.060   5.785  17.051  0.00  0.00    +0.000 A 
ATOM      4  C   UNL     1       4.447   4.576  16.735  0.00  0.00    +0.000 A 
ATOM      5  C   UNL     1       3.126   4.347  17.117  0.00  0.00    +0.000 A 
ATOM      6  C   UNL     1       2.444   5.310  17.870  0.00  0.00    +0.000 A 
ENDROOT
BRANCH   1  12
ATOM      7  O   UNL     1       2.115   9.304  17.239  0.00  0.00    +0.000 OA
ATOM      8  C   UNL     1       1.905   8.897  18.369  0.00  0.00    +0.000 C 
ATOM      9  O   UNL     1       1.247   9.615  19.323  0.00  0.00    +0.000 OA
ATOM     10  C   UNL     1       1.166   8.847  20.514  0.00  0.00    +0.000 C 
ATOM     11  C   UNL     1       1.867   7.594  20.177  0.00  0.00    +0.000 C 
ATOM     12  C   UNL     1       2.310   7.581  18.917  0.00  0.00    +0.000 C 
BRANCH  11  13
ATOM     13  O   UNL     1       2.030   6.597  21.104  0.00  0.00    +0.000 OA
ATOM     14  H   UNL     1       2.662   6.882  21.787  0.00  0.00    +0.000 HD
ENDBRANCH  11  13
ENDBRANCH   1  12
BRANCH   5  15
ATOM     15  O   UNL     1       2.407   3.225  16.802  0.00  0.00    +0.000 OA
BRANCH  15  16
ATOM     16  C   UNL     1       2.682   2.082  17.618  0.00  0.00    +0.000 C 
BRANCH  16  17
ATOM     17  C   UNL     1       2.373   2.371  19.068  0.00  0.00    +0.000 A 
ATOM     18  C   UNL     1       3.416   2.386  20.008  0.00  0.00    +0.000 A 
ATOM     19  C   UNL     1       3.158   2.656  21.351  0.00  0.00    +0.000 A 
ATOM     20  C   UNL     1       1.857   2.926  21.769  0.00  0.00    +0.000 A 
ATOM     21  C   UNL     1       0.816   2.938  20.842  0.00  0.00    +0.000 A 
ATOM     22  C   UNL     1       1.073   2.670  19.497  0.00  0.00    +0.000 A 
ENDBRANCH  16  17
ENDBRANCH  15  16
ENDBRANCH   5  15
TORSDOF 5
ENDMDL
MODEL 2
REMARK VINA RESULT:      -7.6      0.078      1.055
REMARK  Name = 
REMARK  5 active torsions:
REMARK  status: ('A' for Active; 'I' for Inactive)
REMARK    1  A    between atoms: C_5  and  O_6
REMARK    2  A    between atoms: C_7  and  C_8
REMARK    3  A    between atoms: C_12  and  O_13
REMARK    4  A    between atoms: O_13  and  C_14
REMARK    5  A    between atoms: C_14  and  C_15
REMARK                            x       y       z     vdW  Elec       q    Type
REMARK                         _______ _______ _______ _____ _____    ______ ____
ROOT
ATOM      1  C   UNL     1       3.067   6.531  18.149  0.00  0.00    +0.000 A 
ATOM      2  C   UNL     1       4.359   6.787  17.668  0.00  0.00    +0.000 A 
ATOM      3  C   UNL     1       5.059   5.827  16.936  0.00  0.00    +0.000 A 
ATOM      4  C   UNL     1       4.470   4.598  16.653  0.00  0.00    +0.000 A 
ATOM      5  C   UNL     1       3.172   4.334  17.086  0.00  0.00    +0.000 A 
ATOM      6  C   UNL     1       2.490   5.284  17.856  0.00  0.00    +0.000 A 
ENDROOT
BRANCH   1  12
ATOM      7  O   UNL     1       2.101   9.299  17.229  0.00  0.00    +0.000 OA
ATOM      8  C   UNL     1       1.905   8.878  18.356  0.00  0.00    +0.000 C 
ATOM      9  O   UNL     1       1.247   9.579  19.323  0.00  0.00    +0.000 OA
ATOM     10  C   UNL     1       1.184   8.797  20.507  0.00  0.00    +0.000 C 
ATOM     11  C   UNL     1       1.893   7.555  20.151  0.00  0.00    +0.000 C 
ATOM     12  C   UNL     1       2.327   7.560  18.886  0.00  0.00    +0.000 C 
BRANCH  11  13
ATOM     13  O   UNL     1       2.074   6.549  21.065  0.00  0.00    +0.000 OA
ATOM     14  H   UNL     1       1.220   6.128  21.263  0.00  0.00    +0.000 HD
ENDBRANCH  11  13
ENDBRANCH   1  12
BRANCH   5  15
ATOM     15  O   UNL     1       2.475   3.188  16.808  0.00  0.00    +0.000 OA
BRANCH  15  16
ATOM     16  C   UNL     1       2.779   2.076  17.656  0.00  0.00    +0.000 C 
BRANCH  16  17
ATOM     17  C   UNL     1       2.439   2.389  19.094  0.00  0.00    +0.000 A 
ATOM     18  C   UNL     1       1.105   2.653  19.446  0.00  0.00    +0.000 A 
ATOM     19  C   UNL     1       0.763   2.939  20.767  0.00  0.00    +0.000 A 
ATOM     20  C   UNL     1       1.745   2.950  21.753  0.00  0.00    +0.000 A 
ATOM     21  C   UNL     1       3.069   2.665  21.422  0.00  0.00    +0.000 A 
ATOM     22  C   UNL     1       3.414   2.378  20.100  0.00  0.00    +0.000 A 
ENDBRANCH  16  17
ENDBRANCH  15  16
ENDBRANCH   5  15
TORSDOF 5
ENDMDL
MODEL 3
REMARK VINA RESULT:      -7.6      2.830      6.020
REMARK  Name = 
REMARK  5 active torsions:
REMARK  status: ('A' for Active; 'I' for Inactive)
REMARK    1  A    between atoms: C_5  and  O_6
REMARK    2  A    between atoms: C_7  and  C_8
REMARK    3  A    between atoms: C_12  and  O_13
REMARK    4  A    between atoms: O_13  and  C_14
REMARK    5  A    between atoms: C_14  and  C_15
REMARK                            x       y       z     vdW  Elec       q    Type
REMARK                         _______ _______ _______ _____ _____    ______ ____
ROOT
ATOM      1  C   UNL     1       3.141   5.216  18.524  0.00  0.00    +0.000 A 
ATOM      2  C   UNL     1       2.546   6.478  18.380  0.00  0.00    +0.000 A 
ATOM      3  C   UNL     1       3.183   7.497  17.670  0.00  0.00    +0.000 A 
ATOM      4  C   UNL     1       4.419   7.266  17.073  0.00  0.00    +0.000 A 
ATOM      5  C   UNL     1       5.012   6.008  17.169  0.00  0.00    +0.000 A 
ATOM      6  C   UNL     1       4.389   5.002  17.917  0.00  0.00    +0.000 A 
ENDROOT
BRANCH   1  12
ATOM      7  O   UNL     1       1.925   2.603  17.457  0.00  0.00    +0.000 OA
ATOM      8  C   UNL     1       1.886   2.911  18.637  0.00  0.00    +0.000 C 
ATOM      9  O   UNL     1       1.303   2.142  19.601  0.00  0.00    +0.000 OA
ATOM     10  C   UNL     1       1.444   2.785  20.859  0.00  0.00    +0.000 C 
ATOM     11  C   UNL     1       2.160   4.034  20.543  0.00  0.00    +0.000 C 
ATOM     12  C   UNL     1       2.446   4.142  19.242  0.00  0.00    +0.000 C 
BRANCH  11  13
ATOM     13  O   UNL     1       2.454   4.954  21.515  0.00  0.00    +0.000 OA
ATOM     14  H   UNL     1       3.368   4.827  21.823  0.00  0.00    +0.000 HD
ENDBRANCH  11  13
ENDBRANCH   1  12
BRANCH   5  15
ATOM     15  O   UNL     1       6.189   5.653  16.566  0.00  0.00    +0.000 OA
BRANCH  15  16
ATOM     16  C   UNL     1       6.227   4.316  16.055  0.00  0.00    +0.000 C 
BRANCH  16  17
ATOM     17  C   UNL     1       6.504   4.316  14.571  0.00  0.00    +0.000 A 
ATOM     18  C   UNL     1       7.514   5.146  14.057  0.00  0.00    +0.000 A 
ATOM     19  C   UNL     1       7.794   5.160  12.691  0.00  0.00    +0.000 A 
ATOM     20  C   UNL     1       7.079   4.337  11.825  0.00  0.00    +0.000 A 
ATOM     21  C   UNL     1       6.091   3.490  12.326  0.00  0.00    +0.000 A 
ATOM     22  C   UNL     1       5.809   3.474  13.693  0.00  0.00    +0.000 A 
ENDBRANCH  16  17
ENDBRANCH  15  16
ENDBRANCH   5  15
TORSDOF 5
ENDMDL
MODEL 4
REMARK VINA RESULT:      -7.5      3.489      6.435
REMARK  Name = 
REMARK  5 active torsions:
REMARK  status: ('A' for Active; 'I' for Inactive)
REMARK    1  A    between atoms: C_5  and  O_6
REMARK    2  A    between atoms: C_7  and  C_8
REMARK    3  A    between atoms: C_12  and  O_13
REMARK    4  A    between atoms: O_13  and  C_14
REMARK    5  A    between atoms: C_14  and  C_15
REMARK                            x       y       z     vdW  Elec       q    Type
REMARK                         _______ _______ _______ _____ _____    ______ ____
ROOT
ATOM      1  C   UNL     1       4.166   4.480  17.439  0.00  0.00    +0.000 A 
ATOM      2  C   UNL     1       3.953   5.866  17.485  0.00  0.00    +0.000 A 
ATOM      3  C   UNL     1       4.771   6.744  16.774  0.00  0.00    +0.000 A 
ATOM      4  C   UNL     1       5.807   6.251  15.985  0.00  0.00    +0.000 A 
ATOM      5  C   UNL     1       6.014   4.876  15.892  0.00  0.00    +0.000 A 
ATOM      6  C   UNL     1       5.217   4.002  16.640  0.00  0.00    +0.000 A 
ENDROOT
BRANCH   1  12
ATOM      7  O   UNL     1       1.118   4.139  17.254  0.00  0.00    +0.000 OA
ATOM      8  C   UNL     1       1.807   3.473  18.008  0.00  0.00    +0.000 C 
ATOM      9  O   UNL     1       1.309   2.519  18.845  0.00  0.00    +0.000 OA
ATOM     10  C   UNL     1       2.378   1.930  19.570  0.00  0.00    +0.000 C 
ATOM     11  C   UNL     1       3.573   2.650  19.091  0.00  0.00    +0.000 C 
ATOM     12  C   UNL     1       3.278   3.564  18.162  0.00  0.00    +0.000 C 
BRANCH  11  13
ATOM     13  O   UNL     1       4.818   2.381  19.596  0.00  0.00    +0.000 OA
ATOM     14  H   UNL     1       5.500   2.700  18.979  0.00  0.00    +0.000 HD
ENDBRANCH  11  13
ENDBRANCH   1  12
BRANCH   5  15
ATOM     15  O   UNL     1       6.958   4.283  15.096  0.00  0.00    +0.000 OA
BRANCH  15  16
ATOM     16  C   UNL     1       7.032   4.797  13.762  0.00  0.00    +0.000 C 
BRANCH  16  17
ATOM     17  C   UNL     1       6.352   3.865  12.789  0.00  0.00    +0.000 A 
ATOM     18  C   UNL     1       7.112   2.897  12.113  0.00  0.00    +0.000 A 
ATOM     19  C   UNL     1       6.508   2.019  11.214  0.00  0.00    +0.000 A 
ATOM     20  C   UNL     1       5.135   2.091  10.989  0.00  0.00    +0.000 A 
ATOM     21  C   UNL     1       4.365   3.031  11.671  0.00  0.00    +0.000 A 
ATOM     22  C   UNL     1       4.968   3.909  12.573  0.00  0.00    +0.000 A 
ENDBRANCH  16  17
ENDBRANCH  15  16
ENDBRANCH   5  15
TORSDOF 5
ENDMDL
MODEL 5
REMARK VINA RESULT:      -7.5      2.993      6.378
REMARK  Name = 
REMARK  5 active torsions:
REMARK  status: ('A' for Active; 'I' for Inactive)
REMARK    1  A    between atoms: C_5  and  O_6
REMARK    2  A    between atoms: C_7  and  C_8
REMARK    3  A    between atoms: C_12  and  O_13
REMARK    4  A    between atoms: O_13  and  C_14
REMARK    5  A    between atoms: C_14  and  C_15
REMARK                            x       y       z     vdW  Elec       q    Type
REMARK                         _______ _______ _______ _____ _____    ______ ____
ROOT
ATOM      1  C   UNL     1       3.578   5.044  17.955  0.00  0.00    +0.000 A 
ATOM      2  C   UNL     1       2.782   6.163  18.241  0.00  0.00    +0.000 A 
ATOM      3  C   UNL     1       3.167   7.442  17.837  0.00  0.00    +0.000 A 
ATOM      4  C   UNL     1       4.348   7.624  17.122  0.00  0.00    +0.000 A 
ATOM      5  C   UNL     1       5.135   6.523  16.792  0.00  0.00    +0.000 A 
ATOM      6  C   UNL     1       4.767   5.247  17.234  0.00  0.00    +0.000 A 
ENDROOT
BRANCH   1  12
ATOM      7  O   UNL     1       0.861   3.659  17.581  0.00  0.00    +0.000 OA
ATOM      8  C   UNL     1       1.803   3.115  18.132  0.00  0.00    +0.000 C 
ATOM      9  O   UNL     1       1.757   1.851  18.641  0.00  0.00    +0.000 OA
ATOM     10  C   UNL     1       3.021   1.525  19.199  0.00  0.00    +0.000 C 
ATOM     11  C   UNL     1       3.827   2.741  18.988  0.00  0.00    +0.000 C 
ATOM     12  C   UNL     1       3.147   3.700  18.353  0.00  0.00    +0.000 C 
BRANCH  11  13
ATOM     13  O   UNL     1       5.121   2.825  19.434  0.00  0.00    +0.000 OA
ATOM     14  H   UNL     1       5.695   3.150  18.718  0.00  0.00    +0.000 HD
ENDBRANCH  11  13
ENDBRANCH   1  12
BRANCH   5  15
ATOM     15  O   UNL     1       6.277   6.580  16.037  0.00  0.00    +0.000 OA
BRANCH  15  16
ATOM     16  C   UNL     1       6.963   5.332  15.885  0.00  0.00    +0.000 C 
BRANCH  16  17
ATOM     17  C   UNL     1       6.887   4.848  14.457  0.00  0.00    +0.000 A 
ATOM     18  C   UNL     1       7.771   5.374  13.501  0.00  0.00    +0.000 A 
ATOM     19  C   UNL     1       7.726   4.940  12.177  0.00  0.00    +0.000 A 
ATOM     20  C   UNL     1       6.807   3.966  11.795  0.00  0.00    +0.000 A 
ATOM     21  C   UNL     1       5.940   3.417  12.739  0.00  0.00    +0.000 A 
ATOM     22  C   UNL     1       5.985   3.850  14.065  0.00  0.00    +0.000 A 
ENDBRANCH  16  17
ENDBRANCH  15  16
ENDBRANCH   5  15
TORSDOF 5
ENDMDL
MODEL 6
REMARK VINA RESULT:      -7.5      3.614      6.615
REMARK  Name = 
REMARK  5 active torsions:
REMARK  status: ('A' for Active; 'I' for Inactive)
REMARK    1  A    between atoms: C_5  and  O_6
REMARK    2  A    between atoms: C_7  and  C_8
REMARK    3  A    between atoms: C_12  and  O_13
REMARK    4  A    between atoms: O_13  and  C_14
REMARK    5  A    between atoms: C_14  and  C_15
REMARK                            x       y       z     vdW  Elec       q    Type
REMARK                         _______ _______ _______ _____ _____    ______ ____
ROOT
ATOM      1  C   UNL     1       4.159   4.504  17.409  0.00  0.00    +0.000 A 
ATOM      2  C   UNL     1       3.981   5.890  17.517  0.00  0.00    +0.000 A 
ATOM      3  C   UNL     1       4.792   6.778  16.810  0.00  0.00    +0.000 A 
ATOM      4  C   UNL     1       5.786   6.293  15.964  0.00  0.00    +0.000 A 
ATOM      5  C   UNL     1       5.956   4.919  15.809  0.00  0.00    +0.000 A 
ATOM      6  C   UNL     1       5.167   4.033  16.552  0.00  0.00    +0.000 A 
ENDROOT
BRANCH   1  12
ATOM      7  O   UNL     1       1.109   4.162  17.244  0.00  0.00    +0.000 OA
ATOM      8  C   UNL     1       1.804   3.489  17.986  0.00  0.00    +0.000 C 
ATOM      9  O   UNL     1       1.314   2.526  18.817  0.00  0.00    +0.000 OA
ATOM     10  C   UNL     1       2.389   1.931  19.529  0.00  0.00    +0.000 C 
ATOM     11  C   UNL     1       3.579   2.656  19.048  0.00  0.00    +0.000 C 
ATOM     12  C   UNL     1       3.277   3.579  18.130  0.00  0.00    +0.000 C 
BRANCH  11  13
ATOM     13  O   UNL     1       4.829   2.383  19.541  0.00  0.00    +0.000 OA
ATOM     14  H   UNL     1       4.832   2.493  20.508  0.00  0.00    +0.000 HD
ENDBRANCH  11  13
ENDBRANCH   1  12
BRANCH   5  15
ATOM     15  O   UNL     1       6.855   4.336  14.955  0.00  0.00    +0.000 OA
BRANCH  15  16
ATOM     16  C   UNL     1       6.813   4.825  13.610  0.00  0.00    +0.000 C 
BRANCH  16  17
ATOM     17  C   UNL     1       6.435   3.723  12.650  0.00  0.00    +0.000 A 
ATOM     18  C   UNL     1       5.080   3.497  12.356  0.00  0.00    +0.000 A 
ATOM     19  C   UNL     1       4.704   2.490  11.468  0.00  0.00    +0.000 A 
ATOM     20  C   UNL     1       5.676   1.705  10.854  0.00  0.00    +0.000 A 
ATOM     21  C   UNL     1       7.026   1.934  11.118  0.00  0.00    +0.000 A 
ATOM     22  C   UNL     1       7.404   2.943  12.005  0.00  0.00    +0.000 A 
ENDBRANCH  16  17
ENDBRANCH  15  16
ENDBRANCH   5  15
TORSDOF 5
ENDMDL
MODEL 7
REMARK VINA RESULT:      -7.4      2.956      6.363
REMARK  Name = 
REMARK  5 active torsions:
REMARK  status: ('A' for Active; 'I' for Inactive)
REMARK    1  A    between atoms: C_5  and  O_6
REMARK    2  A    between atoms: C_7  and  C_8
REMARK    3  A    between atoms: C_12  and  O_13
REMARK    4  A    between atoms: O_13  and  C_14
REMARK    5  A    between atoms: C_14  and  C_15
REMARK                            x       y       z     vdW  Elec       q    Type
REMARK                         _______ _______ _______ _____ _____    ______ ____
ROOT
ATOM      1  C   UNL     1       3.327   5.161  18.086  0.00  0.00    +0.000 A 
ATOM      2  C   UNL     1       2.584   6.286  18.473  0.00  0.00    +0.000 A 
ATOM      3  C   UNL     1       2.925   7.563  18.024  0.00  0.00    +0.000 A 
ATOM      4  C   UNL     1       4.006   7.736  17.163  0.00  0.00    +0.000 A 
ATOM      5  C   UNL     1       4.734   6.628  16.733  0.00  0.00    +0.000 A 
ATOM      6  C   UNL     1       4.414   5.355  17.218  0.00  0.00    +0.000 A 
ENDROOT
BRANCH   1  12
ATOM      7  O   UNL     1       4.931   3.073  19.669  0.00  0.00    +0.000 OA
ATOM      8  C   UNL     1       3.788   2.874  19.295  0.00  0.00    +0.000 C 
ATOM      9  O   UNL     1       3.103   1.719  19.530  0.00  0.00    +0.000 OA
ATOM     10  C   UNL     1       1.802   1.824  18.972  0.00  0.00    +0.000 C 
ATOM     11  C   UNL     1       1.786   3.164  18.357  0.00  0.00    +0.000 C 
ATOM     12  C   UNL     1       2.937   3.819  18.534  0.00  0.00    +0.000 C 
BRANCH  11  13
ATOM     13  O   UNL     1       0.689   3.624  17.675  0.00  0.00    +0.000 OA
ATOM     14  H   UNL     1       0.955   3.924  16.789  0.00  0.00    +0.000 HD
ENDBRANCH  11  13
ENDBRANCH   1  12
BRANCH   5  15
ATOM     15  O   UNL     1       5.769   6.677  15.838  0.00  0.00    +0.000 OA
BRANCH  15  16
ATOM     16  C   UNL     1       6.597   5.509  15.809  0.00  0.00    +0.000 C 
BRANCH  16  17
ATOM     17  C   UNL     1       6.622   4.903  14.426  0.00  0.00    +0.000 A 
ATOM     18  C   UNL     1       7.628   5.282  13.523  0.00  0.00    +0.000 A 
ATOM     19  C   UNL     1       7.677   4.732  12.242  0.00  0.00    +0.000 A 
ATOM     20  C   UNL     1       6.730   3.789  11.854  0.00  0.00    +0.000 A 
ATOM     21  C   UNL     1       5.740   3.385  12.749  0.00  0.00    +0.000 A 
ATOM     22  C   UNL     1       5.690   3.933  14.032  0.00  0.00    +0.000 A 
ENDBRANCH  16  17
ENDBRANCH  15  16
ENDBRANCH   5  15
TORSDOF 5
ENDMDL
MODEL 8
REMARK VINA RESULT:      -7.4      2.972      6.421
REMARK  Name = 
REMARK  5 active torsions:
REMARK  status: ('A' for Active; 'I' for Inactive)
REMARK    1  A    between atoms: C_5  and  O_6
REMARK    2  A    between atoms: C_7  and  C_8
REMARK    3  A    between atoms: C_12  and  O_13
REMARK    4  A    between atoms: O_13  and  C_14
REMARK    5  A    between atoms: C_14  and  C_15
REMARK                            x       y       z     vdW  Elec       q    Type
REMARK                         _______ _______ _______ _____ _____    ______ ____
ROOT
ATOM      1  C   UNL     1       3.351   5.160  18.109  0.00  0.00    +0.000 A 
ATOM      2  C   UNL     1       2.632   6.294  18.514  0.00  0.00    +0.000 A 
ATOM      3  C   UNL     1       2.970   7.565  18.050  0.00  0.00    +0.000 A 
ATOM      4  C   UNL     1       4.025   7.726  17.156  0.00  0.00    +0.000 A 
ATOM      5  C   UNL     1       4.730   6.610  16.708  0.00  0.00    +0.000 A 
ATOM      6  C   UNL     1       4.414   5.341  17.207  0.00  0.00    +0.000 A 
ENDROOT
BRANCH   1  12
ATOM      7  O   UNL     1       4.976   3.074  19.674  0.00  0.00    +0.000 OA
ATOM      8  C   UNL     1       3.825   2.879  19.324  0.00  0.00    +0.000 C 
ATOM      9  O   UNL     1       3.138   1.729  19.581  0.00  0.00    +0.000 OA
ATOM     10  C   UNL     1       1.827   1.838  19.048  0.00  0.00    +0.000 C 
ATOM     11  C   UNL     1       1.806   3.174  18.425  0.00  0.00    +0.000 C 
ATOM     12  C   UNL     1       2.964   3.824  18.574  0.00  0.00    +0.000 C 
BRANCH  11  13
ATOM     13  O   UNL     1       0.698   3.635  17.762  0.00  0.00    +0.000 OA
ATOM     14  H   UNL     1      -0.079   3.103  18.010  0.00  0.00    +0.000 HD
ENDBRANCH  11  13
ENDBRANCH   1  12
BRANCH   5  15
ATOM     15  O   UNL     1       5.738   6.646  15.781  0.00  0.00    +0.000 OA
BRANCH  15  16
ATOM     16  C   UNL     1       6.595   5.499  15.777  0.00  0.00    +0.000 C 
BRANCH  16  17
ATOM     17  C   UNL     1       6.659   4.881  14.401  0.00  0.00    +0.000 A 
ATOM     18  C   UNL     1       5.662   3.975  14.003  0.00  0.00    +0.000 A 
ATOM     19  C   UNL     1       5.694   3.396  12.736  0.00  0.00    +0.000 A 
ATOM     20  C   UNL     1       6.715   3.723  11.847  0.00  0.00    +0.000 A 
ATOM     21  C   UNL     1       7.697   4.639  12.220  0.00  0.00    +0.000 A 
ATOM     22  C   UNL     1       7.666   5.222  13.488  0.00  0.00    +0.000 A 
ENDBRANCH  16  17
ENDBRANCH  15  16
ENDBRANCH   5  15
TORSDOF 5
ENDMDL
MODEL 9
REMARK VINA RESULT:      -7.4      2.914      6.147
REMARK  Name = 
REMARK  5 active torsions:
REMARK  status: ('A' for Active; 'I' for Inactive)
REMARK    1  A    between atoms: C_5  and  O_6
REMARK    2  A    between atoms: C_7  and  C_8
REMARK    3  A    between atoms: C_12  and  O_13
REMARK    4  A    between atoms: O_13  and  C_14
REMARK    5  A    between atoms: C_14  and  C_15
REMARK                            x       y       z     vdW  Elec       q    Type
REMARK                         _______ _______ _______ _____ _____    ______ ____
ROOT
ATOM      1  C   UNL     1       3.467   4.888  18.591  0.00  0.00    +0.000 A 
ATOM      2  C   UNL     1       3.099   6.212  18.312  0.00  0.00    +0.000 A 
ATOM      3  C   UNL     1       3.902   7.030  17.516  0.00  0.00    +0.000 A 
ATOM      4  C   UNL     1       5.081   6.532  16.967  0.00  0.00    +0.000 A 
ATOM      5  C   UNL     1       5.447   5.207  17.197  0.00  0.00    +0.000 A 
ATOM      6  C   UNL     1       4.660   4.403  18.030  0.00  0.00    +0.000 A 
ENDROOT
BRANCH   1  12
ATOM      7  O   UNL     1       2.095   2.238  17.859  0.00  0.00    +0.000 OA
ATOM      8  C   UNL     1       1.973   2.757  18.955  0.00  0.00    +0.000 C 
ATOM      9  O   UNL     1       1.222   2.231  19.965  0.00  0.00    +0.000 OA
ATOM     10  C   UNL     1       1.307   3.078  21.101  0.00  0.00    +0.000 C 
ATOM     11  C   UNL     1       2.177   4.183  20.658  0.00  0.00    +0.000 C 
ATOM     12  C   UNL     1       2.598   4.026  19.399  0.00  0.00    +0.000 C 
BRANCH  11  13
ATOM     13  O   UNL     1       2.469   5.237  21.484  0.00  0.00    +0.000 OA
ATOM     14  H   UNL     1       1.652   5.721  21.700  0.00  0.00    +0.000 HD
ENDBRANCH  11  13
ENDBRANCH   1  12
BRANCH   5  15
ATOM     15  O   UNL     1       6.546   4.597  16.653  0.00  0.00    +0.000 OA
BRANCH  15  16
ATOM     16  C   UNL     1       7.217   5.355  15.641  0.00  0.00    +0.000 C 
BRANCH  16  17
ATOM     17  C   UNL     1       6.948   4.779  14.271  0.00  0.00    +0.000 A 
ATOM     18  C   UNL     1       5.854   3.917  14.088  0.00  0.00    +0.000 A 
ATOM     19  C   UNL     1       5.579   3.376  12.832  0.00  0.00    +0.000 A 
ATOM     20  C   UNL     1       6.385   3.700  11.744  0.00  0.00    +0.000 A 
ATOM     21  C   UNL     1       7.459   4.574  11.907  0.00  0.00    +0.000 A 
ATOM     22  C   UNL     1       7.735   5.117  13.163  0.00  0.00    +0.000 A 
ENDBRANCH  16  17
ENDBRANCH  15  16
ENDBRANCH   5  15
TORSDOF 5
ENDMDL
