MODEL 1
REMARK VINA RESULT:      -7.3      0.000      0.000
REMARK  Name = 
REMARK  11 active torsions:
REMARK  status: ('A' for Active; 'I' for Inactive)
REMARK    1  A    between atoms: C_1  and  C_2
REMARK    2  A    between atoms: C_4  and  C_5
REMARK    3  A    between atoms: C_7  and  C_8
REMARK    4  A    between atoms: N_10  and  C_11
REMARK    5  A    between atoms: C_11  and  C_12
REMARK    6  A    between atoms: C_11  and  C_13
REMARK    7  A    between atoms: C_11  and  C_14
REMARK    8  A    between atoms: C_14  and  C_15
REMARK    9  A    between atoms: C_15  and  C_16
REMARK   10  A    between atoms: C_15  and  C_17
REMARK   11  A    between atoms: C_15  and  C_18
REMARK                            x       y       z     vdW  Elec       q    Type
REMARK                         _______ _______ _______ _____ _____    ______ ____
ROOT
ATOM      1  C   UNL     1       5.275   4.897  19.036  0.00  0.00    +0.000 C 
ATOM      2  O   UNL     1       5.932   3.873  19.196  0.00  0.00    +0.000 OA
ATOM      3  N   UNL     1       5.774   6.000  18.373  0.00  0.00    +0.000 N 
ATOM      4  H   UNL     1       5.213   6.835  18.311  0.00  0.00    +0.000 HD
ENDROOT
BRANCH   1  11
ATOM      5  C   UNL     1       0.994   2.863  20.918  0.00  0.00    +0.000 C 
ATOM      6  C   UNL     1       1.821   4.049  20.503  0.00  0.00    +0.000 A 
ATOM      7  C   UNL     1       1.304   5.349  20.626  0.00  0.00    +0.000 A 
ATOM      8  C   UNL     1       2.060   6.455  20.238  0.00  0.00    +0.000 A 
ATOM      9  C   UNL     1       1.540   7.855  20.349  0.00  0.00    +0.000 C 
ATOM     10  C   UNL     1       3.347   6.250  19.729  0.00  0.00    +0.000 A 
ATOM     11  C   UNL     1       3.894   4.959  19.599  0.00  0.00    +0.000 A 
ATOM     12  C   UNL     1       3.119   3.860  19.989  0.00  0.00    +0.000 A 
ENDBRANCH   1  11
BRANCH   3  13
ATOM     13  C   UNL     1       7.180   6.083  17.875  0.00  0.00    +0.000 C 
ATOM     14  C   UNL     1       7.384   7.540  17.418  0.00  0.00    +0.000 C 
ATOM     15  C   UNL     1       8.126   5.822  19.060  0.00  0.00    +0.000 C 
BRANCH  13  16
ATOM     16  C   UNL     1       7.358   5.062  16.690  0.00  0.00    +0.000 C 
BRANCH  16  17
ATOM     17  C   UNL     1       6.364   4.934  15.487  0.00  0.00    +0.000 C 
ATOM     18  C   UNL     1       7.067   4.882  14.123  0.00  0.00    +0.000 C 
ATOM     19  C   UNL     1       5.611   3.585  15.643  0.00  0.00    +0.000 C 
ATOM     20  C   UNL     1       5.299   6.037  15.475  0.00  0.00    +0.000 C 
ENDBRANCH  16  17
ENDBRANCH  13  16
ENDBRANCH   3  13
TORSDOF 4
ENDMDL
MODEL 2
REMARK VINA RESULT:      -7.2      0.211      2.215
REMARK  Name = 
REMARK  11 active torsions:
REMARK  status: ('A' for Active; 'I' for Inactive)
REMARK    1  A    between atoms: C_1  and  C_2
REMARK    2  A    between atoms: C_4  and  C_5
REMARK    3  A    between atoms: C_7  and  C_8
REMARK    4  A    between atoms: N_10  and  C_11
REMARK    5  A    between atoms: C_11  and  C_12
REMARK    6  A    between atoms: C_11  and  C_13
REMARK    7  A    between atoms: C_11  and  C_14
REMARK    8  A    between atoms: C_14  and  C_15
REMARK    9  A    between atoms: C_15  and  C_16
REMARK   10  A    between atoms: C_15  and  C_17
REMARK   11  A    between atoms: C_15  and  C_18
REMARK                            x       y       z     vdW  Elec       q    Type
REMARK                         _______ _______ _______ _____ _____    ______ ____
ROOT
ATOM      1  C   UNL     1       5.164   4.988  19.077  0.00  0.00    +0.000 C 
ATOM      2  O   UNL     1       5.683   3.881  19.183  0.00  0.00    +0.000 OA
ATOM      3  N   UNL     1       5.806   6.051  18.471  0.00  0.00    +0.000 N 
ATOM      4  H   UNL     1       5.357   6.954  18.453  0.00  0.00    +0.000 HD
ENDROOT
BRANCH   1  11
ATOM      5  C   UNL     1       1.184   7.835  20.508  0.00  0.00    +0.000 C 
ATOM      6  C   UNL     1       1.865   6.504  20.348  0.00  0.00    +0.000 A 
ATOM      7  C   UNL     1       1.216   5.325  20.750  0.00  0.00    +0.000 A 
ATOM      8  C   UNL     1       1.841   4.087  20.611  0.00  0.00    +0.000 A 
ATOM      9  C   UNL     1       1.183   2.809  21.034  0.00  0.00    +0.000 C 
ATOM     10  C   UNL     1       3.126   4.035  20.059  0.00  0.00    +0.000 A 
ATOM     11  C   UNL     1       3.799   5.199  19.643  0.00  0.00    +0.000 A 
ATOM     12  C   UNL     1       3.158   6.435  19.793  0.00  0.00    +0.000 A 
ENDBRANCH   1  11
BRANCH   3  13
ATOM     13  C   UNL     1       7.214   5.977  17.978  0.00  0.00    +0.000 C 
ATOM     14  C   UNL     1       7.572   7.398  17.501  0.00  0.00    +0.000 C 
ATOM     15  C   UNL     1       8.124   5.635  19.171  0.00  0.00    +0.000 C 
BRANCH  13  16
ATOM     16  C   UNL     1       7.286   4.926  16.809  0.00  0.00    +0.000 C 
BRANCH  16  17
ATOM     17  C   UNL     1       6.269   4.868  15.620  0.00  0.00    +0.000 C 
ATOM     18  C   UNL     1       5.334   6.086  15.562  0.00  0.00    +0.000 C 
ATOM     19  C   UNL     1       7.089   4.884  14.301  0.00  0.00    +0.000 C 
ATOM     20  C   UNL     1       5.437   3.580  15.609  0.00  0.00    +0.000 C 
ENDBRANCH  16  17
ENDBRANCH  13  16
ENDBRANCH   3  13
TORSDOF 4
ENDMDL
MODEL 3
REMARK VINA RESULT:      -7.0      0.428      1.078
REMARK  Name = 
REMARK  11 active torsions:
REMARK  status: ('A' for Active; 'I' for Inactive)
REMARK    1  A    between atoms: C_1  and  C_2
REMARK    2  A    between atoms: C_4  and  C_5
REMARK    3  A    between atoms: C_7  and  C_8
REMARK    4  A    between atoms: N_10  and  C_11
REMARK    5  A    between atoms: C_11  and  C_12
REMARK    6  A    between atoms: C_11  and  C_13
REMARK    7  A    between atoms: C_11  and  C_14
REMARK    8  A    between atoms: C_14  and  C_15
REMARK    9  A    between atoms: C_15  and  C_16
REMARK   10  A    between atoms: C_15  and  C_17
REMARK   11  A    between atoms: C_15  and  C_18
REMARK                            x       y       z     vdW  Elec       q    Type
REMARK                         _______ _______ _______ _____ _____    ______ ____
ROOT
ATOM      1  C   UNL     1       5.179   4.796  18.948  0.00  0.00    +0.000 C 
ATOM      2  O   UNL     1       5.899   3.838  19.211  0.00  0.00    +0.000 OA
ATOM      3  N   UNL     1       5.640   5.900  18.259  0.00  0.00    +0.000 N 
ATOM      4  H   UNL     1       5.022   6.684  18.111  0.00  0.00    +0.000 HD
ENDROOT
BRANCH   1  11
ATOM      5  C   UNL     1       0.678   2.570  19.833  0.00  0.00    +0.000 C 
ATOM      6  C   UNL     1       1.583   3.771  19.853  0.00  0.00    +0.000 A 
ATOM      7  C   UNL     1       1.111   5.005  20.329  0.00  0.00    +0.000 A 
ATOM      8  C   UNL     1       1.941   6.125  20.346  0.00  0.00    +0.000 A 
ATOM      9  C   UNL     1       1.470   7.459  20.840  0.00  0.00    +0.000 C 
ATOM     10  C   UNL     1       3.257   6.001  19.887  0.00  0.00    +0.000 A 
ATOM     11  C   UNL     1       3.760   4.775  19.409  0.00  0.00    +0.000 A 
ATOM     12  C   UNL     1       2.912   3.662  19.395  0.00  0.00    +0.000 A 
ENDBRANCH   1  11
BRANCH   3  13
ATOM     13  C   UNL     1       7.069   6.071  17.857  0.00  0.00    +0.000 C 
ATOM     14  C   UNL     1       7.223   7.550  17.453  0.00  0.00    +0.000 C 
ATOM     15  C   UNL     1       7.949   5.824  19.094  0.00  0.00    +0.000 C 
BRANCH  13  16
ATOM     16  C   UNL     1       7.376   5.097  16.660  0.00  0.00    +0.000 C 
BRANCH  16  17
ATOM     17  C   UNL     1       6.399   4.846  15.462  0.00  0.00    +0.000 C 
ATOM     18  C   UNL     1       5.591   3.547  15.600  0.00  0.00    +0.000 C 
ATOM     19  C   UNL     1       5.366   6.005  15.449  0.00  0.00    +0.000 C 
ATOM     20  C   UNL     1       7.107   4.868  14.102  0.00  0.00    +0.000 C 
ENDBRANCH  16  17
ENDBRANCH  13  16
ENDBRANCH   3  13
TORSDOF 4
ENDMDL
MODEL 4
REMARK VINA RESULT:      -6.8      2.028      6.895
REMARK  Name = 
REMARK  11 active torsions:
REMARK  status: ('A' for Active; 'I' for Inactive)
REMARK    1  A    between atoms: C_1  and  C_2
REMARK    2  A    between atoms: C_4  and  C_5
REMARK    3  A    between atoms: C_7  and  C_8
REMARK    4  A    between atoms: N_10  and  C_11
REMARK    5  A    between atoms: C_11  and  C_12
REMARK    6  A    between atoms: C_11  and  C_13
REMARK    7  A    between atoms: C_11  and  C_14
REMARK    8  A    between atoms: C_14  and  C_15
REMARK    9  A    between atoms: C_15  and  C_16
REMARK   10  A    between atoms: C_15  and  C_17
REMARK   11  A    between atoms: C_15  and  C_18
REMARK                            x       y       z     vdW  Elec       q    Type
REMARK                         _______ _______ _______ _____ _____    ______ ____
ROOT
ATOM      1  C   UNL     1       5.248   4.323  16.122  0.00  0.00    +0.000 C 
ATOM      2  O   UNL     1       5.238   3.270  16.750  0.00  0.00    +0.000 OA
ATOM      3  N   UNL     1       4.649   5.473  16.596  0.00  0.00    +0.000 N 
ATOM      4  H   UNL     1       4.641   6.301  16.020  0.00  0.00    +0.000 HD
ENDROOT
BRANCH   1  11
ATOM      5  C   UNL     1       8.765   5.920  12.793  0.00  0.00    +0.000 C 
ATOM      6  C   UNL     1       7.568   5.082  13.148  0.00  0.00    +0.000 A 
ATOM      7  C   UNL     1       6.981   4.244  12.186  0.00  0.00    +0.000 A 
ATOM      8  C   UNL     1       5.867   3.468  12.504  0.00  0.00    +0.000 A 
ATOM      9  C   UNL     1       5.210   2.567  11.502  0.00  0.00    +0.000 C 
ATOM     10  C   UNL     1       5.345   3.531  13.800  0.00  0.00    +0.000 A 
ATOM     11  C   UNL     1       5.916   4.357  14.787  0.00  0.00    +0.000 A 
ATOM     12  C   UNL     1       7.031   5.133  14.450  0.00  0.00    +0.000 A 
ENDBRANCH   1  11
BRANCH   3  13
ATOM     13  C   UNL     1       3.857   5.516  17.862  0.00  0.00    +0.000 C 
ATOM     14  C   UNL     1       4.875   5.350  19.006  0.00  0.00    +0.000 C 
ATOM     15  C   UNL     1       3.227   6.914  17.988  0.00  0.00    +0.000 C 
BRANCH  13  16
ATOM     16  C   UNL     1       2.801   4.349  17.837  0.00  0.00    +0.000 C 
BRANCH  16  17
ATOM     17  C   UNL     1       2.147   3.732  19.119  0.00  0.00    +0.000 C 
ATOM     18  C   UNL     1       0.952   2.817  18.810  0.00  0.00    +0.000 C 
ATOM     19  C   UNL     1       3.215   2.838  19.806  0.00  0.00    +0.000 C 
ATOM     20  C   UNL     1       1.730   4.793  20.145  0.00  0.00    +0.000 C 
ENDBRANCH  16  17
ENDBRANCH  13  16
ENDBRANCH   3  13
TORSDOF 4
ENDMDL
MODEL 5
REMARK VINA RESULT:      -6.8      2.056      6.892
REMARK  Name = 
REMARK  11 active torsions:
REMARK  status: ('A' for Active; 'I' for Inactive)
REMARK    1  A    between atoms: C_1  and  C_2
REMARK    2  A    between atoms: C_4  and  C_5
REMARK    3  A    between atoms: C_7  and  C_8
REMARK    4  A    between atoms: N_10  and  C_11
REMARK    5  A    between atoms: C_11  and  C_12
REMARK    6  A    between atoms: C_11  and  C_13
REMARK    7  A    between atoms: C_11  and  C_14
REMARK    8  A    between atoms: C_14  and  C_15
REMARK    9  A    between atoms: C_15  and  C_16
REMARK   10  A    between atoms: C_15  and  C_17
REMARK   11  A    between atoms: C_15  and  C_18
REMARK                            x       y       z     vdW  Elec       q    Type
REMARK                         _______ _______ _______ _____ _____    ______ ____
ROOT
ATOM      1  C   UNL     1       5.135   4.347  16.115  0.00  0.00    +0.000 C 
ATOM      2  O   UNL     1       5.036   3.283  16.717  0.00  0.00    +0.000 OA
ATOM      3  N   UNL     1       4.608   5.526  16.604  0.00  0.00    +0.000 N 
ATOM      4  H   UNL     1       4.673   6.365  16.048  0.00  0.00    +0.000 HD
ENDROOT
BRANCH   1  11
ATOM      5  C   UNL     1       8.747   5.877  12.857  0.00  0.00    +0.000 C 
ATOM      6  C   UNL     1       7.532   5.056  13.190  0.00  0.00    +0.000 A 
ATOM      7  C   UNL     1       6.956   4.219  12.220  0.00  0.00    +0.000 A 
ATOM      8  C   UNL     1       5.826   3.459  12.518  0.00  0.00    +0.000 A 
ATOM      9  C   UNL     1       5.181   2.559  11.508  0.00  0.00    +0.000 C 
ATOM     10  C   UNL     1       5.275   3.537  13.802  0.00  0.00    +0.000 A 
ATOM     11  C   UNL     1       5.833   4.363  14.796  0.00  0.00    +0.000 A 
ATOM     12  C   UNL     1       6.965   5.124  14.479  0.00  0.00    +0.000 A 
ENDBRANCH   1  11
BRANCH   3  13
ATOM     13  C   UNL     1       3.793   5.597  17.855  0.00  0.00    +0.000 C 
ATOM     14  C   UNL     1       4.777   5.362  19.017  0.00  0.00    +0.000 C 
ATOM     15  C   UNL     1       3.237   7.026  17.986  0.00  0.00    +0.000 C 
BRANCH  13  16
ATOM     16  C   UNL     1       2.677   4.489  17.793  0.00  0.00    +0.000 C 
BRANCH  16  17
ATOM     17  C   UNL     1       2.160   3.696  19.040  0.00  0.00    +0.000 C 
ATOM     18  C   UNL     1       3.264   2.900  19.753  0.00  0.00    +0.000 C 
ATOM     19  C   UNL     1       1.635   4.733  20.070  0.00  0.00    +0.000 C 
ATOM     20  C   UNL     1       0.987   2.766  18.710  0.00  0.00    +0.000 C 
ENDBRANCH  16  17
ENDBRANCH  13  16
ENDBRANCH   3  13
TORSDOF 4
ENDMDL
MODEL 6
REMARK VINA RESULT:      -6.7      1.954      6.722
REMARK  Name = 
REMARK  11 active torsions:
REMARK  status: ('A' for Active; 'I' for Inactive)
REMARK    1  A    between atoms: C_1  and  C_2
REMARK    2  A    between atoms: C_4  and  C_5
REMARK    3  A    between atoms: C_7  and  C_8
REMARK    4  A    between atoms: N_10  and  C_11
REMARK    5  A    between atoms: C_11  and  C_12
REMARK    6  A    between atoms: C_11  and  C_13
REMARK    7  A    between atoms: C_11  and  C_14
REMARK    8  A    between atoms: C_14  and  C_15
REMARK    9  A    between atoms: C_15  and  C_16
REMARK   10  A    between atoms: C_15  and  C_17
REMARK   11  A    between atoms: C_15  and  C_18
REMARK                            x       y       z     vdW  Elec       q    Type
REMARK                         _______ _______ _______ _____ _____    ______ ____
ROOT
ATOM      1  C   UNL     1       5.174   4.337  16.017  0.00  0.00    +0.000 C 
ATOM      2  O   UNL     1       5.145   3.344  16.736  0.00  0.00    +0.000 OA
ATOM      3  N   UNL     1       4.690   5.563  16.428  0.00  0.00    +0.000 N 
ATOM      4  H   UNL     1       4.691   6.338  15.782  0.00  0.00    +0.000 HD
ENDROOT
BRANCH   1  11
ATOM      5  C   UNL     1       5.332   2.430  11.291  0.00  0.00    +0.000 C 
ATOM      6  C   UNL     1       5.864   3.335  12.367  0.00  0.00    +0.000 A 
ATOM      7  C   UNL     1       6.982   4.149  12.118  0.00  0.00    +0.000 A 
ATOM      8  C   UNL     1       7.486   4.987  13.112  0.00  0.00    +0.000 A 
ATOM      9  C   UNL     1       8.679   5.865  12.885  0.00  0.00    +0.000 C 
ATOM     10  C   UNL     1       6.858   5.010  14.362  0.00  0.00    +0.000 A 
ATOM     11  C   UNL     1       5.734   4.210  14.639  0.00  0.00    +0.000 A 
ATOM     12  C   UNL     1       5.243   3.371  13.632  0.00  0.00    +0.000 A 
ENDBRANCH   1  11
BRANCH   3  13
ATOM     13  C   UNL     1       4.007   5.770  17.741  0.00  0.00    +0.000 C 
ATOM     14  C   UNL     1       5.101   5.634  18.817  0.00  0.00    +0.000 C 
ATOM     15  C   UNL     1       3.477   7.214  17.784  0.00  0.00    +0.000 C 
BRANCH  13  16
ATOM     16  C   UNL     1       2.881   4.681  17.901  0.00  0.00    +0.000 C 
BRANCH  16  17
ATOM     17  C   UNL     1       2.357   4.161  19.281  0.00  0.00    +0.000 C 
ATOM     18  C   UNL     1       2.014   5.290  20.265  0.00  0.00    +0.000 C 
ATOM     19  C   UNL     1       1.033   3.392  19.020  0.00  0.00    +0.000 C 
ATOM     20  C   UNL     1       3.319   3.172  19.950  0.00  0.00    +0.000 C 
ENDBRANCH  16  17
ENDBRANCH  13  16
ENDBRANCH   3  13
TORSDOF 4
ENDMDL
MODEL 7
REMARK VINA RESULT:      -6.7      2.871      5.423
REMARK  Name = 
REMARK  11 active torsions:
REMARK  status: ('A' for Active; 'I' for Inactive)
REMARK    1  A    between atoms: C_1  and  C_2
REMARK    2  A    between atoms: C_4  and  C_5
REMARK    3  A    between atoms: C_7  and  C_8
REMARK    4  A    between atoms: N_10  and  C_11
REMARK    5  A    between atoms: C_11  and  C_12
REMARK    6  A    between atoms: C_11  and  C_13
REMARK    7  A    between atoms: C_11  and  C_14
REMARK    8  A    between atoms: C_14  and  C_15
REMARK    9  A    between atoms: C_15  and  C_16
REMARK   10  A    between atoms: C_15  and  C_17
REMARK   11  A    between atoms: C_15  and  C_18
REMARK                            x       y       z     vdW  Elec       q    Type
REMARK                         _______ _______ _______ _____ _____    ______ ____
ROOT
ATOM      1  C   UNL     1       2.462   7.391  19.217  0.00  0.00    +0.000 C 
ATOM      2  O   UNL     1       2.858   7.628  18.080  0.00  0.00    +0.000 OA
ATOM      3  N   UNL     1       2.771   6.219  19.878  0.00  0.00    +0.000 N 
ATOM      4  H   UNL     1       2.380   6.049  20.792  0.00  0.00    +0.000 HD
ENDROOT
BRANCH   1  11
ATOM      5  C   UNL     1       0.046   9.380  23.242  0.00  0.00    +0.000 C 
ATOM      6  C   UNL     1       0.418   9.397  21.785  0.00  0.00    +0.000 A 
ATOM      7  C   UNL     1      -0.060  10.416  20.945  0.00  0.00    +0.000 A 
ATOM      8  C   UNL     1       0.275  10.438  19.592  0.00  0.00    +0.000 A 
ATOM      9  C   UNL     1      -0.221  11.505  18.664  0.00  0.00    +0.000 C 
ATOM     10  C   UNL     1       1.100   9.429  19.082  0.00  0.00    +0.000 A 
ATOM     11  C   UNL     1       1.598   8.398  19.901  0.00  0.00    +0.000 A 
ATOM     12  C   UNL     1       1.249   8.389  21.256  0.00  0.00    +0.000 A 
ENDBRANCH   1  11
BRANCH   3  13
ATOM     13  C   UNL     1       3.529   5.100  19.241  0.00  0.00    +0.000 C 
ATOM     14  C   UNL     1       2.964   4.962  17.814  0.00  0.00    +0.000 C 
ATOM     15  C   UNL     1       5.004   5.522  19.128  0.00  0.00    +0.000 C 
BRANCH  13  16
ATOM     16  C   UNL     1       3.311   3.794  20.092  0.00  0.00    +0.000 C 
BRANCH  16  17
ATOM     17  C   UNL     1       1.907   3.170  20.395  0.00  0.00    +0.000 C 
ATOM     18  C   UNL     1       0.754   4.176  20.253  0.00  0.00    +0.000 C 
ATOM     19  C   UNL     1       1.650   2.059  19.342  0.00  0.00    +0.000 C 
ATOM     20  C   UNL     1       1.837   2.500  21.773  0.00  0.00    +0.000 C 
ENDBRANCH  16  17
ENDBRANCH  13  16
ENDBRANCH   3  13
TORSDOF 4
ENDMDL
MODEL 8
REMARK VINA RESULT:      -6.6      1.930      3.545
REMARK  Name = 
REMARK  11 active torsions:
REMARK  status: ('A' for Active; 'I' for Inactive)
REMARK    1  A    between atoms: C_1  and  C_2
REMARK    2  A    between atoms: C_4  and  C_5
REMARK    3  A    between atoms: C_7  and  C_8
REMARK    4  A    between atoms: N_10  and  C_11
REMARK    5  A    between atoms: C_11  and  C_12
REMARK    6  A    between atoms: C_11  and  C_13
REMARK    7  A    between atoms: C_11  and  C_14
REMARK    8  A    between atoms: C_14  and  C_15
REMARK    9  A    between atoms: C_15  and  C_16
REMARK   10  A    between atoms: C_15  and  C_17
REMARK   11  A    between atoms: C_15  and  C_18
REMARK                            x       y       z     vdW  Elec       q    Type
REMARK                         _______ _______ _______ _____ _____    ______ ____
ROOT
ATOM      1  C   UNL     1       2.739   5.574  19.696  0.00  0.00    +0.000 C 
ATOM      2  O   UNL     1       2.794   4.793  20.641  0.00  0.00    +0.000 OA
ATOM      3  N   UNL     1       3.286   5.282  18.462  0.00  0.00    +0.000 N 
ATOM      4  H   UNL     1       3.258   5.978  17.732  0.00  0.00    +0.000 HD
ENDROOT
BRANCH   1  11
ATOM      5  C   UNL     1      -0.050   8.959  22.296  0.00  0.00    +0.000 C 
ATOM      6  C   UNL     1       0.746   8.557  21.086  0.00  0.00    +0.000 A 
ATOM      7  C   UNL     1       0.910   9.454  20.017  0.00  0.00    +0.000 A 
ATOM      8  C   UNL     1       1.642   9.089  18.888  0.00  0.00    +0.000 A 
ATOM      9  C   UNL     1       1.833  10.016  17.727  0.00  0.00    +0.000 C 
ATOM     10  C   UNL     1       2.217   7.814  18.837  0.00  0.00    +0.000 A 
ATOM     11  C   UNL     1       2.074   6.896  19.894  0.00  0.00    +0.000 A 
ATOM     12  C   UNL     1       1.332   7.277  21.019  0.00  0.00    +0.000 A 
ENDBRANCH   1  11
BRANCH   3  13
ATOM     13  C   UNL     1       4.072   4.041  18.193  0.00  0.00    +0.000 C 
ATOM     14  C   UNL     1       5.340   4.143  19.063  0.00  0.00    +0.000 C 
ATOM     15  C   UNL     1       3.253   2.836  18.690  0.00  0.00    +0.000 C 
BRANCH  13  16
ATOM     16  C   UNL     1       4.413   3.981  16.658  0.00  0.00    +0.000 C 
BRANCH  16  17
ATOM     17  C   UNL     1       5.541   4.827  15.977  0.00  0.00    +0.000 C 
ATOM     18  C   UNL     1       6.939   4.540  16.546  0.00  0.00    +0.000 C 
ATOM     19  C   UNL     1       5.588   4.426  14.478  0.00  0.00    +0.000 C 
ATOM     20  C   UNL     1       5.266   6.335  16.025  0.00  0.00    +0.000 C 
ENDBRANCH  16  17
ENDBRANCH  13  16
ENDBRANCH   3  13
TORSDOF 4
ENDMDL
MODEL 9
REMARK VINA RESULT:      -6.5      2.779      5.464
REMARK  Name = 
REMARK  11 active torsions:
REMARK  status: ('A' for Active; 'I' for Inactive)
REMARK    1  A    between atoms: C_1  and  C_2
REMARK    2  A    between atoms: C_4  and  C_5
REMARK    3  A    between atoms: C_7  and  C_8
REMARK    4  A    between atoms: N_10  and  C_11
REMARK    5  A    between atoms: C_11  and  C_12
REMARK    6  A    between atoms: C_11  and  C_13
REMARK    7  A    between atoms: C_11  and  C_14
REMARK    8  A    between atoms: C_14  and  C_15
REMARK    9  A    between atoms: C_15  and  C_16
REMARK   10  A    between atoms: C_15  and  C_17
REMARK   11  A    between atoms: C_15  and  C_18
REMARK                            x       y       z     vdW  Elec       q    Type
REMARK                         _______ _______ _______ _____ _____    ______ ____
ROOT
ATOM      1  C   UNL     1       2.615   7.390  18.891  0.00  0.00    +0.000 C 
ATOM      2  O   UNL     1       3.195   7.589  17.829  0.00  0.00    +0.000 OA
ATOM      3  N   UNL     1       2.803   6.241  19.634  0.00  0.00    +0.000 N 
ATOM      4  H   UNL     1       2.265   6.103  20.475  0.00  0.00    +0.000 HD
ENDROOT
BRANCH   1  11
ATOM      5  C   UNL     1      -0.534  11.364  18.350  0.00  0.00    +0.000 C 
ATOM      6  C   UNL     1       0.138  10.318  19.196  0.00  0.00    +0.000 A 
ATOM      7  C   UNL     1      -0.114  10.256  20.576  0.00  0.00    +0.000 A 
ATOM      8  C   UNL     1       0.508   9.294  21.370  0.00  0.00    +0.000 A 
ATOM      9  C   UNL     1       0.268   9.201  22.847  0.00  0.00    +0.000 C 
ATOM     10  C   UNL     1       1.386   8.385  20.770  0.00  0.00    +0.000 A 
ATOM     11  C   UNL     1       1.654   8.419  19.388  0.00  0.00    +0.000 A 
ATOM     12  C   UNL     1       1.024   9.395  18.606  0.00  0.00    +0.000 A 
ENDBRANCH   1  11
BRANCH   3  13
ATOM     13  C   UNL     1       3.650   5.102  19.169  0.00  0.00    +0.000 C 
ATOM     14  C   UNL     1       3.239   4.833  17.709  0.00  0.00    +0.000 C 
ATOM     15  C   UNL     1       5.118   5.563  19.171  0.00  0.00    +0.000 C 
BRANCH  13  16
ATOM     16  C   UNL     1       3.379   3.860  20.098  0.00  0.00    +0.000 C 
BRANCH  16  17
ATOM     17  C   UNL     1       1.970   3.206  20.296  0.00  0.00    +0.000 C 
ATOM     18  C   UNL     1       1.684   2.069  19.303  0.00  0.00    +0.000 C 
ATOM     19  C   UNL     1       1.945   2.567  21.711  0.00  0.00    +0.000 C 
ATOM     20  C   UNL     1       0.827   4.228  20.251  0.00  0.00    +0.000 C 
ENDBRANCH  16  17
ENDBRANCH  13  16
ENDBRANCH   3  13
TORSDOF 4
ENDMDL
