MODEL 1
REMARK VINA RESULT:      -7.2      0.000      0.000
REMARK  Name = 
REMARK  7 active torsions:
REMARK  status: ('A' for Active; 'I' for Inactive)
REMARK    1  A    between atoms: C_1  and  C_2
REMARK    2  A    between atoms: C_2  and  O_4
REMARK    3  A    between atoms: O_4  and  C_5
REMARK    4  A    between atoms: C_5  and  C_6
REMARK    5  A    between atoms: C_6  and  C_7
REMARK    6  A    between atoms: C_21  and  C_22
REMARK    7  A    between atoms: C_26  and  C_27
REMARK                            x       y       z     vdW  Elec       q    Type
REMARK                         _______ _______ _______ _____ _____    ______ ____
ROOT
ATOM      1  C   UNL     1       0.185  11.796  20.129  0.00  0.00    +0.000 C 
ATOM      2  C   UNL     1      -0.541  11.243  21.401  0.00  0.00    +0.000 C 
ATOM      3  C   UNL     1      -0.231   9.736  21.490  0.00  0.00    +0.000 C 
ATOM      4  C   UNL     1       0.830   9.521  20.421  0.00  0.00    +0.000 C 
ATOM      5  C   UNL     1       1.134   8.092  19.968  0.00  0.00    +0.000 C 
ATOM      6  C   UNL     1       1.509   7.184  21.150  0.00  0.00    +0.000 C 
ATOM      7  C   UNL     1       1.897   5.782  20.688  0.00  0.00    +0.000 C 
ATOM      8  C   UNL     1       2.956   5.788  19.610  0.00  0.00    +0.000 C 
ATOM      9  C   UNL     1       4.014   4.969  19.698  0.00  0.00    +0.000 C 
ATOM     10  C   UNL     1       4.998   4.839  18.605  0.00  0.00    +0.000 C 
ATOM     11  O   UNL     1       5.966   4.083  18.742  0.00  0.00    +0.000 OA
ATOM     12  C   UNL     1       4.729   5.561  17.312  0.00  0.00    +0.000 C 
ATOM     13  C   UNL     1       4.029   6.881  17.593  0.00  0.00    +0.000 C 
ATOM     14  C   UNL     1       2.721   6.731  18.423  0.00  0.00    +0.000 C 
ATOM     15  C   UNL     1       1.619   6.118  17.529  0.00  0.00    +0.000 C 
ATOM     16  C   UNL     1       2.313   8.159  18.962  0.00  0.00    +0.000 C 
ATOM     17  C   UNL     1       2.104   9.199  17.829  0.00  0.00    +0.000 C 
ATOM     18  C   UNL     1       1.457  10.543  18.193  0.00  0.00    +0.000 C 
ATOM     19  C   UNL     1       0.370  10.471  19.278  0.00  0.00    +0.000 C 
ATOM     20  C   UNL     1      -0.936   9.965  18.603  0.00  0.00    +0.000 C 
ENDROOT
BRANCH   1  21
ATOM     21  C   UNL     1      -0.675  12.905  19.462  0.00  0.00    +0.000 C 
ATOM     22  C   UNL     1      -1.842  13.472  20.223  0.00  0.00    +0.000 C 
ATOM     23  O   UNL     1      -0.403  13.368  18.350  0.00  0.00    +0.000 OA
ENDBRANCH   1  21
BRANCH   1  24
ATOM     24  O   UNL     1       1.546  12.213  20.505  0.00  0.00    +0.000 OA
BRANCH  24  26
ATOM     25  C   UNL     1       2.702  14.164  19.841  0.00  0.00    +0.000 C 
ATOM     26  C   UNL     1       1.860  13.483  20.893  0.00  0.00    +0.000 C 
ATOM     27  O   UNL     1       1.464  14.015  21.909  0.00  0.00    +0.000 OA
ENDBRANCH  24  26
ENDBRANCH   1  24
TORSDOF 3
ENDMDL
MODEL 2
REMARK VINA RESULT:      -7.0      1.870      7.527
REMARK  Name = 
REMARK  7 active torsions:
REMARK  status: ('A' for Active; 'I' for Inactive)
REMARK    1  A    between atoms: C_1  and  C_2
REMARK    2  A    between atoms: C_2  and  O_4
REMARK    3  A    between atoms: O_4  and  C_5
REMARK    4  A    between atoms: C_5  and  C_6
REMARK    5  A    between atoms: C_6  and  C_7
REMARK    6  A    between atoms: C_21  and  C_22
REMARK    7  A    between atoms: C_26  and  C_27
REMARK                            x       y       z     vdW  Elec       q    Type
REMARK                         _______ _______ _______ _____ _____    ______ ____
ROOT
ATOM      1  C   UNL     1       4.469   5.518  18.166  0.00  0.00    +0.000 C 
ATOM      2  C   UNL     1       4.541   6.274  16.797  0.00  0.00    +0.000 C 
ATOM      3  C   UNL     1       3.538   7.443  16.862  0.00  0.00    +0.000 C 
ATOM      4  C   UNL     1       3.099   7.463  18.319  0.00  0.00    +0.000 C 
ATOM      5  C   UNL     1       1.847   8.256  18.696  0.00  0.00    +0.000 C 
ATOM      6  C   UNL     1       1.941   9.722  18.243  0.00  0.00    +0.000 C 
ATOM      7  C   UNL     1       0.730  10.535  18.697  0.00  0.00    +0.000 C 
ATOM      8  C   UNL     1       0.454  10.406  20.177  0.00  0.00    +0.000 C 
ATOM      9  C   UNL     1       0.209  11.498  20.915  0.00  0.00    +0.000 C 
ATOM     10  C   UNL     1      -0.202  11.411  22.331  0.00  0.00    +0.000 C 
ATOM     11  O   UNL     1      -0.400  12.448  22.973  0.00  0.00    +0.000 OA
ATOM     12  C   UNL     1      -0.467  10.051  22.916  0.00  0.00    +0.000 C 
ATOM     13  C   UNL     1       0.481   9.031  22.304  0.00  0.00    +0.000 C 
ATOM     14  C   UNL     1       0.428   8.983  20.749  0.00  0.00    +0.000 C 
ATOM     15  C   UNL     1      -0.889   8.307  20.305  0.00  0.00    +0.000 C 
ATOM     16  C   UNL     1       1.696   8.190  20.239  0.00  0.00    +0.000 C 
ATOM     17  C   UNL     1       1.783   6.750  20.810  0.00  0.00    +0.000 C 
ATOM     18  C   UNL     1       2.813   5.791  20.196  0.00  0.00    +0.000 C 
ATOM     19  C   UNL     1       3.033   5.952  18.683  0.00  0.00    +0.000 C 
ATOM     20  C   UNL     1       1.858   5.238  17.958  0.00  0.00    +0.000 C 
ENDROOT
BRANCH   1  21
ATOM     21  C   UNL     1       4.669   3.994  17.946  0.00  0.00    +0.000 C 
ATOM     22  C   UNL     1       5.059   3.504  16.578  0.00  0.00    +0.000 C 
ATOM     23  O   UNL     1       4.565   3.178  18.867  0.00  0.00    +0.000 OA
ENDBRANCH   1  21
BRANCH   1  24
ATOM     24  O   UNL     1       5.423   6.138  19.099  0.00  0.00    +0.000 OA
BRANCH  24  26
ATOM     25  C   UNL     1       7.523   6.475  18.068  0.00  0.00    +0.000 C 
ATOM     26  C   UNL     1       6.741   5.789  19.163  0.00  0.00    +0.000 C 
ATOM     27  O   UNL     1       7.230   5.082  20.020  0.00  0.00    +0.000 OA
ENDBRANCH  24  26
ENDBRANCH   1  24
TORSDOF 3
ENDMDL
MODEL 3
REMARK VINA RESULT:      -6.6      1.642      7.713
REMARK  Name = 
REMARK  7 active torsions:
REMARK  status: ('A' for Active; 'I' for Inactive)
REMARK    1  A    between atoms: C_1  and  C_2
REMARK    2  A    between atoms: C_2  and  O_4
REMARK    3  A    between atoms: O_4  and  C_5
REMARK    4  A    between atoms: C_5  and  C_6
REMARK    5  A    between atoms: C_6  and  C_7
REMARK    6  A    between atoms: C_21  and  C_22
REMARK    7  A    between atoms: C_26  and  C_27
REMARK                            x       y       z     vdW  Elec       q    Type
REMARK                         _______ _______ _______ _____ _____    ______ ____
ROOT
ATOM      1  C   UNL     1       4.172   4.343  18.713  0.00  0.00    +0.000 C 
ATOM      2  C   UNL     1       4.142   4.661  17.181  0.00  0.00    +0.000 C 
ATOM      3  C   UNL     1       3.263   5.913  16.987  0.00  0.00    +0.000 C 
ATOM      4  C   UNL     1       3.009   6.401  18.406  0.00  0.00    +0.000 C 
ATOM      5  C   UNL     1       1.889   7.414  18.642  0.00  0.00    +0.000 C 
ATOM      6  C   UNL     1       2.056   8.667  17.767  0.00  0.00    +0.000 C 
ATOM      7  C   UNL     1       0.988   9.716  18.068  0.00  0.00    +0.000 C 
ATOM      8  C   UNL     1       0.886  10.050  19.538  0.00  0.00    +0.000 C 
ATOM      9  C   UNL     1       0.832  11.329  19.937  0.00  0.00    +0.000 C 
ATOM     10  C   UNL     1       0.591  11.701  21.346  0.00  0.00    +0.000 C 
ATOM     11  O   UNL     1       0.567  12.893  21.666  0.00  0.00    +0.000 OA
ATOM     12  C   UNL     1       0.280  10.607  22.331  0.00  0.00    +0.000 C 
ATOM     13  C   UNL     1       1.051   9.347  21.966  0.00  0.00    +0.000 C 
ATOM     14  C   UNL     1       0.804   8.864  20.508  0.00  0.00    +0.000 C 
ATOM     15  C   UNL     1      -0.613   8.254  20.407  0.00  0.00    +0.000 C 
ATOM     16  C   UNL     1       1.924   7.811  20.142  0.00  0.00    +0.000 C 
ATOM     17  C   UNL     1       1.952   6.594  21.105  0.00  0.00    +0.000 C 
ATOM     18  C   UNL     1       2.809   5.382  20.713  0.00  0.00    +0.000 C 
ATOM     19  C   UNL     1       2.855   5.076  19.207  0.00  0.00    +0.000 C 
ATOM     20  C   UNL     1       1.541   4.333  18.837  0.00  0.00    +0.000 C 
ENDROOT
BRANCH   1  21
ATOM     21  C   UNL     1       4.207   2.806  18.940  0.00  0.00    +0.000 C 
ATOM     22  C   UNL     1       3.634   1.905  17.880  0.00  0.00    +0.000 C 
ATOM     23  O   UNL     1       4.732   2.301  19.936  0.00  0.00    +0.000 OA
ENDBRANCH   1  21
BRANCH   1  24
ATOM     24  O   UNL     1       5.285   5.083  19.328  0.00  0.00    +0.000 OA
BRANCH  24  26
ATOM     25  C   UNL     1       6.675   6.671  18.264  0.00  0.00    +0.000 C 
ATOM     26  C   UNL     1       6.500   5.244  18.727  0.00  0.00    +0.000 C 
ATOM     27  O   UNL     1       7.349   4.381  18.637  0.00  0.00    +0.000 OA
ENDBRANCH  24  26
ENDBRANCH   1  24
TORSDOF 3
ENDMDL
MODEL 4
REMARK VINA RESULT:      -5.9      1.913      3.585
REMARK  Name = 
REMARK  7 active torsions:
REMARK  status: ('A' for Active; 'I' for Inactive)
REMARK    1  A    between atoms: C_1  and  C_2
REMARK    2  A    between atoms: C_2  and  O_4
REMARK    3  A    between atoms: O_4  and  C_5
REMARK    4  A    between atoms: C_5  and  C_6
REMARK    5  A    between atoms: C_6  and  C_7
REMARK    6  A    between atoms: C_21  and  C_22
REMARK    7  A    between atoms: C_26  and  C_27
REMARK                            x       y       z     vdW  Elec       q    Type
REMARK                         _______ _______ _______ _____ _____    ______ ____
ROOT
ATOM      1  C   UNL     1      -0.018  10.791  20.518  0.00  0.00    +0.000 C 
ATOM      2  C   UNL     1       0.911  11.557  19.519  0.00  0.00    +0.000 C 
ATOM      3  C   UNL     1       1.862  10.521  18.885  0.00  0.00    +0.000 C 
ATOM      4  C   UNL     1       1.306   9.185  19.356  0.00  0.00    +0.000 C 
ATOM      5  C   UNL     1       2.184   7.940  19.224  0.00  0.00    +0.000 C 
ATOM      6  C   UNL     1       2.669   7.733  17.779  0.00  0.00    +0.000 C 
ATOM      7  C   UNL     1       3.472   6.443  17.630  0.00  0.00    +0.000 C 
ATOM      8  C   UNL     1       2.749   5.232  18.174  0.00  0.00    +0.000 C 
ATOM      9  C   UNL     1       2.690   4.102  17.455  0.00  0.00    +0.000 C 
ATOM     10  C   UNL     1       2.119   2.854  18.001  0.00  0.00    +0.000 C 
ATOM     11  O   UNL     1       2.073   1.843  17.292  0.00  0.00    +0.000 OA
ATOM     12  C   UNL     1       1.704   2.831  19.447  0.00  0.00    +0.000 C 
ATOM     13  C   UNL     1       1.161   4.193  19.851  0.00  0.00    +0.000 C 
ATOM     14  C   UNL     1       2.147   5.365  19.579  0.00  0.00    +0.000 C 
ATOM     15  C   UNL     1       3.300   5.310  20.607  0.00  0.00    +0.000 C 
ATOM     16  C   UNL     1       1.339   6.720  19.675  0.00  0.00    +0.000 C 
ATOM     17  C   UNL     1       0.648   6.919  21.051  0.00  0.00    +0.000 C 
ATOM     18  C   UNL     1       0.054   8.299  21.368  0.00  0.00    +0.000 C 
ATOM     19  C   UNL     1       0.846   9.493  20.810  0.00  0.00    +0.000 C 
ATOM     20  C   UNL     1       2.056   9.738  21.754  0.00  0.00    +0.000 C 
ENDROOT
BRANCH   1  21
ATOM     21  C   UNL     1      -0.326  11.681  21.753  0.00  0.00    +0.000 C 
ATOM     22  C   UNL     1      -1.314  11.185  22.773  0.00  0.00    +0.000 C 
ATOM     23  O   UNL     1       0.249  12.755  21.948  0.00  0.00    +0.000 OA
ENDBRANCH   1  21
BRANCH   1  24
ATOM     24  O   UNL     1      -1.205  10.314  19.789  0.00  0.00    +0.000 OA
BRANCH  24  26
ATOM     25  C   UNL     1      -1.802  10.264  17.503  0.00  0.00    +0.000 C 
ATOM     26  C   UNL     1      -1.816  11.033  18.803  0.00  0.00    +0.000 C 
ATOM     27  O   UNL     1      -2.356  12.108  18.962  0.00  0.00    +0.000 OA
ENDBRANCH  24  26
ENDBRANCH   1  24
TORSDOF 3
ENDMDL
MODEL 5
REMARK VINA RESULT:      -5.9      2.320      4.044
REMARK  Name = 
REMARK  7 active torsions:
REMARK  status: ('A' for Active; 'I' for Inactive)
REMARK    1  A    between atoms: C_1  and  C_2
REMARK    2  A    between atoms: C_2  and  O_4
REMARK    3  A    between atoms: O_4  and  C_5
REMARK    4  A    between atoms: C_5  and  C_6
REMARK    5  A    between atoms: C_6  and  C_7
REMARK    6  A    between atoms: C_21  and  C_22
REMARK    7  A    between atoms: C_26  and  C_27
REMARK                            x       y       z     vdW  Elec       q    Type
REMARK                         _______ _______ _______ _____ _____    ______ ____
ROOT
ATOM      1  C   UNL     1      -0.486  15.300  22.010  0.00  0.00    +0.000 C 
ATOM      2  C   UNL     1      -1.119  14.729  23.322  0.00  0.00    +0.000 C 
ATOM      3  C   UNL     1      -1.152  13.194  23.190  0.00  0.00    +0.000 C 
ATOM      4  C   UNL     1      -0.342  12.922  21.931  0.00  0.00    +0.000 C 
ATOM      5  C   UNL     1      -0.444  11.544  21.277  0.00  0.00    +0.000 C 
ATOM      6  C   UNL     1      -0.113  10.415  22.268  0.00  0.00    +0.000 C 
ATOM      7  C   UNL     1      -0.130   9.045  21.593  0.00  0.00    +0.000 C 
ATOM      8  C   UNL     1       0.728   8.989  20.350  0.00  0.00    +0.000 C 
ATOM      9  C   UNL     1       1.571   7.966  20.157  0.00  0.00    +0.000 C 
ATOM     10  C   UNL     1       2.324   7.796  18.897  0.00  0.00    +0.000 C 
ATOM     11  O   UNL     1       3.102   6.844  18.776  0.00  0.00    +0.000 OA
ATOM     12  C   UNL     1       2.035   8.738  17.761  0.00  0.00    +0.000 C 
ATOM     13  C   UNL     1       1.706  10.120  18.305  0.00  0.00    +0.000 C 
ATOM     14  C   UNL     1       0.538  10.124  19.334  0.00  0.00    +0.000 C 
ATOM     15  C   UNL     1      -0.797   9.889  18.591  0.00  0.00    +0.000 C 
ATOM     16  C   UNL     1       0.554  11.511  20.090  0.00  0.00    +0.000 C 
ATOM     17  C   UNL     1       0.420  12.726  19.133  0.00  0.00    +0.000 C 
ATOM     18  C   UNL     1       0.159  14.107  19.752  0.00  0.00    +0.000 C 
ATOM     19  C   UNL     1      -0.739  14.103  20.999  0.00  0.00    +0.000 C 
ATOM     20  C   UNL     1      -2.212  13.983  20.518  0.00  0.00    +0.000 C 
ENDROOT
BRANCH   1  21
ATOM     21  C   UNL     1      -1.160  16.647  21.632  0.00  0.00    +0.000 C 
ATOM     22  C   UNL     1      -2.102  17.286  22.617  0.00  0.00    +0.000 C 
ATOM     23  O   UNL     1      -0.911  17.233  20.575  0.00  0.00    +0.000 OA
ENDBRANCH   1  21
BRANCH   1  24
ATOM     24  O   UNL     1       0.974  15.366  22.179  0.00  0.00    +0.000 OA
BRANCH  24  26
ATOM     25  C   UNL     1       2.434  17.179  21.770  0.00  0.00    +0.000 C 
ATOM     26  C   UNL     1       1.612  16.413  22.779  0.00  0.00    +0.000 C 
ATOM     27  O   UNL     1       1.485  16.726  23.945  0.00  0.00    +0.000 OA
ENDBRANCH  24  26
ENDBRANCH   1  24
TORSDOF 3
ENDMDL
MODEL 6
REMARK VINA RESULT:      -5.8      2.323      4.054
REMARK  Name = 
REMARK  7 active torsions:
REMARK  status: ('A' for Active; 'I' for Inactive)
REMARK    1  A    between atoms: C_1  and  C_2
REMARK    2  A    between atoms: C_2  and  O_4
REMARK    3  A    between atoms: O_4  and  C_5
REMARK    4  A    between atoms: C_5  and  C_6
REMARK    5  A    between atoms: C_6  and  C_7
REMARK    6  A    between atoms: C_21  and  C_22
REMARK    7  A    between atoms: C_26  and  C_27
REMARK                            x       y       z     vdW  Elec       q    Type
REMARK                         _______ _______ _______ _____ _____    ______ ____
ROOT
ATOM      1  C   UNL     1       1.906  15.749  20.008  0.00  0.00    +0.000 C 
ATOM      2  C   UNL     1       1.089  15.798  21.342  0.00  0.00    +0.000 C 
ATOM      3  C   UNL     1       0.563  14.374  21.614  0.00  0.00    +0.000 C 
ATOM      4  C   UNL     1       1.273  13.521  20.573  0.00  0.00    +0.000 C 
ATOM      5  C   UNL     1       0.745  12.113  20.298  0.00  0.00    +0.000 C 
ATOM      6  C   UNL     1       0.666  11.270  21.581  0.00  0.00    +0.000 C 
ATOM      7  C   UNL     1       0.224   9.837  21.293  0.00  0.00    +0.000 C 
ATOM      8  C   UNL     1       1.048   9.170  20.216  0.00  0.00    +0.000 C 
ATOM      9  C   UNL     1       1.519   7.928  20.398  0.00  0.00    +0.000 C 
ATOM     10  C   UNL     1       2.207   7.185  19.324  0.00  0.00    +0.000 C 
ATOM     11  O   UNL     1       2.637   6.049  19.547  0.00  0.00    +0.000 OA
ATOM     12  C   UNL     1       2.269   7.804  17.954  0.00  0.00    +0.000 C 
ATOM     13  C   UNL     1       2.392   9.315  18.074  0.00  0.00    +0.000 C 
ATOM     14  C   UNL     1       1.263   9.968  18.923  0.00  0.00    +0.000 C 
ATOM     15  C   UNL     1      -0.056   9.948  18.118  0.00  0.00    +0.000 C 
ATOM     16  C   UNL     1       1.709  11.440  19.284  0.00  0.00    +0.000 C 
ATOM     17  C   UNL     1       2.001  12.311  18.034  0.00  0.00    +0.000 C 
ATOM     18  C   UNL     1       2.187  13.822  18.234  0.00  0.00    +0.000 C 
ATOM     19  C   UNL     1       1.304  14.449  19.325  0.00  0.00    +0.000 C 
ATOM     20  C   UNL     1      -0.116  14.650  18.725  0.00  0.00    +0.000 C 
ENDROOT
BRANCH   1  21
ATOM     21  C   UNL     1       1.715  17.070  19.214  0.00  0.00    +0.000 C 
ATOM     22  C   UNL     1       0.707  18.072  19.708  0.00  0.00    +0.000 C 
ATOM     23  O   UNL     1       2.397  17.345  18.223  0.00  0.00    +0.000 OA
ENDBRANCH   1  21
BRANCH   1  24
ATOM     24  O   UNL     1       3.304  15.413  20.322  0.00  0.00    +0.000 OA
BRANCH  24  26
ATOM     25  C   UNL     1       4.444  14.918  22.332  0.00  0.00    +0.000 C 
ATOM     26  C   UNL     1       3.996  15.978  21.354  0.00  0.00    +0.000 C 
ATOM     27  O   UNL     1       4.271  17.157  21.441  0.00  0.00    +0.000 OA
ENDBRANCH  24  26
ENDBRANCH   1  24
TORSDOF 3
ENDMDL
MODEL 7
REMARK VINA RESULT:      -5.7      3.486      8.831
REMARK  Name = 
REMARK  7 active torsions:
REMARK  status: ('A' for Active; 'I' for Inactive)
REMARK    1  A    between atoms: C_1  and  C_2
REMARK    2  A    between atoms: C_2  and  O_4
REMARK    3  A    between atoms: O_4  and  C_5
REMARK    4  A    between atoms: C_5  and  C_6
REMARK    5  A    between atoms: C_6  and  C_7
REMARK    6  A    between atoms: C_21  and  C_22
REMARK    7  A    between atoms: C_26  and  C_27
REMARK                            x       y       z     vdW  Elec       q    Type
REMARK                         _______ _______ _______ _____ _____    ______ ____
ROOT
ATOM      1  C   UNL     1       0.276  11.178  19.947  0.00  0.00    +0.000 C 
ATOM      2  C   UNL     1       1.259  12.011  20.835  0.00  0.00    +0.000 C 
ATOM      3  C   UNL     1       0.425  13.076  21.573  0.00  0.00    +0.000 C 
ATOM      4  C   UNL     1      -1.014  12.681  21.272  0.00  0.00    +0.000 C 
ATOM      5  C   UNL     1      -2.123  13.699  21.539  0.00  0.00    +0.000 C 
ATOM      6  C   UNL     1      -2.099  14.205  22.991  0.00  0.00    +0.000 C 
ATOM      7  C   UNL     1      -3.259  15.153  23.281  0.00  0.00    +0.000 C 
ATOM      8  C   UNL     1      -4.602  14.577  22.896  0.00  0.00    +0.000 C 
ATOM      9  C   UNL     1      -5.638  14.652  23.745  0.00  0.00    +0.000 C 
ATOM     10  C   UNL     1      -7.000  14.231  23.359  0.00  0.00    +0.000 C 
ATOM     11  O   UNL     1      -7.917  14.304  24.183  0.00  0.00    +0.000 OA
ATOM     12  C   UNL     1      -7.244  13.822  21.932  0.00  0.00    +0.000 C 
ATOM     13  C   UNL     1      -6.012  13.122  21.377  0.00  0.00    +0.000 C 
ATOM     14  C   UNL     1      -4.709  13.964  21.494  0.00  0.00    +0.000 C 
ATOM     15  C   UNL     1      -4.753  15.116  20.464  0.00  0.00    +0.000 C 
ATOM     16  C   UNL     1      -3.479  13.003  21.248  0.00  0.00    +0.000 C 
ATOM     17  C   UNL     1      -3.528  12.293  19.869  0.00  0.00    +0.000 C 
ATOM     18  C   UNL     1      -2.275  11.542  19.399  0.00  0.00    +0.000 C 
ATOM     19  C   UNL     1      -0.939  12.187  19.799  0.00  0.00    +0.000 C 
ATOM     20  C   UNL     1      -0.669  13.361  18.815  0.00  0.00    +0.000 C 
ENDROOT
BRANCH   1  21
ATOM     21  C   UNL     1       0.969  10.767  18.619  0.00  0.00    +0.000 C 
ATOM     22  C   UNL     1       0.398   9.622  17.828  0.00  0.00    +0.000 C 
ATOM     23  O   UNL     1       1.942  11.380  18.169  0.00  0.00    +0.000 OA
ENDBRANCH   1  21
BRANCH   1  24
ATOM     24  O   UNL     1      -0.245  10.055  20.744  0.00  0.00    +0.000 OA
BRANCH  24  26
ATOM     25  C   UNL     1      -0.017   9.505  23.031  0.00  0.00    +0.000 C 
ATOM     26  C   UNL     1       0.517   9.347  21.627  0.00  0.00    +0.000 C 
ATOM     27  O   UNL     1       1.452   8.636  21.322  0.00  0.00    +0.000 OA
ENDBRANCH  24  26
ENDBRANCH   1  24
TORSDOF 3
ENDMDL
MODEL 8
REMARK VINA RESULT:      -5.7      7.780      9.547
REMARK  Name = 
REMARK  7 active torsions:
REMARK  status: ('A' for Active; 'I' for Inactive)
REMARK    1  A    between atoms: C_1  and  C_2
REMARK    2  A    between atoms: C_2  and  O_4
REMARK    3  A    between atoms: O_4  and  C_5
REMARK    4  A    between atoms: C_5  and  C_6
REMARK    5  A    between atoms: C_6  and  C_7
REMARK    6  A    between atoms: C_21  and  C_22
REMARK    7  A    between atoms: C_26  and  C_27
REMARK                            x       y       z     vdW  Elec       q    Type
REMARK                         _______ _______ _______ _____ _____    ______ ____
ROOT
ATOM      1  C   UNL     1       6.533  13.962  24.665  0.00  0.00    +0.000 C 
ATOM      2  C   UNL     1       7.253  15.239  25.211  0.00  0.00    +0.000 C 
ATOM      3  C   UNL     1       8.485  15.492  24.318  0.00  0.00    +0.000 C 
ATOM      4  C   UNL     1       8.307  14.509  23.170  0.00  0.00    +0.000 C 
ATOM      5  C   UNL     1       9.504  14.216  22.266  0.00  0.00    +0.000 C 
ATOM      6  C   UNL     1      10.093  15.500  21.660  0.00  0.00    +0.000 C 
ATOM      7  C   UNL     1      11.232  15.199  20.689  0.00  0.00    +0.000 C 
ATOM      8  C   UNL     1      10.855  14.186  19.633  0.00  0.00    +0.000 C 
ATOM      9  C   UNL     1      11.150  14.412  18.345  0.00  0.00    +0.000 C 
ATOM     10  C   UNL     1      10.929  13.393  17.299  0.00  0.00    +0.000 C 
ATOM     11  O   UNL     1      11.201  13.656  16.124  0.00  0.00    +0.000 OA
ATOM     12  C   UNL     1      10.472  12.023  17.722  0.00  0.00    +0.000 C 
ATOM     13  C   UNL     1       9.549  12.135  18.926  0.00  0.00    +0.000 C 
ATOM     14  C   UNL     1      10.177  12.901  20.126  0.00  0.00    +0.000 C 
ATOM     15  C   UNL     1      11.251  12.012  20.793  0.00  0.00    +0.000 C 
ATOM     16  C   UNL     1       9.017  13.275  21.132  0.00  0.00    +0.000 C 
ATOM     17  C   UNL     1       8.236  12.036  21.647  0.00  0.00    +0.000 C 
ATOM     18  C   UNL     1       7.265  12.231  22.819  0.00  0.00    +0.000 C 
ATOM     19  C   UNL     1       7.713  13.256  23.874  0.00  0.00    +0.000 C 
ATOM     20  C   UNL     1       8.761  12.562  24.789  0.00  0.00    +0.000 C 
ENDROOT
BRANCH   1  21
ATOM     21  C   UNL     1       5.931  13.143  25.839  0.00  0.00    +0.000 C 
ATOM     22  C   UNL     1       6.135  13.638  27.246  0.00  0.00    +0.000 C 
ATOM     23  O   UNL     1       5.252  12.130  25.654  0.00  0.00    +0.000 OA
ENDBRANCH   1  21
BRANCH   1  24
ATOM     24  O   UNL     1       5.563  14.370  23.636  0.00  0.00    +0.000 OA
BRANCH  24  26
ATOM     25  C   UNL     1       5.150  16.394  22.486  0.00  0.00    +0.000 C 
ATOM     26  C   UNL     1       4.855  15.536  23.694  0.00  0.00    +0.000 C 
ATOM     27  O   UNL     1       4.051  15.817  24.559  0.00  0.00    +0.000 OA
ENDBRANCH  24  26
ENDBRANCH   1  24
TORSDOF 3
ENDMDL
MODEL 9
REMARK VINA RESULT:      -5.7      2.183      3.888
REMARK  Name = 
REMARK  7 active torsions:
REMARK  status: ('A' for Active; 'I' for Inactive)
REMARK    1  A    between atoms: C_1  and  C_2
REMARK    2  A    between atoms: C_2  and  O_4
REMARK    3  A    between atoms: O_4  and  C_5
REMARK    4  A    between atoms: C_5  and  C_6
REMARK    5  A    between atoms: C_6  and  C_7
REMARK    6  A    between atoms: C_21  and  C_22
REMARK    7  A    between atoms: C_26  and  C_27
REMARK                            x       y       z     vdW  Elec       q    Type
REMARK                         _______ _______ _______ _____ _____    ______ ____
ROOT
ATOM      1  C   UNL     1       1.195  15.641  20.549  0.00  0.00    +0.000 C 
ATOM      2  C   UNL     1       0.385  15.502  21.881  0.00  0.00    +0.000 C 
ATOM      3  C   UNL     1       0.004  14.016  22.037  0.00  0.00    +0.000 C 
ATOM      4  C   UNL     1       0.790  13.324  20.932  0.00  0.00    +0.000 C 
ATOM      5  C   UNL     1       0.403  11.897  20.543  0.00  0.00    +0.000 C 
ATOM      6  C   UNL     1       0.416  10.950  21.755  0.00  0.00    +0.000 C 
ATOM      7  C   UNL     1       0.116   9.508  21.351  0.00  0.00    +0.000 C 
ATOM      8  C   UNL     1       0.997   9.015  20.226  0.00  0.00    +0.000 C 
ATOM      9  C   UNL     1       1.589   7.815  20.310  0.00  0.00    +0.000 C 
ATOM     10  C   UNL     1       2.342   7.232  19.180  0.00  0.00    +0.000 C 
ATOM     11  O   UNL     1       2.884   6.130  19.313  0.00  0.00    +0.000 OA
ATOM     12  C   UNL     1       2.335   7.962  17.865  0.00  0.00    +0.000 C 
ATOM     13  C   UNL     1       2.307   9.464  18.106  0.00  0.00    +0.000 C 
ATOM     14  C   UNL     1       1.124   9.931  19.002  0.00  0.00    +0.000 C 
ATOM     15  C   UNL     1      -0.191   9.845  18.195  0.00  0.00    +0.000 C 
ATOM     16  C   UNL     1       1.423  11.406  19.482  0.00  0.00    +0.000 C 
ATOM     17  C   UNL     1       1.620  12.400  18.306  0.00  0.00    +0.000 C 
ATOM     18  C   UNL     1       1.656  13.901  18.627  0.00  0.00    +0.000 C 
ATOM     19  C   UNL     1       0.722  14.347  19.763  0.00  0.00    +0.000 C 
ATOM     20  C   UNL     1      -0.714  14.453  19.177  0.00  0.00    +0.000 C 
ENDROOT
BRANCH   1  21
ATOM     21  C   UNL     1       0.870  16.996  19.864  0.00  0.00    +0.000 C 
ATOM     22  C   UNL     1       1.741  17.460  18.727  0.00  0.00    +0.000 C 
ATOM     23  O   UNL     1      -0.106  17.679  20.187  0.00  0.00    +0.000 OA
ENDBRANCH   1  21
BRANCH   1  24
ATOM     24  O   UNL     1       2.622  15.422  20.839  0.00  0.00    +0.000 OA
BRANCH  24  26
ATOM     25  C   UNL     1       3.487  17.216  22.110  0.00  0.00    +0.000 C 
ATOM     26  C   UNL     1       3.200  15.735  22.034  0.00  0.00    +0.000 C 
ATOM     27  O   UNL     1       3.395  14.949  22.938  0.00  0.00    +0.000 OA
ENDBRANCH  24  26
ENDBRANCH   1  24
TORSDOF 3
ENDMDL
