MODEL 1
REMARK VINA RESULT:      -4.9      0.000      0.000
REMARK  Name = 
REMARK  4 active torsions:
REMARK  status: ('A' for Active; 'I' for Inactive)
REMARK    1  A    between atoms: C_1  and  C_2
REMARK    2  A    between atoms: C_2  and  C_3
REMARK    3  A    between atoms: C_2  and  N_4
REMARK    4  A    between atoms: C_2  and  C_5
REMARK                            x       y       z     vdW  Elec       q    Type
REMARK                         _______ _______ _______ _____ _____    ______ ____
ROOT
ATOM      1  C   UNL     1       5.091   6.057  18.003  0.00  0.00    +0.000 C 
ATOM      2  C   UNL     1       6.373   5.223  17.863  0.00  0.00    +0.000 C 
ATOM      3  C   UNL     1       7.530   5.923  18.590  0.00  0.00    +0.000 C 
ENDROOT
BRANCH   2   4
ATOM      4  C   UNL     1       6.691   5.036  16.409  0.00  0.00    +0.000 A 
ATOM      5  N   UNL     1       7.522   5.724  15.651  0.00  0.00    +0.000 NA
ATOM      6  N   UNL     1       7.456   5.214  14.374  0.00  0.00    +0.000 NA
ATOM      7  C   UNL     1       6.584   4.233  14.381  0.00  0.00    +0.000 A 
ATOM      8  N   UNL     1       6.081   4.083  15.633  0.00  0.00    +0.000 N 
ATOM      9  H   UNL     1       5.404   3.412  15.964  0.00  0.00    +0.000 HD
ENDBRANCH   2   4
BRANCH   2  10
ATOM     10  N   UNL     1       6.143   3.906  18.495  0.00  0.00    +0.000 NA
ATOM     11  H   UNL     1       5.985   3.218  17.759  0.00  0.00    +0.000 HD
ATOM     12  H   UNL     1       5.258   3.951  19.004  0.00  0.00    +0.000 HD
ENDBRANCH   2  10
TORSDOF 2
ENDMDL
MODEL 2
REMARK VINA RESULT:      -4.8      1.219      1.697
REMARK  Name = 
REMARK  4 active torsions:
REMARK  status: ('A' for Active; 'I' for Inactive)
REMARK    1  A    between atoms: C_1  and  C_2
REMARK    2  A    between atoms: C_2  and  C_3
REMARK    3  A    between atoms: C_2  and  N_4
REMARK    4  A    between atoms: C_2  and  C_5
REMARK                            x       y       z     vdW  Elec       q    Type
REMARK                         _______ _______ _______ _____ _____    ______ ____
ROOT
ATOM      1  C   UNL     1       5.792   4.445  18.059  0.00  0.00    +0.000 C 
ATOM      2  C   UNL     1       7.034   4.900  17.278  0.00  0.00    +0.000 C 
ATOM      3  C   UNL     1       7.289   6.393  17.532  0.00  0.00    +0.000 C 
ENDROOT
BRANCH   2   4
ATOM      4  C   UNL     1       6.830   4.634  15.816  0.00  0.00    +0.000 A 
ATOM      5  N   UNL     1       6.061   3.732  15.240  0.00  0.00    +0.000 NA
ATOM      6  N   UNL     1       6.226   3.837  13.878  0.00  0.00    +0.000 NA
ATOM      7  C   UNL     1       7.094   4.795  13.653  0.00  0.00    +0.000 A 
ATOM      8  N   UNL     1       7.498   5.325  14.836  0.00  0.00    +0.000 N 
ATOM      9  H   UNL     1       8.147   6.081  14.999  0.00  0.00    +0.000 HD
ENDBRANCH   2   4
BRANCH   2  10
ATOM     10  N   UNL     1       8.199   4.131  17.766  0.00  0.00    +0.000 NA
ATOM     11  H   UNL     1       7.869   3.224  18.101  0.00  0.00    +0.000 HD
ATOM     12  H   UNL     1       8.560   4.599  18.599  0.00  0.00    +0.000 HD
ENDBRANCH   2  10
TORSDOF 2
ENDMDL
MODEL 3
REMARK VINA RESULT:      -4.8      2.288      3.692
REMARK  Name = 
REMARK  4 active torsions:
REMARK  status: ('A' for Active; 'I' for Inactive)
REMARK    1  A    between atoms: C_1  and  C_2
REMARK    2  A    between atoms: C_2  and  C_3
REMARK    3  A    between atoms: C_2  and  N_4
REMARK    4  A    between atoms: C_2  and  C_5
REMARK                            x       y       z     vdW  Elec       q    Type
REMARK                         _______ _______ _______ _____ _____    ______ ____
ROOT
ATOM      1  C   UNL     1       8.022   5.716  19.495  0.00  0.00    +0.000 C 
ATOM      2  C   UNL     1       7.230   5.246  18.266  0.00  0.00    +0.000 C 
ATOM      3  C   UNL     1       7.085   6.404  17.268  0.00  0.00    +0.000 C 
ENDROOT
BRANCH   2   4
ATOM      4  C   UNL     1       5.885   4.744  18.700  0.00  0.00    +0.000 A 
ATOM      5  N   UNL     1       4.829   5.436  19.079  0.00  0.00    +0.000 NA
ATOM      6  N   UNL     1       3.836   4.546  19.421  0.00  0.00    +0.000 NA
ATOM      7  C   UNL     1       4.310   3.334  19.248  0.00  0.00    +0.000 A 
ATOM      8  N   UNL     1       5.587   3.408  18.795  0.00  0.00    +0.000 N 
ATOM      9  H   UNL     1       6.216   2.656  18.556  0.00  0.00    +0.000 HD
ENDBRANCH   2   4
BRANCH   2  10
ATOM     10  N   UNL     1       7.984   4.152  17.617  0.00  0.00    +0.000 NA
ATOM     11  H   UNL     1       8.280   3.492  18.337  0.00  0.00    +0.000 HD
ATOM     12  H   UNL     1       8.854   4.543  17.249  0.00  0.00    +0.000 HD
ENDBRANCH   2  10
TORSDOF 2
ENDMDL
MODEL 4
REMARK VINA RESULT:      -4.8      2.005      3.591
REMARK  Name = 
REMARK  4 active torsions:
REMARK  status: ('A' for Active; 'I' for Inactive)
REMARK    1  A    between atoms: C_1  and  C_2
REMARK    2  A    between atoms: C_2  and  C_3
REMARK    3  A    between atoms: C_2  and  N_4
REMARK    4  A    between atoms: C_2  and  C_5
REMARK                            x       y       z     vdW  Elec       q    Type
REMARK                         _______ _______ _______ _____ _____    ______ ____
ROOT
ATOM      1  C   UNL     1       7.492   6.499  17.710  0.00  0.00    +0.000 C 
ATOM      2  C   UNL     1       7.050   5.069  17.363  0.00  0.00    +0.000 C 
ATOM      3  C   UNL     1       6.782   4.961  15.855  0.00  0.00    +0.000 C 
ENDROOT
BRANCH   2   4
ATOM      4  C   UNL     1       5.821   4.722  18.150  0.00  0.00    +0.000 A 
ATOM      5  N   UNL     1       4.778   5.478  18.430  0.00  0.00    +0.000 NA
ATOM      6  N   UNL     1       3.915   4.743  19.209  0.00  0.00    +0.000 NA
ATOM      7  C   UNL     1       4.451   3.559  19.391  0.00  0.00    +0.000 A 
ATOM      8  N   UNL     1       5.643   3.498  18.744  0.00  0.00    +0.000 N 
ATOM      9  H   UNL     1       6.288   2.724  18.683  0.00  0.00    +0.000 HD
ENDBRANCH   2   4
BRANCH   2  10
ATOM     10  N   UNL     1       8.147   4.143  17.717  0.00  0.00    +0.000 NA
ATOM     11  H   UNL     1       8.824   4.649  18.290  0.00  0.00    +0.000 HD
ATOM     12  H   UNL     1       8.653   3.911  16.861  0.00  0.00    +0.000 HD
ENDBRANCH   2  10
TORSDOF 2
ENDMDL
MODEL 5
REMARK VINA RESULT:      -4.7      1.961      3.467
REMARK  Name = 
REMARK  4 active torsions:
REMARK  status: ('A' for Active; 'I' for Inactive)
REMARK    1  A    between atoms: C_1  and  C_2
REMARK    2  A    between atoms: C_2  and  C_3
REMARK    3  A    between atoms: C_2  and  N_4
REMARK    4  A    between atoms: C_2  and  C_5
REMARK                            x       y       z     vdW  Elec       q    Type
REMARK                         _______ _______ _______ _____ _____    ______ ____
ROOT
ATOM      1  C   UNL     1       7.220   6.316  17.611  0.00  0.00    +0.000 C 
ATOM      2  C   UNL     1       7.065   4.831  17.253  0.00  0.00    +0.000 C 
ATOM      3  C   UNL     1       6.930   4.675  15.731  0.00  0.00    +0.000 C 
ENDROOT
BRANCH   2   4
ATOM      4  C   UNL     1       5.864   4.270  17.956  0.00  0.00    +0.000 A 
ATOM      5  N   UNL     1       5.567   4.306  19.240  0.00  0.00    +0.000 NA
ATOM      6  N   UNL     1       4.384   3.629  19.423  0.00  0.00    +0.000 NA
ATOM      7  C   UNL     1       3.987   3.192  18.250  0.00  0.00    +0.000 A 
ATOM      8  N   UNL     1       4.881   3.572  17.302  0.00  0.00    +0.000 N 
ATOM      9  H   UNL     1       4.854   3.402  16.307  0.00  0.00    +0.000 HD
ENDBRANCH   2   4
BRANCH   2  10
ATOM     10  N   UNL     1       8.280   4.115  17.696  0.00  0.00    +0.000 NA
ATOM     11  H   UNL     1       8.041   3.545  18.509  0.00  0.00    +0.000 HD
ATOM     12  H   UNL     1       8.943   4.808  18.051  0.00  0.00    +0.000 HD
ENDBRANCH   2  10
TORSDOF 2
ENDMDL
MODEL 6
REMARK VINA RESULT:      -4.7      1.418      3.574
REMARK  Name = 
REMARK  4 active torsions:
REMARK  status: ('A' for Active; 'I' for Inactive)
REMARK    1  A    between atoms: C_1  and  C_2
REMARK    2  A    between atoms: C_2  and  C_3
REMARK    3  A    between atoms: C_2  and  N_4
REMARK    4  A    between atoms: C_2  and  C_5
REMARK                            x       y       z     vdW  Elec       q    Type
REMARK                         _______ _______ _______ _____ _____    ______ ____
ROOT
ATOM      1  C   UNL     1       5.348   6.070  15.478  0.00  0.00    +0.000 C 
ATOM      2  C   UNL     1       6.537   5.121  15.688  0.00  0.00    +0.000 C 
ATOM      3  C   UNL     1       6.075   3.666  15.521  0.00  0.00    +0.000 C 
ENDROOT
BRANCH   2   4
ATOM      4  C   UNL     1       7.120   5.344  17.052  0.00  0.00    +0.000 A 
ATOM      5  N   UNL     1       7.281   4.478  18.032  0.00  0.00    +0.000 NA
ATOM      6  N   UNL     1       7.821   5.145  19.107  0.00  0.00    +0.000 NA
ATOM      7  C   UNL     1       7.973   6.402  18.761  0.00  0.00    +0.000 A 
ATOM      8  N   UNL     1       7.550   6.573  17.483  0.00  0.00    +0.000 N 
ATOM      9  H   UNL     1       7.547   7.416  16.927  0.00  0.00    +0.000 HD
ENDBRANCH   2   4
BRANCH   2  10
ATOM     10  N   UNL     1       7.556   5.416  14.657  0.00  0.00    +0.000 NA
ATOM     11  H   UNL     1       7.724   4.566  14.117  0.00  0.00    +0.000 HD
ATOM     12  H   UNL     1       8.441   5.602  15.132  0.00  0.00    +0.000 HD
ENDBRANCH   2  10
TORSDOF 2
ENDMDL
MODEL 7
REMARK VINA RESULT:      -4.7      2.327      3.519
REMARK  Name = 
REMARK  4 active torsions:
REMARK  status: ('A' for Active; 'I' for Inactive)
REMARK    1  A    between atoms: C_1  and  C_2
REMARK    2  A    between atoms: C_2  and  C_3
REMARK    3  A    between atoms: C_2  and  N_4
REMARK    4  A    between atoms: C_2  and  C_5
REMARK                            x       y       z     vdW  Elec       q    Type
REMARK                         _______ _______ _______ _____ _____    ______ ____
ROOT
ATOM      1  C   UNL     1       3.978   3.112  19.697  0.00  0.00    +0.000 C 
ATOM      2  C   UNL     1       4.225   4.477  19.038  0.00  0.00    +0.000 C 
ATOM      3  C   UNL     1       3.461   4.558  17.709  0.00  0.00    +0.000 C 
ENDROOT
BRANCH   2   4
ATOM      4  C   UNL     1       5.697   4.667  18.820  0.00  0.00    +0.000 A 
ATOM      5  N   UNL     1       6.582   5.243  19.610  0.00  0.00    +0.000 NA
ATOM      6  N   UNL     1       7.802   5.217  18.976  0.00  0.00    +0.000 NA
ATOM      7  C   UNL     1       7.635   4.632  17.812  0.00  0.00    +0.000 A 
ATOM      8  N   UNL     1       6.334   4.269  17.672  0.00  0.00    +0.000 N 
ATOM      9  H   UNL     1       5.893   3.791  16.900  0.00  0.00    +0.000 HD
ENDBRANCH   2   4
BRANCH   2  10
ATOM     10  N   UNL     1       3.716   5.530  19.943  0.00  0.00    +0.000 NA
ATOM     11  H   UNL     1       2.697   5.479  19.955  0.00  0.00    +0.000 HD
ATOM     12  H   UNL     1       3.926   6.437  19.521  0.00  0.00    +0.000 HD
ENDBRANCH   2  10
TORSDOF 2
ENDMDL
MODEL 8
REMARK VINA RESULT:      -4.7      1.829      3.528
REMARK  Name = 
REMARK  4 active torsions:
REMARK  status: ('A' for Active; 'I' for Inactive)
REMARK    1  A    between atoms: C_1  and  C_2
REMARK    2  A    between atoms: C_2  and  C_3
REMARK    3  A    between atoms: C_2  and  N_4
REMARK    4  A    between atoms: C_2  and  C_5
REMARK                            x       y       z     vdW  Elec       q    Type
REMARK                         _______ _______ _______ _____ _____    ______ ____
ROOT
ATOM      1  C   UNL     1       6.853   6.294  16.825  0.00  0.00    +0.000 C 
ATOM      2  C   UNL     1       6.787   4.766  16.680  0.00  0.00    +0.000 C 
ATOM      3  C   UNL     1       6.696   4.389  15.194  0.00  0.00    +0.000 C 
ENDROOT
BRANCH   2   4
ATOM      4  C   UNL     1       5.602   4.243  17.437  0.00  0.00    +0.000 A 
ATOM      5  N   UNL     1       4.354   4.115  17.031  0.00  0.00    +0.000 NA
ATOM      6  N   UNL     1       3.612   3.626  18.081  0.00  0.00    +0.000 NA
ATOM      7  C   UNL     1       4.420   3.472  19.104  0.00  0.00    +0.000 A 
ATOM      8  N   UNL     1       5.676   3.842  18.747  0.00  0.00    +0.000 N 
ATOM      9  H   UNL     1       6.519   3.829  19.302  0.00  0.00    +0.000 HD
ENDBRANCH   2   4
BRANCH   2  10
ATOM     10  N   UNL     1       8.028   4.191  17.240  0.00  0.00    +0.000 NA
ATOM     11  H   UNL     1       8.770   4.889  17.166  0.00  0.00    +0.000 HD
ATOM     12  H   UNL     1       8.327   3.429  16.629  0.00  0.00    +0.000 HD
ENDBRANCH   2  10
TORSDOF 2
ENDMDL
MODEL 9
REMARK VINA RESULT:      -4.6      1.151      1.483
REMARK  Name = 
REMARK  4 active torsions:
REMARK  status: ('A' for Active; 'I' for Inactive)
REMARK    1  A    between atoms: C_1  and  C_2
REMARK    2  A    between atoms: C_2  and  C_3
REMARK    3  A    between atoms: C_2  and  N_4
REMARK    4  A    between atoms: C_2  and  C_5
REMARK                            x       y       z     vdW  Elec       q    Type
REMARK                         _______ _______ _______ _____ _____    ______ ____
ROOT
ATOM      1  C   UNL     1       4.144   3.517  17.280  0.00  0.00    +0.000 C 
ATOM      2  C   UNL     1       5.285   4.507  17.559  0.00  0.00    +0.000 C 
ATOM      3  C   UNL     1       4.704   5.850  18.025  0.00  0.00    +0.000 C 
ENDROOT
BRANCH   2   4
ATOM      4  C   UNL     1       6.108   4.683  16.317  0.00  0.00    +0.000 A 
ATOM      5  N   UNL     1       7.251   5.323  16.168  0.00  0.00    +0.000 NA
ATOM      6  N   UNL     1       7.611   5.249  14.843  0.00  0.00    +0.000 NA
ATOM      7  C   UNL     1       6.680   4.571  14.212  0.00  0.00    +0.000 A 
ATOM      8  N   UNL     1       5.721   4.194  15.095  0.00  0.00    +0.000 N 
ATOM      9  H   UNL     1       4.885   3.655  14.925  0.00  0.00    +0.000 HD
ENDBRANCH   2   4
BRANCH   2  10
ATOM     10  N   UNL     1       6.127   3.954  18.641  0.00  0.00    +0.000 NA
ATOM     11  H   UNL     1       6.055   4.568  19.452  0.00  0.00    +0.000 HD
ATOM     12  H   UNL     1       7.103   4.024  18.348  0.00  0.00    +0.000 HD
ENDBRANCH   2  10
TORSDOF 2
ENDMDL
