MODEL 1
REMARK VINA RESULT:      -7.8      0.000      0.000
REMARK  Name = 
REMARK  6 active torsions:
REMARK  status: ('A' for Active; 'I' for Inactive)
REMARK    1  A    between atoms: C_1  and  O_2
REMARK    2  A    between atoms: O_2  and  C_3
REMARK    3  A    between atoms: C_13  and  O_14
REMARK    4  A    between atoms: O_14  and  C_15
REMARK    5  A    between atoms: C_15  and  C_16
REMARK    6  A    between atoms: N_27  and  C_28
REMARK                            x       y       z     vdW  Elec       q    Type
REMARK                         _______ _______ _______ _____ _____    ______ ____
ROOT
ATOM      1  C   UNL     1       1.512  15.684  19.043  0.00  0.00    +0.000 C 
ATOM      2  C   UNL     1       2.465  14.545  19.403  0.00  0.00    +0.000 C 
ATOM      3  C   UNL     1       1.873  13.363  20.199  0.00  0.00    +0.000 C 
ATOM      4  C   UNL     1       0.549  12.814  19.615  0.00  0.00    +0.000 C 
ATOM      5  C   UNL     1      -0.376  13.955  19.003  0.00  0.00    +0.000 C 
ATOM      6  C   UNL     1       0.284  15.135  18.315  0.00  0.00    +0.000 C 
ATOM      7  C   UNL     1       0.872  12.013  18.308  0.00  0.00    +0.000 C 
ATOM      8  C   UNL     1       1.111  10.631  18.776  0.00  0.00    +0.000 A 
ATOM      9  C   UNL     1       1.800   9.703  18.011  0.00  0.00    +0.000 A 
ATOM     10  C   UNL     1       2.015   8.455  18.548  0.00  0.00    +0.000 A 
ATOM     11  C   UNL     1       1.547   8.155  19.835  0.00  0.00    +0.000 A 
ATOM     12  C   UNL     1       0.833   9.117  20.601  0.00  0.00    +0.000 A 
ATOM     13  C   UNL     1       0.551  10.369  20.036  0.00  0.00    +0.000 A 
ATOM     14  C   UNL     1      -0.182  11.628  20.562  0.00  0.00    +0.000 C 
ATOM     15  N   UNL     1      -1.582  11.887  20.084  0.00  0.00    +0.000 NA
ATOM     16  C   UNL     1      -1.978  12.612  21.095  0.00  0.00    +0.000 C 
ATOM     17  N   UNL     1      -1.570  13.878  21.511  0.00  0.00    +0.000 N 
ATOM     18  N   UNL     1      -2.061  11.849  22.160  0.00  0.00    +0.000 N 
ATOM     19  C   UNL     1      -3.141  12.189  23.084  0.00  0.00    +0.000 C 
ATOM     20  C   UNL     1      -0.702  11.472  22.206  0.00  0.00    +0.000 C 
ATOM     21  O   UNL     1      -0.032  11.308  23.184  0.00  0.00    +0.000 OA
ATOM     22  H   UNL     1      -0.730  13.814  22.098  0.00  0.00    +0.000 HD
ATOM     23  H   UNL     1      -2.203  14.380  22.119  0.00  0.00    +0.000 HD
ENDROOT
BRANCH   1  25
ATOM     24  C   UNL     1       1.250  17.948  19.840  0.00  0.00    +0.000 C 
ATOM     25  O   UNL     1       1.181  16.541  20.151  0.00  0.00    +0.000 OA
ENDBRANCH   1  25
BRANCH  11  26
ATOM     26  O   UNL     1       1.911   6.883  20.208  0.00  0.00    +0.000 OA
BRANCH  26  27
ATOM     27  C   UNL     1       2.775   6.174  19.330  0.00  0.00    +0.000 C 
BRANCH  27  28
ATOM     28  C   UNL     1       2.425   4.683  19.383  0.00  0.00    +0.000 C 
ATOM     29  C   UNL     1       1.547   4.325  20.575  0.00  0.00    +0.000 C 
ATOM     30  C   UNL     1       1.080   2.911  20.257  0.00  0.00    +0.000 C 
ATOM     31  C   UNL     1       0.998   2.838  18.731  0.00  0.00    +0.000 C 
ATOM     32  C   UNL     1       1.594   4.149  18.208  0.00  0.00    +0.000 C 
ENDBRANCH  27  28
ENDBRANCH  26  27
ENDBRANCH  11  26
TORSDOF 4
ENDMDL
MODEL 2
REMARK VINA RESULT:      -7.5      0.800      1.043
REMARK  Name = 
REMARK  6 active torsions:
REMARK  status: ('A' for Active; 'I' for Inactive)
REMARK    1  A    between atoms: C_1  and  O_2
REMARK    2  A    between atoms: O_2  and  C_3
REMARK    3  A    between atoms: C_13  and  O_14
REMARK    4  A    between atoms: O_14  and  C_15
REMARK    5  A    between atoms: C_15  and  C_16
REMARK    6  A    between atoms: N_27  and  C_28
REMARK                            x       y       z     vdW  Elec       q    Type
REMARK                         _______ _______ _______ _____ _____    ______ ____
ROOT
ATOM      1  C   UNL     1       2.211  15.632  19.568  0.00  0.00    +0.000 C 
ATOM      2  C   UNL     1       3.039  14.383  19.868  0.00  0.00    +0.000 C 
ATOM      3  C   UNL     1       2.296  13.191  20.508  0.00  0.00    +0.000 C 
ATOM      4  C   UNL     1       0.972  12.822  19.797  0.00  0.00    +0.000 C 
ATOM      5  C   UNL     1       0.190  14.094  19.248  0.00  0.00    +0.000 C 
ATOM      6  C   UNL     1       0.993  15.268  18.718  0.00  0.00    +0.000 C 
ATOM      7  C   UNL     1       1.312  12.119  18.439  0.00  0.00    +0.000 C 
ATOM      8  C   UNL     1       1.401  10.684  18.781  0.00  0.00    +0.000 A 
ATOM      9  C   UNL     1       2.058   9.772  17.970  0.00  0.00    +0.000 A 
ATOM     10  C   UNL     1       2.130   8.466  18.393  0.00  0.00    +0.000 A 
ATOM     11  C   UNL     1       1.554   8.091  19.614  0.00  0.00    +0.000 A 
ATOM     12  C   UNL     1       0.875   9.038  20.428  0.00  0.00    +0.000 A 
ATOM     13  C   UNL     1       0.738  10.358  19.975  0.00  0.00    +0.000 A 
ATOM     14  C   UNL     1       0.081  11.624  20.578  0.00  0.00    +0.000 C 
ATOM     15  N   UNL     1      -1.257  12.053  20.048  0.00  0.00    +0.000 NA
ATOM     16  C   UNL     1      -1.656  12.713  21.100  0.00  0.00    +0.000 C 
ATOM     17  N   UNL     1      -1.170  13.893  21.661  0.00  0.00    +0.000 N 
ATOM     18  N   UNL     1      -1.874  11.866  22.078  0.00  0.00    +0.000 N 
ATOM     19  C   UNL     1      -2.981  12.215  22.966  0.00  0.00    +0.000 C 
ATOM     20  C   UNL     1      -0.559  11.364  22.166  0.00  0.00    +0.000 C 
ATOM     21  O   UNL     1       0.028  11.050  23.160  0.00  0.00    +0.000 OA
ATOM     22  H   UNL     1      -0.380  13.699  22.287  0.00  0.00    +0.000 HD
ATOM     23  H   UNL     1      -1.798  14.392  22.278  0.00  0.00    +0.000 HD
ENDROOT
BRANCH   1  25
ATOM     24  C   UNL     1       3.015  17.070  21.334  0.00  0.00    +0.000 C 
ATOM     25  O   UNL     1       1.881  16.410  20.734  0.00  0.00    +0.000 OA
ENDBRANCH   1  25
BRANCH  11  26
ATOM     26  O   UNL     1       1.782   6.762  19.881  0.00  0.00    +0.000 OA
BRANCH  26  27
ATOM     27  C   UNL     1       2.747   6.098  19.077  0.00  0.00    +0.000 C 
BRANCH  27  28
ATOM     28  C   UNL     1       2.118   4.832  18.486  0.00  0.00    +0.000 C 
ATOM     29  C   UNL     1       3.149   3.884  17.886  0.00  0.00    +0.000 C 
ATOM     30  C   UNL     1       2.358   2.603  17.658  0.00  0.00    +0.000 C 
ATOM     31  C   UNL     1       1.300   2.569  18.762  0.00  0.00    +0.000 C 
ATOM     32  C   UNL     1       1.392   3.918  19.483  0.00  0.00    +0.000 C 
ENDBRANCH  27  28
ENDBRANCH  26  27
ENDBRANCH  11  26
TORSDOF 4
ENDMDL
MODEL 3
REMARK VINA RESULT:      -7.5      0.682      1.019
REMARK  Name = 
REMARK  6 active torsions:
REMARK  status: ('A' for Active; 'I' for Inactive)
REMARK    1  A    between atoms: C_1  and  O_2
REMARK    2  A    between atoms: O_2  and  C_3
REMARK    3  A    between atoms: C_13  and  O_14
REMARK    4  A    between atoms: O_14  and  C_15
REMARK    5  A    between atoms: C_15  and  C_16
REMARK    6  A    between atoms: N_27  and  C_28
REMARK                            x       y       z     vdW  Elec       q    Type
REMARK                         _______ _______ _______ _____ _____    ______ ____
ROOT
ATOM      1  C   UNL     1       1.873  15.656  19.676  0.00  0.00    +0.000 C 
ATOM      2  C   UNL     1       2.799  14.455  19.862  0.00  0.00    +0.000 C 
ATOM      3  C   UNL     1       2.182  13.189  20.492  0.00  0.00    +0.000 C 
ATOM      4  C   UNL     1       0.840  12.760  19.852  0.00  0.00    +0.000 C 
ATOM      5  C   UNL     1      -0.059  13.997  19.416  0.00  0.00    +0.000 C 
ATOM      6  C   UNL     1       0.626  15.246  18.891  0.00  0.00    +0.000 C 
ATOM      7  C   UNL     1       1.132  12.141  18.443  0.00  0.00    +0.000 C 
ATOM      8  C   UNL     1       1.338  10.702  18.711  0.00  0.00    +0.000 A 
ATOM      9  C   UNL     1       1.997   9.873  17.816  0.00  0.00    +0.000 A 
ATOM     10  C   UNL     1       2.183   8.558  18.172  0.00  0.00    +0.000 A 
ATOM     11  C   UNL     1       1.717   8.092  19.409  0.00  0.00    +0.000 A 
ATOM     12  C   UNL     1       1.034   8.955  20.309  0.00  0.00    +0.000 A 
ATOM     13  C   UNL     1       0.780  10.280  19.928  0.00  0.00    +0.000 A 
ATOM     14  C   UNL     1       0.085  11.471  20.633  0.00  0.00    +0.000 C 
ATOM     15  N   UNL     1      -1.312  11.830  20.211  0.00  0.00    +0.000 NA
ATOM     16  C   UNL     1      -1.680  12.415  21.317  0.00  0.00    +0.000 C 
ATOM     17  N   UNL     1      -1.236  13.601  21.901  0.00  0.00    +0.000 N 
ATOM     18  N   UNL     1      -1.775  11.514  22.267  0.00  0.00    +0.000 N 
ATOM     19  C   UNL     1      -2.839  11.748  23.240  0.00  0.00    +0.000 C 
ATOM     20  C   UNL     1      -0.427  11.100  22.244  0.00  0.00    +0.000 C 
ATOM     21  O   UNL     1       0.246  10.785  23.182  0.00  0.00    +0.000 OA
ATOM     22  H   UNL     1      -0.393  13.435  22.464  0.00  0.00    +0.000 HD
ATOM     23  H   UNL     1      -1.851  14.029  22.580  0.00  0.00    +0.000 HD
ENDROOT
BRANCH   1  25
ATOM     24  C   UNL     1       0.749  17.526  20.708  0.00  0.00    +0.000 C 
ATOM     25  O   UNL     1       1.574  16.358  20.896  0.00  0.00    +0.000 OA
ENDBRANCH   1  25
BRANCH  11  26
ATOM     26  O   UNL     1       2.050   6.772  19.597  0.00  0.00    +0.000 OA
BRANCH  26  27
ATOM     27  C   UNL     1       1.657   6.176  20.826  0.00  0.00    +0.000 C 
BRANCH  27  28
ATOM     28  C   UNL     1       1.229   4.729  20.564  0.00  0.00    +0.000 C 
ATOM     29  C   UNL     1       1.488   4.287  19.128  0.00  0.00    +0.000 C 
ATOM     30  C   UNL     1       1.290   2.778  19.183  0.00  0.00    +0.000 C 
ATOM     31  C   UNL     1       1.719   2.356  20.589  0.00  0.00    +0.000 C 
ATOM     32  C   UNL     1       1.977   3.654  21.364  0.00  0.00    +0.000 C 
ENDBRANCH  27  28
ENDBRANCH  26  27
ENDBRANCH  11  26
TORSDOF 4
ENDMDL
MODEL 4
REMARK VINA RESULT:      -7.3      2.062      4.034
REMARK  Name = 
REMARK  6 active torsions:
REMARK  status: ('A' for Active; 'I' for Inactive)
REMARK    1  A    between atoms: C_1  and  O_2
REMARK    2  A    between atoms: O_2  and  C_3
REMARK    3  A    between atoms: C_13  and  O_14
REMARK    4  A    between atoms: O_14  and  C_15
REMARK    5  A    between atoms: C_15  and  C_16
REMARK    6  A    between atoms: N_27  and  C_28
REMARK                            x       y       z     vdW  Elec       q    Type
REMARK                         _______ _______ _______ _____ _____    ______ ____
ROOT
ATOM      1  C   UNL     1      -3.727  14.050  22.653  0.00  0.00    +0.000 C 
ATOM      2  C   UNL     1      -3.691  12.748  21.853  0.00  0.00    +0.000 C 
ATOM      3  C   UNL     1      -2.426  12.480  21.012  0.00  0.00    +0.000 C 
ATOM      4  C   UNL     1      -1.101  12.694  21.784  0.00  0.00    +0.000 C 
ATOM      5  C   UNL     1      -1.176  13.902  22.816  0.00  0.00    +0.000 C 
ATOM      6  C   UNL     1      -2.485  14.161  23.539  0.00  0.00    +0.000 C 
ATOM      7  C   UNL     1      -0.910  11.506  22.787  0.00  0.00    +0.000 C 
ATOM      8  C   UNL     1      -0.167  10.489  22.013  0.00  0.00    +0.000 A 
ATOM      9  C   UNL     1      -0.138   9.155  22.387  0.00  0.00    +0.000 A 
ATOM     10  C   UNL     1       0.541   8.273  21.579  0.00  0.00    +0.000 A 
ATOM     11  C   UNL     1       1.172   8.730  20.415  0.00  0.00    +0.000 A 
ATOM     12  C   UNL     1       1.139  10.105  20.053  0.00  0.00    +0.000 A 
ATOM     13  C   UNL     1       0.507  11.023  20.903  0.00  0.00    +0.000 A 
ATOM     14  C   UNL     1       0.282  12.553  20.832  0.00  0.00    +0.000 C 
ATOM     15  N   UNL     1       1.147  13.440  21.682  0.00  0.00    +0.000 NA
ATOM     16  C   UNL     1       1.042  14.523  20.962  0.00  0.00    +0.000 C 
ATOM     17  N   UNL     1      -0.062  15.338  20.716  0.00  0.00    +0.000 N 
ATOM     18  N   UNL     1       1.666  14.340  19.821  0.00  0.00    +0.000 N 
ATOM     19  C   UNL     1       2.324  15.526  19.278  0.00  0.00    +0.000 C 
ATOM     20  C   UNL     1       0.881  13.259  19.369  0.00  0.00    +0.000 C 
ATOM     21  O   UNL     1       0.541  13.036  18.244  0.00  0.00    +0.000 OA
ATOM     22  H   UNL     1      -0.622  14.966  19.939  0.00  0.00    +0.000 HD
ATOM     23  H   UNL     1       0.132  16.277  20.393  0.00  0.00    +0.000 HD
ENDROOT
BRANCH   1  25
ATOM     24  C   UNL     1      -5.112  15.118  20.988  0.00  0.00    +0.000 C 
ATOM     25  O   UNL     1      -3.961  15.222  21.851  0.00  0.00    +0.000 OA
ENDBRANCH   1  25
BRANCH  11  26
ATOM     26  O   UNL     1       1.743   7.690  19.721  0.00  0.00    +0.000 OA
BRANCH  26  27
ATOM     27  C   UNL     1       2.317   6.639  20.488  0.00  0.00    +0.000 C 
BRANCH  27  28
ATOM     28  C   UNL     1       2.327   5.358  19.649  0.00  0.00    +0.000 C 
ATOM     29  C   UNL     1       1.231   4.379  20.052  0.00  0.00    +0.000 C 
ATOM     30  C   UNL     1       1.231   3.363  18.918  0.00  0.00    +0.000 C 
ATOM     31  C   UNL     1       1.647   4.141  17.667  0.00  0.00    +0.000 C 
ATOM     32  C   UNL     1       2.051   5.539  18.149  0.00  0.00    +0.000 C 
ENDBRANCH  27  28
ENDBRANCH  26  27
ENDBRANCH  11  26
TORSDOF 4
ENDMDL
MODEL 5
REMARK VINA RESULT:      -7.3      2.103      4.415
REMARK  Name = 
REMARK  6 active torsions:
REMARK  status: ('A' for Active; 'I' for Inactive)
REMARK    1  A    between atoms: C_1  and  O_2
REMARK    2  A    between atoms: O_2  and  C_3
REMARK    3  A    between atoms: C_13  and  O_14
REMARK    4  A    between atoms: O_14  and  C_15
REMARK    5  A    between atoms: C_15  and  C_16
REMARK    6  A    between atoms: N_27  and  C_28
REMARK                            x       y       z     vdW  Elec       q    Type
REMARK                         _______ _______ _______ _____ _____    ______ ____
ROOT
ATOM      1  C   UNL     1      -4.156  13.797  23.338  0.00  0.00    +0.000 C 
ATOM      2  C   UNL     1      -4.047  12.666  22.316  0.00  0.00    +0.000 C 
ATOM      3  C   UNL     1      -2.792  12.655  21.418  0.00  0.00    +0.000 C 
ATOM      4  C   UNL     1      -1.464  12.833  22.194  0.00  0.00    +0.000 C 
ATOM      5  C   UNL     1      -1.598  13.826  23.428  0.00  0.00    +0.000 C 
ATOM      6  C   UNL     1      -2.900  13.847  24.208  0.00  0.00    +0.000 C 
ATOM      7  C   UNL     1      -1.153  11.504  22.962  0.00  0.00    +0.000 C 
ATOM      8  C   UNL     1      -0.359  10.704  22.005  0.00  0.00    +0.000 A 
ATOM      9  C   UNL     1      -0.217   9.331  22.131  0.00  0.00    +0.000 A 
ATOM     10  C   UNL     1       0.501   8.665  21.166  0.00  0.00    +0.000 A 
ATOM     11  C   UNL     1       1.058   9.372  20.092  0.00  0.00    +0.000 A 
ATOM     12  C   UNL     1       0.911  10.782  19.985  0.00  0.00    +0.000 A 
ATOM     13  C   UNL     1       0.238  11.480  20.998  0.00  0.00    +0.000 A 
ATOM     14  C   UNL     1      -0.104  12.975  21.209  0.00  0.00    +0.000 C 
ATOM     15  N   UNL     1       0.717  13.762  22.189  0.00  0.00    +0.000 NA
ATOM     16  C   UNL     1       0.508  14.945  21.679  0.00  0.00    +0.000 C 
ATOM     17  N   UNL     1      -0.661  15.699  21.603  0.00  0.00    +0.000 N 
ATOM     18  N   UNL     1       1.108  15.019  20.514  0.00  0.00    +0.000 N 
ATOM     19  C   UNL     1       1.658  16.332  20.183  0.00  0.00    +0.000 C 
ATOM     20  C   UNL     1       0.394  13.977  19.887  0.00  0.00    +0.000 C 
ATOM     21  O   UNL     1       0.036  13.933  18.747  0.00  0.00    +0.000 OA
ATOM     22  H   UNL     1      -1.215  15.429  20.782  0.00  0.00    +0.000 HD
ATOM     23  H   UNL     1      -0.549  16.693  21.452  0.00  0.00    +0.000 HD
ENDROOT
BRANCH   1  25
ATOM     24  C   UNL     1      -5.720  15.050  21.991  0.00  0.00    +0.000 C 
ATOM     25  O   UNL     1      -4.503  15.071  22.765  0.00  0.00    +0.000 OA
ENDBRANCH   1  25
BRANCH  11  26
ATOM     26  O   UNL     1       1.685   8.522  19.213  0.00  0.00    +0.000 OA
BRANCH  26  27
ATOM     27  C   UNL     1       2.139   7.278  19.729  0.00  0.00    +0.000 C 
BRANCH  27  28
ATOM     28  C   UNL     1       2.418   6.326  18.562  0.00  0.00    +0.000 C 
ATOM     29  C   UNL     1       3.898   6.243  18.207  0.00  0.00    +0.000 C 
ATOM     30  C   UNL     1       3.970   5.044  17.271  0.00  0.00    +0.000 C 
ATOM     31  C   UNL     1       2.864   4.093  17.733  0.00  0.00    +0.000 C 
ATOM     32  C   UNL     1       2.069   4.851  18.803  0.00  0.00    +0.000 C 
ENDBRANCH  27  28
ENDBRANCH  26  27
ENDBRANCH  11  26
TORSDOF 4
ENDMDL
MODEL 6
REMARK VINA RESULT:      -7.2      2.297      3.857
REMARK  Name = 
REMARK  6 active torsions:
REMARK  status: ('A' for Active; 'I' for Inactive)
REMARK    1  A    between atoms: C_1  and  O_2
REMARK    2  A    between atoms: O_2  and  C_3
REMARK    3  A    between atoms: C_13  and  O_14
REMARK    4  A    between atoms: O_14  and  C_15
REMARK    5  A    between atoms: C_15  and  C_16
REMARK    6  A    between atoms: N_27  and  C_28
REMARK                            x       y       z     vdW  Elec       q    Type
REMARK                         _______ _______ _______ _____ _____    ______ ____
ROOT
ATOM      1  C   UNL     1      -2.995  15.226  21.439  0.00  0.00    +0.000 C 
ATOM      2  C   UNL     1      -3.164  13.788  20.950  0.00  0.00    +0.000 C 
ATOM      3  C   UNL     1      -1.896  13.070  20.442  0.00  0.00    +0.000 C 
ATOM      4  C   UNL     1      -0.681  13.194  21.393  0.00  0.00    +0.000 C 
ATOM      5  C   UNL     1      -0.605  14.608  22.118  0.00  0.00    +0.000 C 
ATOM      6  C   UNL     1      -1.900  15.298  22.505  0.00  0.00    +0.000 C 
ATOM      7  C   UNL     1      -0.926  12.277  22.639  0.00  0.00    +0.000 C 
ATOM      8  C   UNL     1      -0.350  10.971  22.252  0.00  0.00    +0.000 A 
ATOM      9  C   UNL     1      -0.697   9.793  22.894  0.00  0.00    +0.000 A 
ATOM     10  C   UNL     1      -0.146   8.620  22.434  0.00  0.00    +0.000 A 
ATOM     11  C   UNL     1       0.733   8.638  21.343  0.00  0.00    +0.000 A 
ATOM     12  C   UNL     1       1.086   9.859  20.703  0.00  0.00    +0.000 A 
ATOM     13  C   UNL     1       0.582  11.067  21.206  0.00  0.00    +0.000 A 
ATOM     14  C   UNL     1       0.746  12.545  20.776  0.00  0.00    +0.000 C 
ATOM     15  N   UNL     1       1.672  13.419  21.573  0.00  0.00    +0.000 NA
ATOM     16  C   UNL     1       1.935  14.290  20.637  0.00  0.00    +0.000 C 
ATOM     17  N   UNL     1       1.107  15.225  20.019  0.00  0.00    +0.000 N 
ATOM     18  N   UNL     1       2.650  13.709  19.701  0.00  0.00    +0.000 N 
ATOM     19  C   UNL     1       3.645  14.565  19.060  0.00  0.00    +0.000 C 
ATOM     20  C   UNL     1       1.698  12.732  19.342  0.00  0.00    +0.000 C 
ATOM     21  O   UNL     1       1.475  12.313  18.244  0.00  0.00    +0.000 OA
ATOM     22  H   UNL     1       0.588  14.795  19.244  0.00  0.00    +0.000 HD
ATOM     23  H   UNL     1       1.566  15.996  19.551  0.00  0.00    +0.000 HD
ENDROOT
BRANCH   1  25
ATOM     24  C   UNL     1      -3.828  17.222  20.366  0.00  0.00    +0.000 C 
ATOM     25  O   UNL     1      -2.824  16.187  20.381  0.00  0.00    +0.000 OA
ENDBRANCH   1  25
BRANCH  11  26
ATOM     26  O   UNL     1       1.128   7.366  21.004  0.00  0.00    +0.000 OA
BRANCH  26  27
ATOM     27  C   UNL     1       2.147   7.246  20.021  0.00  0.00    +0.000 C 
BRANCH  27  28
ATOM     28  C   UNL     1       2.319   5.767  19.661  0.00  0.00    +0.000 C 
ATOM     29  C   UNL     1       1.342   4.861  20.401  0.00  0.00    +0.000 C 
ATOM     30  C   UNL     1       1.476   3.530  19.674  0.00  0.00    +0.000 C 
ATOM     31  C   UNL     1       1.811   3.883  18.224  0.00  0.00    +0.000 C 
ATOM     32  C   UNL     1       2.042   5.399  18.196  0.00  0.00    +0.000 C 
ENDBRANCH  27  28
ENDBRANCH  26  27
ENDBRANCH  11  26
TORSDOF 4
ENDMDL
MODEL 7
REMARK VINA RESULT:      -7.0      2.222      4.173
REMARK  Name = 
REMARK  6 active torsions:
REMARK  status: ('A' for Active; 'I' for Inactive)
REMARK    1  A    between atoms: C_1  and  O_2
REMARK    2  A    between atoms: O_2  and  C_3
REMARK    3  A    between atoms: C_13  and  O_14
REMARK    4  A    between atoms: O_14  and  C_15
REMARK    5  A    between atoms: C_15  and  C_16
REMARK    6  A    between atoms: N_27  and  C_28
REMARK                            x       y       z     vdW  Elec       q    Type
REMARK                         _______ _______ _______ _____ _____    ______ ____
ROOT
ATOM      1  C   UNL     1      -3.696  14.015  22.316  0.00  0.00    +0.000 C 
ATOM      2  C   UNL     1      -3.620  12.714  21.519  0.00  0.00    +0.000 C 
ATOM      3  C   UNL     1      -2.313  12.445  20.744  0.00  0.00    +0.000 C 
ATOM      4  C   UNL     1      -1.030  12.656  21.585  0.00  0.00    +0.000 C 
ATOM      5  C   UNL     1      -1.157  13.863  22.613  0.00  0.00    +0.000 C 
ATOM      6  C   UNL     1      -2.501  14.124  23.267  0.00  0.00    +0.000 C 
ATOM      7  C   UNL     1      -0.893  11.467  22.596  0.00  0.00    +0.000 C 
ATOM      8  C   UNL     1      -0.112  10.449  21.861  0.00  0.00    +0.000 A 
ATOM      9  C   UNL     1      -0.104   9.115  22.235  0.00  0.00    +0.000 A 
ATOM     10  C   UNL     1       0.615   8.233  21.463  0.00  0.00    +0.000 A 
ATOM     11  C   UNL     1       1.306   8.689  20.333  0.00  0.00    +0.000 A 
ATOM     12  C   UNL     1       1.294  10.065  19.971  0.00  0.00    +0.000 A 
ATOM     13  C   UNL     1       0.620  10.983  20.788  0.00  0.00    +0.000 A 
ATOM     14  C   UNL     1       0.401  12.514  20.706  0.00  0.00    +0.000 C 
ATOM     15  N   UNL     1       1.221  13.399  21.600  0.00  0.00    +0.000 NA
ATOM     16  C   UNL     1       1.155  14.483  20.876  0.00  0.00    +0.000 C 
ATOM     17  N   UNL     1       0.067  15.299  20.574  0.00  0.00    +0.000 N 
ATOM     18  N   UNL     1       1.838  14.300  19.770  0.00  0.00    +0.000 N 
ATOM     19  C   UNL     1       2.525  15.485  19.262  0.00  0.00    +0.000 C 
ATOM     20  C   UNL     1       1.076  13.219  19.277  0.00  0.00    +0.000 C 
ATOM     21  O   UNL     1       0.794  12.998  18.136  0.00  0.00    +0.000 OA
ATOM     22  H   UNL     1      -0.452  14.929  19.769  0.00  0.00    +0.000 HD
ATOM     23  H   UNL     1       0.279  16.238  20.262  0.00  0.00    +0.000 HD
ENDROOT
BRANCH   1  25
ATOM     24  C   UNL     1      -4.329  16.344  22.245  0.00  0.00    +0.000 C 
ATOM     25  O   UNL     1      -3.886  15.188  21.505  0.00  0.00    +0.000 OA
ENDBRANCH   1  25
BRANCH  11  26
ATOM     26  O   UNL     1       1.912   7.649  19.669  0.00  0.00    +0.000 OA
BRANCH  26  27
ATOM     27  C   UNL     1       2.546   7.953  18.434  0.00  0.00    +0.000 C 
BRANCH  27  28
ATOM     28  C   UNL     1       2.820   6.647  17.681  0.00  0.00    +0.000 C 
ATOM     29  C   UNL     1       4.308   6.351  17.534  0.00  0.00    +0.000 C 
ATOM     30  C   UNL     1       4.333   4.905  17.057  0.00  0.00    +0.000 C 
ATOM     31  C   UNL     1       3.106   4.241  17.685  0.00  0.00    +0.000 C 
ATOM     32  C   UNL     1       2.309   5.366  18.356  0.00  0.00    +0.000 C 
ENDBRANCH  27  28
ENDBRANCH  26  27
ENDBRANCH  11  26
TORSDOF 4
ENDMDL
MODEL 8
REMARK VINA RESULT:      -7.0      2.371      4.715
REMARK  Name = 
REMARK  6 active torsions:
REMARK  status: ('A' for Active; 'I' for Inactive)
REMARK    1  A    between atoms: C_1  and  O_2
REMARK    2  A    between atoms: O_2  and  C_3
REMARK    3  A    between atoms: C_13  and  O_14
REMARK    4  A    between atoms: O_14  and  C_15
REMARK    5  A    between atoms: C_15  and  C_16
REMARK    6  A    between atoms: N_27  and  C_28
REMARK                            x       y       z     vdW  Elec       q    Type
REMARK                         _______ _______ _______ _____ _____    ______ ____
ROOT
ATOM      1  C   UNL     1      -4.968  14.398  22.580  0.00  0.00    +0.000 C 
ATOM      2  C   UNL     1      -4.769  12.977  22.052  0.00  0.00    +0.000 C 
ATOM      3  C   UNL     1      -3.508  12.720  21.201  0.00  0.00    +0.000 C 
ATOM      4  C   UNL     1      -2.203  13.267  21.830  0.00  0.00    +0.000 C 
ATOM      5  C   UNL     1      -2.419  14.638  22.606  0.00  0.00    +0.000 C 
ATOM      6  C   UNL     1      -3.727  14.857  23.346  0.00  0.00    +0.000 C 
ATOM      7  C   UNL     1      -1.805  12.346  23.033  0.00  0.00    +0.000 C 
ATOM      8  C   UNL     1      -0.947  11.304  22.429  0.00  0.00    +0.000 A 
ATOM      9  C   UNL     1      -0.709  10.092  23.056  0.00  0.00    +0.000 A 
ATOM     10  C   UNL     1       0.065   9.165  22.397  0.00  0.00    +0.000 A 
ATOM     11  C   UNL     1       0.580   9.456  21.127  0.00  0.00    +0.000 A 
ATOM     12  C   UNL     1       0.333  10.710  20.504  0.00  0.00    +0.000 A 
ATOM     13  C   UNL     1      -0.398  11.687  21.195  0.00  0.00    +0.000 A 
ATOM     14  C   UNL     1      -0.848  13.125  20.838  0.00  0.00    +0.000 C 
ATOM     15  N   UNL     1      -0.095  14.277  21.439  0.00  0.00    +0.000 NA
ATOM     16  C   UNL     1      -0.383  15.165  20.528  0.00  0.00    +0.000 C 
ATOM     17  N   UNL     1      -1.603  15.753  20.197  0.00  0.00    +0.000 N 
ATOM     18  N   UNL     1       0.221  14.841  19.408  0.00  0.00    +0.000 N 
ATOM     19  C   UNL     1       0.678  15.969  18.601  0.00  0.00    +0.000 C 
ATOM     20  C   UNL     1      -0.411  13.592  19.230  0.00  0.00    +0.000 C 
ATOM     21  O   UNL     1      -0.754  13.100  18.195  0.00  0.00    +0.000 OA
ATOM     22  H   UNL     1      -2.128  15.157  19.546  0.00  0.00    +0.000 HD
ATOM     23  H   UNL     1      -1.561  16.624  19.684  0.00  0.00    +0.000 HD
ENDROOT
BRANCH   1  25
ATOM     24  C   UNL     1      -6.677  15.016  20.990  0.00  0.00    +0.000 C 
ATOM     25  O   UNL     1      -5.401  15.338  21.579  0.00  0.00    +0.000 OA
ENDBRANCH   1  25
BRANCH  11  26
ATOM     26  O   UNL     1       1.274   8.385  20.617  0.00  0.00    +0.000 OA
BRANCH  26  27
ATOM     27  C   UNL     1       1.892   8.560  19.349  0.00  0.00    +0.000 C 
BRANCH  27  28
ATOM     28  C   UNL     1       2.244   7.185  18.773  0.00  0.00    +0.000 C 
ATOM     29  C   UNL     1       3.372   7.244  17.751  0.00  0.00    +0.000 C 
ATOM     30  C   UNL     1       3.752   5.782  17.561  0.00  0.00    +0.000 C 
ATOM     31  C   UNL     1       3.481   5.106  18.906  0.00  0.00    +0.000 C 
ATOM     32  C   UNL     1       2.781   6.156  19.777  0.00  0.00    +0.000 C 
ENDBRANCH  27  28
ENDBRANCH  26  27
ENDBRANCH  11  26
TORSDOF 4
ENDMDL
MODEL 9
REMARK VINA RESULT:      -6.9      8.030      9.318
REMARK  Name = 
REMARK  6 active torsions:
REMARK  status: ('A' for Active; 'I' for Inactive)
REMARK    1  A    between atoms: C_1  and  O_2
REMARK    2  A    between atoms: O_2  and  C_3
REMARK    3  A    between atoms: C_13  and  O_14
REMARK    4  A    between atoms: O_14  and  C_15
REMARK    5  A    between atoms: C_15  and  C_16
REMARK    6  A    between atoms: N_27  and  C_28
REMARK                            x       y       z     vdW  Elec       q    Type
REMARK                         _______ _______ _______ _____ _____    ______ ____
ROOT
ATOM      1  C   UNL     1       8.482  15.732  23.625  0.00  0.00    +0.000 C 
ATOM      2  C   UNL     1       7.637  14.608  23.027  0.00  0.00    +0.000 C 
ATOM      3  C   UNL     1       7.780  14.357  21.512  0.00  0.00    +0.000 C 
ATOM      4  C   UNL     1       9.248  14.266  21.027  0.00  0.00    +0.000 C 
ATOM      5  C   UNL     1      10.218  15.259  21.804  0.00  0.00    +0.000 C 
ATOM      6  C   UNL     1       9.957  15.529  23.274  0.00  0.00    +0.000 C 
ATOM      7  C   UNL     1       9.846  12.897  21.499  0.00  0.00    +0.000 C 
ATOM      8  C   UNL     1       9.538  11.963  20.394  0.00  0.00    +0.000 A 
ATOM      9  C   UNL     1       9.540  10.589  20.570  0.00  0.00    +0.000 A 
ATOM     10  C   UNL     1       9.196   9.800  19.497  0.00  0.00    +0.000 A 
ATOM     11  C   UNL     1       8.851  10.390  18.274  0.00  0.00    +0.000 A 
ATOM     12  C   UNL     1       8.865  11.803  18.110  0.00  0.00    +0.000 A 
ATOM     13  C   UNL     1       9.279  12.613  19.177  0.00  0.00    +0.000 A 
ATOM     14  C   UNL     1       9.415  14.145  19.355  0.00  0.00    +0.000 C 
ATOM     15  N   UNL     1      10.788  14.750  19.291  0.00  0.00    +0.000 NA
ATOM     16  C   UNL     1      10.430  15.953  18.937  0.00  0.00    +0.000 C 
ATOM     17  N   UNL     1       9.715  16.923  19.637  0.00  0.00    +0.000 N 
ATOM     18  N   UNL     1       9.960  15.916  17.712  0.00  0.00    +0.000 N 
ATOM     19  C   UNL     1      10.247  17.097  16.902  0.00  0.00    +0.000 C 
ATOM     20  C   UNL     1       8.886  15.037  17.969  0.00  0.00    +0.000 C 
ATOM     21  O   UNL     1       7.795  15.071  17.480  0.00  0.00    +0.000 OA
ATOM     22  H   UNL     1       8.704  16.772  19.537  0.00  0.00    +0.000 HD
ATOM     23  H   UNL     1       9.809  17.877  19.313  0.00  0.00    +0.000 HD
ENDROOT
BRANCH   1  25
ATOM     24  C   UNL     1       6.587  17.226  23.549  0.00  0.00    +0.000 C 
ATOM     25  O   UNL     1       8.000  17.053  23.318  0.00  0.00    +0.000 OA
ENDBRANCH   1  25
BRANCH  11  26
ATOM     26  O   UNL     1       8.487   9.439  17.351  0.00  0.00    +0.000 OA
BRANCH  26  27
ATOM     27  C   UNL     1       7.370   8.622  17.672  0.00  0.00    +0.000 C 
BRANCH  27  28
ATOM     28  C   UNL     1       7.754   7.152  17.472  0.00  0.00    +0.000 C 
ATOM     29  C   UNL     1       7.706   6.348  18.765  0.00  0.00    +0.000 C 
ATOM     30  C   UNL     1       7.808   4.906  18.286  0.00  0.00    +0.000 C 
ATOM     31  C   UNL     1       7.134   4.878  16.913  0.00  0.00    +0.000 C 
ATOM     32  C   UNL     1       6.827   6.337  16.559  0.00  0.00    +0.000 C 
ENDBRANCH  27  28
ENDBRANCH  26  27
ENDBRANCH  11  26
TORSDOF 4
ENDMDL
