MODEL 1
REMARK VINA RESULT:      -7.9      0.000      0.000
REMARK  Name = 
REMARK  9 active torsions:
REMARK  status: ('A' for Active; 'I' for Inactive)
REMARK    1  A    between atoms: C_2  and  O_3
REMARK    2  A    between atoms: C_2  and  C_4
REMARK    3  A    between atoms: C_4  and  C_5
REMARK    4  A    between atoms: C_5  and  S_6
REMARK    5  A    between atoms: S_6  and  C_7
REMARK    6  A    between atoms: C_10  and  C_11
REMARK    7  A    between atoms: N_17  and  C_18
REMARK    8  A    between atoms: C_18  and  C_19
REMARK    9  A    between atoms: C_19  and  C_20
REMARK                            x       y       z     vdW  Elec       q    Type
REMARK                         _______ _______ _______ _____ _____    ______ ____
ROOT
ATOM      1  C   UNL     1       3.638   4.287  19.835  0.00  0.00    +0.000 A 
ATOM      2  N   UNL     1       4.644   3.492  20.098  0.00  0.00    +0.000 NA
ATOM      3  N   UNL     1       5.512   3.541  19.039  0.00  0.00    +0.000 NA
ATOM      4  C   UNL     1       5.042   4.385  18.136  0.00  0.00    +0.000 A 
ATOM      5  N   UNL     1       3.833   4.899  18.619  0.00  0.00    +0.000 N 
ENDROOT
BRANCH   4   6
ATOM      6  C   UNL     1       5.665   4.620  16.820  0.00  0.00    +0.000 A 
ATOM      7  C   UNL     1       5.220   4.057  15.619  0.00  0.00    +0.000 A 
ATOM      8  C   UNL     1       5.928   4.245  14.433  0.00  0.00    +0.000 A 
ATOM      9  C   UNL     1       7.052   5.047  14.462  0.00  0.00    +0.000 A 
ATOM     10  N   UNL     1       7.490   5.665  15.577  0.00  0.00    +0.000 NA
ATOM     11  C   UNL     1       6.786   5.444  16.720  0.00  0.00    +0.000 A 
ENDBRANCH   4   6
BRANCH   1  12
ATOM     12  S   UNL     1       2.266   4.516  20.864  0.00  0.00    +0.000 S 
BRANCH  12  13
ATOM     13  C   UNL     1       1.359   2.947  20.737  0.00  0.00    +0.000 C 
BRANCH  13  14
ATOM     14  C   UNL     1       0.763   2.859  19.331  0.00  0.00    +0.000 C 
BRANCH  14  16
ATOM     15  O   UNL     1       1.893   2.604  17.199  0.00  0.00    +0.000 OA
ATOM     16  C   UNL     1       1.738   2.254  18.356  0.00  0.00    +0.000 C 
BRANCH  16  17
ATOM     17  O   UNL     1       2.458   1.240  18.903  0.00  0.00    +0.000 OA
ATOM     18  H   UNL     1       3.301   1.057  18.442  0.00  0.00    +0.000 HD
ENDBRANCH  16  17
ENDBRANCH  14  16
ENDBRANCH  13  14
ENDBRANCH  12  13
ENDBRANCH   1  12
BRANCH   5  19
ATOM     19  C   UNL     1       3.011   5.834  17.874  0.00  0.00    +0.000 C 
BRANCH  19  20
ATOM     20  C   UNL     1       3.364   7.315  17.766  0.00  0.00    +0.000 C 
BRANCH  20  21
ATOM     21  C   UNL     1       2.331   8.170  18.463  0.00  0.00    +0.000 A 
ATOM     22  C   UNL     1       2.008   7.919  19.803  0.00  0.00    +0.000 A 
ATOM     23  C   UNL     1       1.066   8.710  20.461  0.00  0.00    +0.000 A 
ATOM     24  C   UNL     1       0.433   9.750  19.784  0.00  0.00    +0.000 A 
ATOM     25  C   UNL     1       0.733   9.994  18.445  0.00  0.00    +0.000 A 
ATOM     26  C   UNL     1       1.676   9.206  17.783  0.00  0.00    +0.000 A 
ENDBRANCH  20  21
ENDBRANCH  19  20
ENDBRANCH   5  19
TORSDOF 9
ENDMDL
MODEL 2
REMARK VINA RESULT:      -7.8      2.723      5.071
REMARK  Name = 
REMARK  9 active torsions:
REMARK  status: ('A' for Active; 'I' for Inactive)
REMARK    1  A    between atoms: C_2  and  O_3
REMARK    2  A    between atoms: C_2  and  C_4
REMARK    3  A    between atoms: C_4  and  C_5
REMARK    4  A    between atoms: C_5  and  S_6
REMARK    5  A    between atoms: S_6  and  C_7
REMARK    6  A    between atoms: C_10  and  C_11
REMARK    7  A    between atoms: N_17  and  C_18
REMARK    8  A    between atoms: C_18  and  C_19
REMARK    9  A    between atoms: C_19  and  C_20
REMARK                            x       y       z     vdW  Elec       q    Type
REMARK                         _______ _______ _______ _____ _____    ______ ____
ROOT
ATOM      1  C   UNL     1       4.882   4.950  16.603  0.00  0.00    +0.000 A 
ATOM      2  N   UNL     1       4.944   3.672  16.324  0.00  0.00    +0.000 NA
ATOM      3  N   UNL     1       4.210   2.996  17.264  0.00  0.00    +0.000 NA
ATOM      4  C   UNL     1       3.683   3.868  18.108  0.00  0.00    +0.000 A 
ATOM      5  N   UNL     1       4.087   5.148  17.707  0.00  0.00    +0.000 N 
ENDROOT
BRANCH   4   6
ATOM      6  C   UNL     1       2.910   3.496  19.306  0.00  0.00    +0.000 A 
ATOM      7  C   UNL     1       1.544   3.744  19.477  0.00  0.00    +0.000 A 
ATOM      8  C   UNL     1       0.908   3.455  20.684  0.00  0.00    +0.000 A 
ATOM      9  C   UNL     1       1.649   2.867  21.690  0.00  0.00    +0.000 A 
ATOM     10  N   UNL     1       2.952   2.547  21.557  0.00  0.00    +0.000 NA
ATOM     11  C   UNL     1       3.545   2.861  20.373  0.00  0.00    +0.000 A 
ENDBRANCH   4   6
BRANCH   1  12
ATOM     12  S   UNL     1       5.697   6.193  15.717  0.00  0.00    +0.000 S 
BRANCH  12  13
ATOM     13  C   UNL     1       7.064   6.682  16.808  0.00  0.00    +0.000 C 
BRANCH  13  14
ATOM     14  C   UNL     1       7.495   5.449  17.606  0.00  0.00    +0.000 C 
BRANCH  14  16
ATOM     15  O   UNL     1       6.888   5.195  19.941  0.00  0.00    +0.000 OA
ATOM     16  C   UNL     1       7.558   5.742  19.081  0.00  0.00    +0.000 C 
BRANCH  16  17
ATOM     17  O   UNL     1       8.461   6.710  19.381  0.00  0.00    +0.000 OA
ATOM     18  H   UNL     1       8.103   7.430  19.937  0.00  0.00    +0.000 HD
ENDBRANCH  16  17
ENDBRANCH  14  16
ENDBRANCH  13  14
ENDBRANCH  12  13
ENDBRANCH   1  12
BRANCH   5  19
ATOM     19  C   UNL     1       3.727   6.357  18.424  0.00  0.00    +0.000 C 
BRANCH  19  20
ATOM     20  C   UNL     1       2.791   7.404  17.826  0.00  0.00    +0.000 C 
BRANCH  20  21
ATOM     21  C   UNL     1       2.016   8.118  18.910  0.00  0.00    +0.000 A 
ATOM     22  C   UNL     1       1.917   7.550  20.187  0.00  0.00    +0.000 A 
ATOM     23  C   UNL     1       1.216   8.206  21.198  0.00  0.00    +0.000 A 
ATOM     24  C   UNL     1       0.600   9.429  20.940  0.00  0.00    +0.000 A 
ATOM     25  C   UNL     1       0.676   9.992  19.668  0.00  0.00    +0.000 A 
ATOM     26  C   UNL     1       1.378   9.340  18.653  0.00  0.00    +0.000 A 
ENDBRANCH  20  21
ENDBRANCH  19  20
ENDBRANCH   5  19
TORSDOF 9
ENDMDL
MODEL 3
REMARK VINA RESULT:      -7.7      2.948      6.093
REMARK  Name = 
REMARK  9 active torsions:
REMARK  status: ('A' for Active; 'I' for Inactive)
REMARK    1  A    between atoms: C_2  and  O_3
REMARK    2  A    between atoms: C_2  and  C_4
REMARK    3  A    between atoms: C_4  and  C_5
REMARK    4  A    between atoms: C_5  and  S_6
REMARK    5  A    between atoms: S_6  and  C_7
REMARK    6  A    between atoms: C_10  and  C_11
REMARK    7  A    between atoms: N_17  and  C_18
REMARK    8  A    between atoms: C_18  and  C_19
REMARK    9  A    between atoms: C_19  and  C_20
REMARK                            x       y       z     vdW  Elec       q    Type
REMARK                         _______ _______ _______ _____ _____    ______ ____
ROOT
ATOM      1  C   UNL     1       5.801   5.048  16.133  0.00  0.00    +0.000 A 
ATOM      2  N   UNL     1       6.465   6.159  16.334  0.00  0.00    +0.000 NA
ATOM      3  N   UNL     1       5.728   6.947  17.178  0.00  0.00    +0.000 NA
ATOM      4  C   UNL     1       4.620   6.305  17.510  0.00  0.00    +0.000 A 
ATOM      5  N   UNL     1       4.634   5.064  16.862  0.00  0.00    +0.000 N 
ENDROOT
BRANCH   4   6
ATOM      6  C   UNL     1       3.542   6.886  18.330  0.00  0.00    +0.000 A 
ATOM      7  C   UNL     1       3.093   6.353  19.544  0.00  0.00    +0.000 A 
ATOM      8  C   UNL     1       1.996   6.903  20.207  0.00  0.00    +0.000 A 
ATOM      9  C   UNL     1       1.396   8.022  19.663  0.00  0.00    +0.000 A 
ATOM     10  N   UNL     1       1.827   8.614  18.531  0.00  0.00    +0.000 NA
ATOM     11  C   UNL     1       2.887   8.040  17.901  0.00  0.00    +0.000 A 
ENDBRANCH   4   6
BRANCH   1  12
ATOM     12  S   UNL     1       6.317   3.765  15.095  0.00  0.00    +0.000 S 
BRANCH  12  13
ATOM     13  C   UNL     1       5.543   4.156  13.499  0.00  0.00    +0.000 C 
BRANCH  13  14
ATOM     14  C   UNL     1       6.297   3.391  12.409  0.00  0.00    +0.000 C 
BRANCH  14  16
ATOM     15  O   UNL     1       4.264   2.786  11.230  0.00  0.00    +0.000 OA
ATOM     16  C   UNL     1       5.375   2.487  11.633  0.00  0.00    +0.000 C 
BRANCH  16  17
ATOM     17  O   UNL     1       5.913   1.259  11.417  0.00  0.00    +0.000 OA
ATOM     18  H   UNL     1       5.370   0.521  11.758  0.00  0.00    +0.000 HD
ENDBRANCH  16  17
ENDBRANCH  14  16
ENDBRANCH  13  14
ENDBRANCH  12  13
ENDBRANCH   1  12
BRANCH   5  19
ATOM     19  C   UNL     1       3.555   4.100  16.963  0.00  0.00    +0.000 C 
BRANCH  19  20
ATOM     20  C   UNL     1       3.693   2.813  17.771  0.00  0.00    +0.000 C 
BRANCH  20  21
ATOM     21  C   UNL     1       2.850   2.868  19.025  0.00  0.00    +0.000 A 
ATOM     22  C   UNL     1       3.444   2.645  20.274  0.00  0.00    +0.000 A 
ATOM     23  C   UNL     1       2.679   2.706  21.439  0.00  0.00    +0.000 A 
ATOM     24  C   UNL     1       1.315   2.980  21.364  0.00  0.00    +0.000 A 
ATOM     25  C   UNL     1       0.712   3.184  20.124  0.00  0.00    +0.000 A 
ATOM     26  C   UNL     1       1.474   3.125  18.956  0.00  0.00    +0.000 A 
ENDBRANCH  20  21
ENDBRANCH  19  20
ENDBRANCH   5  19
TORSDOF 9
ENDMDL
MODEL 4
REMARK VINA RESULT:      -7.7      2.910      6.192
REMARK  Name = 
REMARK  9 active torsions:
REMARK  status: ('A' for Active; 'I' for Inactive)
REMARK    1  A    between atoms: C_2  and  O_3
REMARK    2  A    between atoms: C_2  and  C_4
REMARK    3  A    between atoms: C_4  and  C_5
REMARK    4  A    between atoms: C_5  and  S_6
REMARK    5  A    between atoms: S_6  and  C_7
REMARK    6  A    between atoms: C_10  and  C_11
REMARK    7  A    between atoms: N_17  and  C_18
REMARK    8  A    between atoms: C_18  and  C_19
REMARK    9  A    between atoms: C_19  and  C_20
REMARK                            x       y       z     vdW  Elec       q    Type
REMARK                         _______ _______ _______ _____ _____    ______ ____
ROOT
ATOM      1  C   UNL     1       5.781   5.053  15.950  0.00  0.00    +0.000 A 
ATOM      2  N   UNL     1       6.442   6.169  16.126  0.00  0.00    +0.000 NA
ATOM      3  N   UNL     1       5.737   6.945  17.010  0.00  0.00    +0.000 NA
ATOM      4  C   UNL     1       4.653   6.289  17.388  0.00  0.00    +0.000 A 
ATOM      5  N   UNL     1       4.649   5.053  16.732  0.00  0.00    +0.000 N 
ENDROOT
BRANCH   4   6
ATOM      6  C   UNL     1       3.609   6.854  18.262  0.00  0.00    +0.000 A 
ATOM      7  C   UNL     1       3.203   6.294  19.478  0.00  0.00    +0.000 A 
ATOM      8  C   UNL     1       2.134   6.832  20.195  0.00  0.00    +0.000 A 
ATOM      9  C   UNL     1       1.519   7.965  19.700  0.00  0.00    +0.000 A 
ATOM     10  N   UNL     1       1.910   8.584  18.568  0.00  0.00    +0.000 NA
ATOM     11  C   UNL     1       2.943   8.020  17.885  0.00  0.00    +0.000 A 
ENDBRANCH   4   6
BRANCH   1  12
ATOM     12  S   UNL     1       6.261   3.781  14.880  0.00  0.00    +0.000 S 
BRANCH  12  13
ATOM     13  C   UNL     1       6.601   4.634  13.313  0.00  0.00    +0.000 C 
BRANCH  13  14
ATOM     14  C   UNL     1       6.864   3.570  12.245  0.00  0.00    +0.000 C 
BRANCH  14  16
ATOM     15  O   UNL     1       4.500   3.369  11.736  0.00  0.00    +0.000 OA
ATOM     16  C   UNL     1       5.598   2.853  11.858  0.00  0.00    +0.000 C 
BRANCH  16  17
ATOM     17  O   UNL     1       5.795   1.525  11.652  0.00  0.00    +0.000 OA
ATOM     18  H   UNL     1       5.794   1.265  10.709  0.00  0.00    +0.000 HD
ENDBRANCH  16  17
ENDBRANCH  14  16
ENDBRANCH  13  14
ENDBRANCH  12  13
ENDBRANCH   1  12
BRANCH   5  19
ATOM     19  C   UNL     1       3.586   4.077  16.878  0.00  0.00    +0.000 C 
BRANCH  19  20
ATOM     20  C   UNL     1       3.759   2.809  17.709  0.00  0.00    +0.000 C 
BRANCH  20  21
ATOM     21  C   UNL     1       2.902   2.856  18.953  0.00  0.00    +0.000 A 
ATOM     22  C   UNL     1       1.525   3.092  18.843  0.00  0.00    +0.000 A 
ATOM     23  C   UNL     1       0.721   3.125  19.983  0.00  0.00    +0.000 A 
ATOM     24  C   UNL     1       1.288   2.932  21.241  0.00  0.00    +0.000 A 
ATOM     25  C   UNL     1       2.659   2.716  21.362  0.00  0.00    +0.000 A 
ATOM     26  C   UNL     1       3.467   2.681  20.224  0.00  0.00    +0.000 A 
ENDBRANCH  20  21
ENDBRANCH  19  20
ENDBRANCH   5  19
TORSDOF 9
ENDMDL
MODEL 5
REMARK VINA RESULT:      -7.6      0.594      1.144
REMARK  Name = 
REMARK  9 active torsions:
REMARK  status: ('A' for Active; 'I' for Inactive)
REMARK    1  A    between atoms: C_2  and  O_3
REMARK    2  A    between atoms: C_2  and  C_4
REMARK    3  A    between atoms: C_4  and  C_5
REMARK    4  A    between atoms: C_5  and  S_6
REMARK    5  A    between atoms: S_6  and  C_7
REMARK    6  A    between atoms: C_10  and  C_11
REMARK    7  A    between atoms: N_17  and  C_18
REMARK    8  A    between atoms: C_18  and  C_19
REMARK    9  A    between atoms: C_19  and  C_20
REMARK                            x       y       z     vdW  Elec       q    Type
REMARK                         _______ _______ _______ _____ _____    ______ ____
ROOT
ATOM      1  C   UNL     1       3.563   4.617  19.891  0.00  0.00    +0.000 A 
ATOM      2  N   UNL     1       4.513   3.755  20.153  0.00  0.00    +0.000 NA
ATOM      3  N   UNL     1       5.339   3.689  19.062  0.00  0.00    +0.000 NA
ATOM      4  C   UNL     1       4.902   4.529  18.139  0.00  0.00    +0.000 A 
ATOM      5  N   UNL     1       3.758   5.159  18.642  0.00  0.00    +0.000 N 
ENDROOT
BRANCH   4   6
ATOM      6  C   UNL     1       5.488   4.657  16.793  0.00  0.00    +0.000 A 
ATOM      7  C   UNL     1       4.978   4.045  15.643  0.00  0.00    +0.000 A 
ATOM      8  C   UNL     1       5.652   4.130  14.425  0.00  0.00    +0.000 A 
ATOM      9  C   UNL     1       6.810   4.880  14.369  0.00  0.00    +0.000 A 
ATOM     10  N   UNL     1       7.312   5.544  15.430  0.00  0.00    +0.000 NA
ATOM     11  C   UNL     1       6.639   5.422  16.607  0.00  0.00    +0.000 A 
ENDBRANCH   4   6
BRANCH   1  12
ATOM     12  S   UNL     1       2.256   4.999  20.958  0.00  0.00    +0.000 S 
BRANCH  12  13
ATOM     13  C   UNL     1       0.845   4.094  20.260  0.00  0.00    +0.000 C 
BRANCH  13  14
ATOM     14  C   UNL     1       1.188   2.602  20.272  0.00  0.00    +0.000 C 
BRANCH  14  16
ATOM     15  O   UNL     1       0.306   1.924  18.116  0.00  0.00    +0.000 OA
ATOM     16  C   UNL     1       1.252   2.041  18.876  0.00  0.00    +0.000 C 
BRANCH  16  17
ATOM     17  O   UNL     1       2.507   1.659  18.527  0.00  0.00    +0.000 OA
ATOM     18  H   UNL     1       2.876   2.151  17.767  0.00  0.00    +0.000 HD
ENDBRANCH  16  17
ENDBRANCH  14  16
ENDBRANCH  13  14
ENDBRANCH  12  13
ENDBRANCH   1  12
BRANCH   5  19
ATOM     19  C   UNL     1       2.983   6.125  17.886  0.00  0.00    +0.000 C 
BRANCH  19  20
ATOM     20  C   UNL     1       3.302   7.617  17.911  0.00  0.00    +0.000 C 
BRANCH  20  21
ATOM     21  C   UNL     1       2.175   8.402  18.541  0.00  0.00    +0.000 A 
ATOM     22  C   UNL     1       1.414   9.281  17.759  0.00  0.00    +0.000 A 
ATOM     23  C   UNL     1       0.363  10.000  18.326  0.00  0.00    +0.000 A 
ATOM     24  C   UNL     1       0.069   9.855  19.680  0.00  0.00    +0.000 A 
ATOM     25  C   UNL     1       0.832   8.998  20.471  0.00  0.00    +0.000 A 
ATOM     26  C   UNL     1       1.884   8.275  19.907  0.00  0.00    +0.000 A 
ENDBRANCH  20  21
ENDBRANCH  19  20
ENDBRANCH   5  19
TORSDOF 9
ENDMDL
MODEL 6
REMARK VINA RESULT:      -7.5      2.620      5.146
REMARK  Name = 
REMARK  9 active torsions:
REMARK  status: ('A' for Active; 'I' for Inactive)
REMARK    1  A    between atoms: C_2  and  O_3
REMARK    2  A    between atoms: C_2  and  C_4
REMARK    3  A    between atoms: C_4  and  C_5
REMARK    4  A    between atoms: C_5  and  S_6
REMARK    5  A    between atoms: S_6  and  C_7
REMARK    6  A    between atoms: C_10  and  C_11
REMARK    7  A    between atoms: N_17  and  C_18
REMARK    8  A    between atoms: C_18  and  C_19
REMARK    9  A    between atoms: C_19  and  C_20
REMARK                            x       y       z     vdW  Elec       q    Type
REMARK                         _______ _______ _______ _____ _____    ______ ____
ROOT
ATOM      1  C   UNL     1       4.679   4.681  16.623  0.00  0.00    +0.000 A 
ATOM      2  N   UNL     1       5.084   3.436  16.633  0.00  0.00    +0.000 NA
ATOM      3  N   UNL     1       4.401   2.775  17.619  0.00  0.00    +0.000 NA
ATOM      4  C   UNL     1       3.562   3.616  18.200  0.00  0.00    +0.000 A 
ATOM      5  N   UNL     1       3.703   4.861  17.576  0.00  0.00    +0.000 N 
ENDROOT
BRANCH   4   6
ATOM      6  C   UNL     1       2.729   3.279  19.369  0.00  0.00    +0.000 A 
ATOM      7  C   UNL     1       1.330   3.301  19.380  0.00  0.00    +0.000 A 
ATOM      8  C   UNL     1       0.618   3.070  20.557  0.00  0.00    +0.000 A 
ATOM      9  C   UNL     1       1.328   2.766  21.702  0.00  0.00    +0.000 A 
ATOM     10  N   UNL     1       2.672   2.667  21.734  0.00  0.00    +0.000 NA
ATOM     11  C   UNL     1       3.335   2.918  20.572  0.00  0.00    +0.000 A 
ENDBRANCH   4   6
BRANCH   1  12
ATOM     12  S   UNL     1       5.297   5.911  15.575  0.00  0.00    +0.000 S 
BRANCH  12  13
ATOM     13  C   UNL     1       7.029   6.095  16.090  0.00  0.00    +0.000 C 
BRANCH  13  14
ATOM     14  C   UNL     1       7.050   6.305  17.606  0.00  0.00    +0.000 C 
BRANCH  14  16
ATOM     15  O   UNL     1       8.053   5.156  19.493  0.00  0.00    +0.000 OA
ATOM     16  C   UNL     1       7.766   5.183  18.308  0.00  0.00    +0.000 C 
BRANCH  16  17
ATOM     17  O   UNL     1       8.080   4.161  17.470  0.00  0.00    +0.000 OA
ATOM     18  H   UNL     1       8.842   4.346  16.886  0.00  0.00    +0.000 HD
ENDBRANCH  16  17
ENDBRANCH  14  16
ENDBRANCH  13  14
ENDBRANCH  12  13
ENDBRANCH   1  12
BRANCH   5  19
ATOM     19  C   UNL     1       2.963   6.042  17.977  0.00  0.00    +0.000 C 
BRANCH  19  20
ATOM     20  C   UNL     1       2.974   6.554  19.416  0.00  0.00    +0.000 C 
BRANCH  20  21
ATOM     21  C   UNL     1       2.063   7.750  19.571  0.00  0.00    +0.000 A 
ATOM     22  C   UNL     1       1.828   8.594  18.478  0.00  0.00    +0.000 A 
ATOM     23  C   UNL     1       0.979   9.694  18.605  0.00  0.00    +0.000 A 
ATOM     24  C   UNL     1       0.368   9.965  19.827  0.00  0.00    +0.000 A 
ATOM     25  C   UNL     1       0.612   9.143  20.926  0.00  0.00    +0.000 A 
ATOM     26  C   UNL     1       1.459   8.040  20.802  0.00  0.00    +0.000 A 
ENDBRANCH  20  21
ENDBRANCH  19  20
ENDBRANCH   5  19
TORSDOF 9
ENDMDL
MODEL 7
REMARK VINA RESULT:      -7.5      1.413      2.070
REMARK  Name = 
REMARK  9 active torsions:
REMARK  status: ('A' for Active; 'I' for Inactive)
REMARK    1  A    between atoms: C_2  and  O_3
REMARK    2  A    between atoms: C_2  and  C_4
REMARK    3  A    between atoms: C_4  and  C_5
REMARK    4  A    between atoms: C_5  and  S_6
REMARK    5  A    between atoms: S_6  and  C_7
REMARK    6  A    between atoms: C_10  and  C_11
REMARK    7  A    between atoms: N_17  and  C_18
REMARK    8  A    between atoms: C_18  and  C_19
REMARK    9  A    between atoms: C_19  and  C_20
REMARK                            x       y       z     vdW  Elec       q    Type
REMARK                         _______ _______ _______ _____ _____    ______ ____
ROOT
ATOM      1  C   UNL     1       3.342   3.404  20.377  0.00  0.00    +0.000 A 
ATOM      2  N   UNL     1       4.220   2.457  20.161  0.00  0.00    +0.000 NA
ATOM      3  N   UNL     1       5.290   3.011  19.509  0.00  0.00    +0.000 NA
ATOM      4  C   UNL     1       5.073   4.305  19.346  0.00  0.00    +0.000 A 
ATOM      5  N   UNL     1       3.824   4.603  19.905  0.00  0.00    +0.000 N 
ENDROOT
BRANCH   4   6
ATOM      6  C   UNL     1       5.969   5.207  18.600  0.00  0.00    +0.000 A 
ATOM      7  C   UNL     1       7.129   5.785  19.125  0.00  0.00    +0.000 A 
ATOM      8  C   UNL     1       7.866   6.712  18.387  0.00  0.00    +0.000 A 
ATOM      9  C   UNL     1       7.451   7.004  17.103  0.00  0.00    +0.000 A 
ATOM     10  N   UNL     1       6.379   6.428  16.524  0.00  0.00    +0.000 NA
ATOM     11  C   UNL     1       5.672   5.544  17.280  0.00  0.00    +0.000 A 
ENDBRANCH   4   6
BRANCH   1  12
ATOM     12  S   UNL     1       1.803   3.169  21.132  0.00  0.00    +0.000 S 
BRANCH  12  13
ATOM     13  C   UNL     1       0.613   3.415  19.783  0.00  0.00    +0.000 C 
BRANCH  13  14
ATOM     14  C   UNL     1       0.761   2.247  18.805  0.00  0.00    +0.000 C 
BRANCH  14  16
ATOM     15  O   UNL     1       1.889   3.470  17.039  0.00  0.00    +0.000 OA
ATOM     16  C   UNL     1       1.841   2.511  17.791  0.00  0.00    +0.000 C 
BRANCH  16  17
ATOM     17  O   UNL     1       2.796   1.546  17.785  0.00  0.00    +0.000 OA
ATOM     18  H   UNL     1       3.709   1.888  17.867  0.00  0.00    +0.000 HD
ENDBRANCH  16  17
ENDBRANCH  14  16
ENDBRANCH  13  14
ENDBRANCH  12  13
ENDBRANCH   1  12
BRANCH   5  19
ATOM     19  C   UNL     1       3.235   5.928  19.878  0.00  0.00    +0.000 C 
BRANCH  19  20
ATOM     20  C   UNL     1       2.516   6.469  18.645  0.00  0.00    +0.000 C 
BRANCH  20  21
ATOM     21  C   UNL     1       1.987   7.863  18.896  0.00  0.00    +0.000 A 
ATOM     22  C   UNL     1       2.029   8.819  17.873  0.00  0.00    +0.000 A 
ATOM     23  C   UNL     1       1.532  10.105  18.088  0.00  0.00    +0.000 A 
ATOM     24  C   UNL     1       0.998  10.447  19.328  0.00  0.00    +0.000 A 
ATOM     25  C   UNL     1       0.968   9.508  20.358  0.00  0.00    +0.000 A 
ATOM     26  C   UNL     1       1.464   8.220  20.147  0.00  0.00    +0.000 A 
ENDBRANCH  20  21
ENDBRANCH  19  20
ENDBRANCH   5  19
TORSDOF 9
ENDMDL
MODEL 8
REMARK VINA RESULT:      -7.4      2.643      5.109
REMARK  Name = 
REMARK  9 active torsions:
REMARK  status: ('A' for Active; 'I' for Inactive)
REMARK    1  A    between atoms: C_2  and  O_3
REMARK    2  A    between atoms: C_2  and  C_4
REMARK    3  A    between atoms: C_4  and  C_5
REMARK    4  A    between atoms: C_5  and  S_6
REMARK    5  A    between atoms: S_6  and  C_7
REMARK    6  A    between atoms: C_10  and  C_11
REMARK    7  A    between atoms: N_17  and  C_18
REMARK    8  A    between atoms: C_18  and  C_19
REMARK    9  A    between atoms: C_19  and  C_20
REMARK                            x       y       z     vdW  Elec       q    Type
REMARK                         _______ _______ _______ _____ _____    ______ ____
ROOT
ATOM      1  C   UNL     1       4.751   5.161  16.659  0.00  0.00    +0.000 A 
ATOM      2  N   UNL     1       4.779   3.887  16.360  0.00  0.00    +0.000 NA
ATOM      3  N   UNL     1       3.994   3.221  17.265  0.00  0.00    +0.000 NA
ATOM      4  C   UNL     1       3.469   4.096  18.106  0.00  0.00    +0.000 A 
ATOM      5  N   UNL     1       3.927   5.368  17.741  0.00  0.00    +0.000 N 
ENDROOT
BRANCH   4   6
ATOM      6  C   UNL     1       2.645   3.730  19.272  0.00  0.00    +0.000 A 
ATOM      7  C   UNL     1       2.996   3.983  20.603  0.00  0.00    +0.000 A 
ATOM      8  C   UNL     1       2.211   3.511  21.654  0.00  0.00    +0.000 A 
ATOM      9  C   UNL     1       1.048   2.832  21.349  0.00  0.00    +0.000 A 
ATOM     10  N   UNL     1       0.628   2.617  20.086  0.00  0.00    +0.000 NA
ATOM     11  C   UNL     1       1.429   3.074  19.085  0.00  0.00    +0.000 A 
ENDBRANCH   4   6
BRANCH   1  12
ATOM     12  S   UNL     1       5.633   6.391  15.822  0.00  0.00    +0.000 S 
BRANCH  12  13
ATOM     13  C   UNL     1       7.327   6.220  16.454  0.00  0.00    +0.000 C 
BRANCH  13  14
ATOM     14  C   UNL     1       7.323   6.627  17.929  0.00  0.00    +0.000 C 
BRANCH  14  16
ATOM     15  O   UNL     1       7.491   5.460  20.050  0.00  0.00    +0.000 OA
ATOM     16  C   UNL     1       7.477   5.432  18.831  0.00  0.00    +0.000 C 
BRANCH  16  17
ATOM     17  O   UNL     1       7.606   4.271  18.138  0.00  0.00    +0.000 OA
ATOM     18  H   UNL     1       7.320   4.330  17.205  0.00  0.00    +0.000 HD
ENDBRANCH  16  17
ENDBRANCH  14  16
ENDBRANCH  13  14
ENDBRANCH  12  13
ENDBRANCH   1  12
BRANCH   5  19
ATOM     19  C   UNL     1       3.584   6.576  18.467  0.00  0.00    +0.000 C 
BRANCH  19  20
ATOM     20  C   UNL     1       2.618   7.613  17.901  0.00  0.00    +0.000 C 
BRANCH  20  21
ATOM     21  C   UNL     1       1.856   8.304  19.009  0.00  0.00    +0.000 A 
ATOM     22  C   UNL     1       1.781   7.714  20.277  0.00  0.00    +0.000 A 
ATOM     23  C   UNL     1       1.092   8.348  21.311  0.00  0.00    +0.000 A 
ATOM     24  C   UNL     1       0.464   9.571  21.083  0.00  0.00    +0.000 A 
ATOM     25  C   UNL     1       0.516  10.156  19.820  0.00  0.00    +0.000 A 
ATOM     26  C   UNL     1       1.206   9.526  18.783  0.00  0.00    +0.000 A 
ENDBRANCH  20  21
ENDBRANCH  19  20
ENDBRANCH   5  19
TORSDOF 9
ENDMDL
MODEL 9
REMARK VINA RESULT:      -7.4      1.967      2.690
REMARK  Name = 
REMARK  9 active torsions:
REMARK  status: ('A' for Active; 'I' for Inactive)
REMARK    1  A    between atoms: C_2  and  O_3
REMARK    2  A    between atoms: C_2  and  C_4
REMARK    3  A    between atoms: C_4  and  C_5
REMARK    4  A    between atoms: C_5  and  S_6
REMARK    5  A    between atoms: S_6  and  C_7
REMARK    6  A    between atoms: C_10  and  C_11
REMARK    7  A    between atoms: N_17  and  C_18
REMARK    8  A    between atoms: C_18  and  C_19
REMARK    9  A    between atoms: C_19  and  C_20
REMARK                            x       y       z     vdW  Elec       q    Type
REMARK                         _______ _______ _______ _____ _____    ______ ____
ROOT
ATOM      1  C   UNL     1       2.908   4.121  17.724  0.00  0.00    +0.000 A 
ATOM      2  N   UNL     1       3.716   3.233  17.201  0.00  0.00    +0.000 NA
ATOM      3  N   UNL     1       4.987   3.746  17.232  0.00  0.00    +0.000 NA
ATOM      4  C   UNL     1       4.955   4.942  17.794  0.00  0.00    +0.000 A 
ATOM      5  N   UNL     1       3.626   5.218  18.138  0.00  0.00    +0.000 N 
ENDROOT
BRANCH   4   6
ATOM      6  C   UNL     1       6.124   5.833  17.911  0.00  0.00    +0.000 A 
ATOM      7  C   UNL     1       7.137   5.691  18.865  0.00  0.00    +0.000 A 
ATOM      8  C   UNL     1       8.155   6.638  18.977  0.00  0.00    +0.000 A 
ATOM      9  C   UNL     1       8.169   7.692  18.084  0.00  0.00    +0.000 A 
ATOM     10  N   UNL     1       7.255   7.842  17.104  0.00  0.00    +0.000 NA
ATOM     11  C   UNL     1       6.265   6.911  17.038  0.00  0.00    +0.000 A 
ENDBRANCH   4   6
BRANCH   1  12
ATOM     12  S   UNL     1       1.193   3.936  17.856  0.00  0.00    +0.000 S 
BRANCH  12  13
ATOM     13  C   UNL     1       0.933   3.518  19.605  0.00  0.00    +0.000 C 
BRANCH  13  14
ATOM     14  C   UNL     1       1.729   2.247  19.910  0.00  0.00    +0.000 C 
BRANCH  14  16
ATOM     15  O   UNL     1       2.695   2.738  22.080  0.00  0.00    +0.000 OA
ATOM     16  C   UNL     1       2.839   2.515  20.891  0.00  0.00    +0.000 C 
BRANCH  16  17
ATOM     17  O   UNL     1       4.065   2.487  20.308  0.00  0.00    +0.000 OA
ATOM     18  H   UNL     1       4.802   2.357  20.937  0.00  0.00    +0.000 HD
ENDBRANCH  16  17
ENDBRANCH  14  16
ENDBRANCH  13  14
ENDBRANCH  12  13
ENDBRANCH   1  12
BRANCH   5  19
ATOM     19  C   UNL     1       3.203   6.466  18.746  0.00  0.00    +0.000 C 
BRANCH  19  20
ATOM     20  C   UNL     1       2.754   7.662  17.910  0.00  0.00    +0.000 C 
BRANCH  20  21
ATOM     21  C   UNL     1       1.780   8.524  18.680  0.00  0.00    +0.000 A 
ATOM     22  C   UNL     1       1.084   9.547  18.022  0.00  0.00    +0.000 A 
ATOM     23  C   UNL     1       0.173  10.341  18.719  0.00  0.00    +0.000 A 
ATOM     24  C   UNL     1      -0.042  10.127  20.078  0.00  0.00    +0.000 A 
ATOM     25  C   UNL     1       0.660   9.124  20.745  0.00  0.00    +0.000 A 
ATOM     26  C   UNL     1       1.572   8.327  20.052  0.00  0.00    +0.000 A 
ENDBRANCH  20  21
ENDBRANCH  19  20
ENDBRANCH   5  19
TORSDOF 9
ENDMDL
