MODEL 1
REMARK VINA RESULT:      -7.2      0.000      0.000
REMARK  Name = 
REMARK  3 active torsions:
REMARK  status: ('A' for Active; 'I' for Inactive)
REMARK    1  A    between atoms: C_1  and  S_2
REMARK    2  A    between atoms: S_2  and  N_5
REMARK    3  A    between atoms: N_5  and  N_6
REMARK                            x       y       z     vdW  Elec       q    Type
REMARK                         _______ _______ _______ _____ _____    ______ ____
ROOT
ATOM      1  N   UNL     1       3.713   3.076  18.640  0.00  0.00    +0.000 N 
ATOM      2  C   UNL     1       4.739   3.007  19.583  0.00  0.00    +0.000 A 
ATOM      3  O   UNL     1       4.805   2.198  20.505  0.00  0.00    +0.000 OA
ATOM      4  N   UNL     1       5.776   3.892  19.379  0.00  0.00    +0.000 N 
ATOM      5  C   UNL     1       5.844   4.798  18.312  0.00  0.00    +0.000 A 
ATOM      6  C   UNL     1       6.914   5.690  18.175  0.00  0.00    +0.000 A 
ATOM      7 CL   UNL     1       8.224   5.691  19.299  0.00  0.00    +0.000 Cl
ATOM      8  C   UNL     1       6.947   6.594  17.108  0.00  0.00    +0.000 A 
ATOM      9  C   UNL     1       5.914   6.611  16.169  0.00  0.00    +0.000 A 
ATOM     10  C   UNL     1       4.855   5.712  16.287  0.00  0.00    +0.000 A 
ATOM     11  C   UNL     1       4.831   4.807  17.354  0.00  0.00    +0.000 A 
ATOM     12  C   UNL     1       3.740   3.828  17.471  0.00  0.00    +0.000 A 
ATOM     13  O   UNL     1       2.924   3.676  16.560  0.00  0.00    +0.000 OA
ATOM     14  H   UNL     1       6.529   3.858  20.061  0.00  0.00    +0.000 HD
ENDROOT
BRANCH   1  15
ATOM     15  N   UNL     1       2.549   2.141  18.744  0.00  0.00    +0.000 N 
ATOM     16  H   UNL     1       2.259   1.926  17.778  0.00  0.00    +0.000 HD
BRANCH  15  18
ATOM     17  C   UNL     1       1.452   2.453  21.168  0.00  0.00    +0.000 C 
ATOM     18  S   UNL     1       1.191   2.899  19.466  0.00  0.00    +0.000 S 
ATOM     19  O   UNL     1       0.024   2.190  18.989  0.00  0.00    +0.000 OA
ATOM     20  O   UNL     1       1.304   4.333  19.332  0.00  0.00    +0.000 OA
ENDBRANCH  15  18
ENDBRANCH   1  15
TORSDOF 2
ENDMDL
MODEL 2
REMARK VINA RESULT:      -7.0      0.883      1.055
REMARK  Name = 
REMARK  3 active torsions:
REMARK  status: ('A' for Active; 'I' for Inactive)
REMARK    1  A    between atoms: C_1  and  S_2
REMARK    2  A    between atoms: S_2  and  N_5
REMARK    3  A    between atoms: N_5  and  N_6
REMARK                            x       y       z     vdW  Elec       q    Type
REMARK                         _______ _______ _______ _____ _____    ______ ____
ROOT
ATOM      1  N   UNL     1       3.628   2.831  18.613  0.00  0.00    +0.000 N 
ATOM      2  C   UNL     1       4.647   2.848  19.566  0.00  0.00    +0.000 A 
ATOM      3  O   UNL     1       4.723   2.105  20.541  0.00  0.00    +0.000 OA
ATOM      4  N   UNL     1       5.668   3.739  19.310  0.00  0.00    +0.000 N 
ATOM      5  C   UNL     1       5.725   4.573  18.185  0.00  0.00    +0.000 A 
ATOM      6  C   UNL     1       6.777   5.476  17.996  0.00  0.00    +0.000 A 
ATOM      7 CL   UNL     1       8.078   5.582  19.126  0.00  0.00    +0.000 Cl
ATOM      8  C   UNL     1       6.801   6.308  16.870  0.00  0.00    +0.000 A 
ATOM      9  C   UNL     1       5.775   6.239  15.925  0.00  0.00    +0.000 A 
ATOM     10  C   UNL     1       4.735   5.327  16.095  0.00  0.00    +0.000 A 
ATOM     11  C   UNL     1       4.720   4.496  17.221  0.00  0.00    +0.000 A 
ATOM     12  C   UNL     1       3.649   3.503  17.397  0.00  0.00    +0.000 A 
ATOM     13  O   UNL     1       2.844   3.272  16.492  0.00  0.00    +0.000 OA
ATOM     14  H   UNL     1       6.415   3.768  19.998  0.00  0.00    +0.000 HD
ENDROOT
BRANCH   1  15
ATOM     15  N   UNL     1       2.484   1.880  18.771  0.00  0.00    +0.000 N 
ATOM     16  H   UNL     1       2.108   1.713  17.826  0.00  0.00    +0.000 HD
BRANCH  15  18
ATOM     17  C   UNL     1       1.597   4.309  19.475  0.00  0.00    +0.000 C 
ATOM     18  S   UNL     1       1.192   2.585  19.653  0.00  0.00    +0.000 S 
ATOM     19  O   UNL     1       1.392   2.217  21.037  0.00  0.00    +0.000 OA
ATOM     20  O   UNL     1      -0.059   2.323  18.979  0.00  0.00    +0.000 OA
ENDBRANCH  15  18
ENDBRANCH   1  15
TORSDOF 2
ENDMDL
MODEL 3
REMARK VINA RESULT:      -6.9      4.120      4.516
REMARK  Name = 
REMARK  3 active torsions:
REMARK  status: ('A' for Active; 'I' for Inactive)
REMARK    1  A    between atoms: C_1  and  S_2
REMARK    2  A    between atoms: S_2  and  N_5
REMARK    3  A    between atoms: N_5  and  N_6
REMARK                            x       y       z     vdW  Elec       q    Type
REMARK                         _______ _______ _______ _____ _____    ______ ____
ROOT
ATOM      1  N   UNL     1       2.930   5.156  19.403  0.00  0.00    +0.000 N 
ATOM      2  C   UNL     1       2.317   5.327  20.644  0.00  0.00    +0.000 A 
ATOM      3  O   UNL     1       2.310   4.501  21.554  0.00  0.00    +0.000 OA
ATOM      4  N   UNL     1       1.750   6.567  20.847  0.00  0.00    +0.000 N 
ATOM      5  C   UNL     1       1.776   7.610  19.911  0.00  0.00    +0.000 A 
ATOM      6  C   UNL     1       1.158   8.839  20.168  0.00  0.00    +0.000 A 
ATOM      7 CL   UNL     1       0.362   9.142  21.670  0.00  0.00    +0.000 Cl
ATOM      8  C   UNL     1       1.186   9.858  19.209  0.00  0.00    +0.000 A 
ATOM      9  C   UNL     1       1.836   9.656  17.989  0.00  0.00    +0.000 A 
ATOM     10  C   UNL     1       2.471   8.442  17.734  0.00  0.00    +0.000 A 
ATOM     11  C   UNL     1       2.443   7.430  18.700  0.00  0.00    +0.000 A 
ATOM     12  C   UNL     1       3.140   6.157  18.461  0.00  0.00    +0.000 A 
ATOM     13  O   UNL     1       3.889   6.016  17.493  0.00  0.00    +0.000 OA
ATOM     14  H   UNL     1       1.295   6.705  21.745  0.00  0.00    +0.000 HD
ENDROOT
BRANCH   1  15
ATOM     15  N   UNL     1       3.606   3.859  19.084  0.00  0.00    +0.000 N 
ATOM     16  H   UNL     1       4.310   4.066  18.358  0.00  0.00    +0.000 HD
BRANCH  15  18
ATOM     17  C   UNL     1       3.644   1.405  18.010  0.00  0.00    +0.000 C 
ATOM     18  S   UNL     1       2.524   2.743  18.360  0.00  0.00    +0.000 S 
ATOM     19  O   UNL     1       2.114   3.327  17.102  0.00  0.00    +0.000 OA
ATOM     20  O   UNL     1       1.553   2.302  19.335  0.00  0.00    +0.000 OA
ENDBRANCH  15  18
ENDBRANCH   1  15
TORSDOF 2
ENDMDL
MODEL 4
REMARK VINA RESULT:      -6.8      3.398      5.371
REMARK  Name = 
REMARK  3 active torsions:
REMARK  status: ('A' for Active; 'I' for Inactive)
REMARK    1  A    between atoms: C_1  and  S_2
REMARK    2  A    between atoms: S_2  and  N_5
REMARK    3  A    between atoms: N_5  and  N_6
REMARK                            x       y       z     vdW  Elec       q    Type
REMARK                         _______ _______ _______ _____ _____    ______ ____
ROOT
ATOM      1  N   UNL     1       5.216   4.259  17.746  0.00  0.00    +0.000 N 
ATOM      2  C   UNL     1       5.180   5.428  18.507  0.00  0.00    +0.000 A 
ATOM      3  O   UNL     1       6.024   6.320  18.483  0.00  0.00    +0.000 OA
ATOM      4  N   UNL     1       4.049   5.584  19.280  0.00  0.00    +0.000 N 
ATOM      5  C   UNL     1       2.986   4.670  19.318  0.00  0.00    +0.000 A 
ATOM      6  C   UNL     1       1.876   4.874  20.145  0.00  0.00    +0.000 A 
ATOM      7 CL   UNL     1       1.745   6.282  21.135  0.00  0.00    +0.000 Cl
ATOM      8  C   UNL     1       0.836   3.938  20.174  0.00  0.00    +0.000 A 
ATOM      9  C   UNL     1       0.898   2.794  19.374  0.00  0.00    +0.000 A 
ATOM     10  C   UNL     1       1.991   2.595  18.533  0.00  0.00    +0.000 A 
ATOM     11  C   UNL     1       3.025   3.538  18.506  0.00  0.00    +0.000 A 
ATOM     12  C   UNL     1       4.167   3.360  17.596  0.00  0.00    +0.000 A 
ATOM     13  O   UNL     1       4.161   2.478  16.735  0.00  0.00    +0.000 OA
ATOM     14  H   UNL     1       4.010   6.427  19.844  0.00  0.00    +0.000 HD
ENDROOT
BRANCH   1  15
ATOM     15  N   UNL     1       6.383   3.999  16.845  0.00  0.00    +0.000 N 
ATOM     16  H   UNL     1       7.226   4.278  17.369  0.00  0.00    +0.000 HD
BRANCH  15  18
ATOM     17  C   UNL     1       6.302   3.786  14.175  0.00  0.00    +0.000 C 
ATOM     18  S   UNL     1       6.353   5.013  15.462  0.00  0.00    +0.000 S 
ATOM     19  O   UNL     1       7.641   5.669  15.408  0.00  0.00    +0.000 OA
ATOM     20  O   UNL     1       5.123   5.772  15.440  0.00  0.00    +0.000 OA
ENDBRANCH  15  18
ENDBRANCH   1  15
TORSDOF 2
ENDMDL
MODEL 5
REMARK VINA RESULT:      -6.7      3.482      5.621
REMARK  Name = 
REMARK  3 active torsions:
REMARK  status: ('A' for Active; 'I' for Inactive)
REMARK    1  A    between atoms: C_1  and  S_2
REMARK    2  A    between atoms: S_2  and  N_5
REMARK    3  A    between atoms: N_5  and  N_6
REMARK                            x       y       z     vdW  Elec       q    Type
REMARK                         _______ _______ _______ _____ _____    ______ ____
ROOT
ATOM      1  N   UNL     1       4.425   5.150  17.426  0.00  0.00    +0.000 N 
ATOM      2  C   UNL     1       3.933   6.370  17.890  0.00  0.00    +0.000 A 
ATOM      3  O   UNL     1       4.227   7.474  17.439  0.00  0.00    +0.000 OA
ATOM      4  N   UNL     1       2.987   6.274  18.888  0.00  0.00    +0.000 N 
ATOM      5  C   UNL     1       2.516   5.064  19.417  0.00  0.00    +0.000 A 
ATOM      6  C   UNL     1       1.572   5.035  20.449  0.00  0.00    +0.000 A 
ATOM      7 CL   UNL     1       0.914   6.492  21.100  0.00  0.00    +0.000 Cl
ATOM      8  C   UNL     1       1.130   3.812  20.968  0.00  0.00    +0.000 A 
ATOM      9  C   UNL     1       1.627   2.612  20.455  0.00  0.00    +0.000 A 
ATOM     10  C   UNL     1       2.551   2.633  19.413  0.00  0.00    +0.000 A 
ATOM     11  C   UNL     1       2.985   3.859  18.896  0.00  0.00    +0.000 A 
ATOM     12  C   UNL     1       3.932   3.897  17.771  0.00  0.00    +0.000 A 
ATOM     13  O   UNL     1       4.234   2.869  17.162  0.00  0.00    +0.000 OA
ATOM     14  H   UNL     1       2.623   7.155  19.241  0.00  0.00    +0.000 HD
ENDROOT
BRANCH   1  15
ATOM     15  N   UNL     1       5.434   5.131  16.321  0.00  0.00    +0.000 N 
ATOM     16  H   UNL     1       5.287   4.251  15.805  0.00  0.00    +0.000 HD
BRANCH  15  18
ATOM     17  C   UNL     1       7.394   6.770  17.128  0.00  0.00    +0.000 C 
ATOM     18  S   UNL     1       7.035   5.039  16.928  0.00  0.00    +0.000 S 
ATOM     19  O   UNL     1       7.854   4.532  15.849  0.00  0.00    +0.000 OA
ATOM     20  O   UNL     1       7.029   4.406  18.227  0.00  0.00    +0.000 OA
ENDBRANCH  15  18
ENDBRANCH   1  15
TORSDOF 2
ENDMDL
MODEL 6
REMARK VINA RESULT:      -6.6      3.748      5.657
REMARK  Name = 
REMARK  3 active torsions:
REMARK  status: ('A' for Active; 'I' for Inactive)
REMARK    1  A    between atoms: C_1  and  S_2
REMARK    2  A    between atoms: S_2  and  N_5
REMARK    3  A    between atoms: N_5  and  N_6
REMARK                            x       y       z     vdW  Elec       q    Type
REMARK                         _______ _______ _______ _____ _____    ______ ____
ROOT
ATOM      1  N   UNL     1       4.586   5.464  17.051  0.00  0.00    +0.000 N 
ATOM      2  C   UNL     1       3.768   6.320  17.790  0.00  0.00    +0.000 A 
ATOM      3  O   UNL     1       3.785   7.547  17.733  0.00  0.00    +0.000 OA
ATOM      4  N   UNL     1       2.830   5.690  18.580  0.00  0.00    +0.000 N 
ATOM      5  C   UNL     1       2.667   4.299  18.655  0.00  0.00    +0.000 A 
ATOM      6  C   UNL     1       1.712   3.719  19.498  0.00  0.00    +0.000 A 
ATOM      7 CL   UNL     1       0.662   4.693  20.462  0.00  0.00    +0.000 Cl
ATOM      8  C   UNL     1       1.581   2.328  19.564  0.00  0.00    +0.000 A 
ATOM      9  C   UNL     1       2.401   1.507  18.787  0.00  0.00    +0.000 A 
ATOM     10  C   UNL     1       3.340   2.078  17.930  0.00  0.00    +0.000 A 
ATOM     11  C   UNL     1       3.462   3.471  17.865  0.00  0.00    +0.000 A 
ATOM     12  C   UNL     1       4.423   4.089  16.939  0.00  0.00    +0.000 A 
ATOM     13  O   UNL     1       5.016   3.413  16.096  0.00  0.00    +0.000 OA
ATOM     14  H   UNL     1       2.230   6.299  19.128  0.00  0.00    +0.000 HD
ENDROOT
BRANCH   1  15
ATOM     15  N   UNL     1       5.621   6.039  16.135  0.00  0.00    +0.000 N 
ATOM     16  H   UNL     1       5.641   5.434  15.300  0.00  0.00    +0.000 HD
BRANCH  15  18
ATOM     17  C   UNL     1       6.784   5.759  18.533  0.00  0.00    +0.000 C 
ATOM     18  S   UNL     1       7.194   5.933  16.810  0.00  0.00    +0.000 S 
ATOM     19  O   UNL     1       7.809   7.228  16.623  0.00  0.00    +0.000 OA
ATOM     20  O   UNL     1       7.839   4.723  16.354  0.00  0.00    +0.000 OA
ENDBRANCH  15  18
ENDBRANCH   1  15
TORSDOF 2
ENDMDL
MODEL 7
REMARK VINA RESULT:      -6.6      3.435      5.332
REMARK  Name = 
REMARK  3 active torsions:
REMARK  status: ('A' for Active; 'I' for Inactive)
REMARK    1  A    between atoms: C_1  and  S_2
REMARK    2  A    between atoms: S_2  and  N_5
REMARK    3  A    between atoms: N_5  and  N_6
REMARK                            x       y       z     vdW  Elec       q    Type
REMARK                         _______ _______ _______ _____ _____    ______ ____
ROOT
ATOM      1  N   UNL     1       5.593   4.090  17.905  0.00  0.00    +0.000 N 
ATOM      2  C   UNL     1       5.612   4.673  19.172  0.00  0.00    +0.000 A 
ATOM      3  O   UNL     1       6.515   5.377  19.618  0.00  0.00    +0.000 OA
ATOM      4  N   UNL     1       4.472   4.475  19.921  0.00  0.00    +0.000 N 
ATOM      5  C   UNL     1       3.350   3.761  19.478  0.00  0.00    +0.000 A 
ATOM      6  C   UNL     1       2.232   3.572  20.298  0.00  0.00    +0.000 A 
ATOM      7 CL   UNL     1       2.167   4.243  21.888  0.00  0.00    +0.000 Cl
ATOM      8  C   UNL     1       1.131   2.842  19.835  0.00  0.00    +0.000 A 
ATOM      9  C   UNL     1       1.140   2.299  18.548  0.00  0.00    +0.000 A 
ATOM     10  C   UNL     1       2.242   2.500  17.718  0.00  0.00    +0.000 A 
ATOM     11  C   UNL     1       3.337   3.235  18.187  0.00  0.00    +0.000 A 
ATOM     12  C   UNL     1       4.491   3.487  17.310  0.00  0.00    +0.000 A 
ATOM     13  O   UNL     1       4.451   3.202  16.112  0.00  0.00    +0.000 OA
ATOM     14  H   UNL     1       4.473   4.888  20.849  0.00  0.00    +0.000 HD
ENDROOT
BRANCH   1  15
ATOM     15  N   UNL     1       6.766   4.266  16.992  0.00  0.00    +0.000 N 
ATOM     16  H   UNL     1       7.589   4.409  17.596  0.00  0.00    +0.000 HD
BRANCH  15  18
ATOM     17  C   UNL     1       6.925   5.044  14.433  0.00  0.00    +0.000 C 
ATOM     18  S   UNL     1       6.633   5.700  16.060  0.00  0.00    +0.000 S 
ATOM     19  O   UNL     1       7.762   6.529  16.421  0.00  0.00    +0.000 OA
ATOM     20  O   UNL     1       5.280   6.203  16.130  0.00  0.00    +0.000 OA
ENDBRANCH  15  18
ENDBRANCH   1  15
TORSDOF 2
ENDMDL
MODEL 8
REMARK VINA RESULT:      -6.6      3.796      5.729
REMARK  Name = 
REMARK  3 active torsions:
REMARK  status: ('A' for Active; 'I' for Inactive)
REMARK    1  A    between atoms: C_1  and  S_2
REMARK    2  A    between atoms: S_2  and  N_5
REMARK    3  A    between atoms: N_5  and  N_6
REMARK                            x       y       z     vdW  Elec       q    Type
REMARK                         _______ _______ _______ _____ _____    ______ ____
ROOT
ATOM      1  N   UNL     1       4.386   5.895  17.294  0.00  0.00    +0.000 N 
ATOM      2  C   UNL     1       3.460   6.537  18.117  0.00  0.00    +0.000 A 
ATOM      3  O   UNL     1       3.322   7.754  18.219  0.00  0.00    +0.000 OA
ATOM      4  N   UNL     1       2.604   5.697  18.797  0.00  0.00    +0.000 N 
ATOM      5  C   UNL     1       2.618   4.299  18.688  0.00  0.00    +0.000 A 
ATOM      6  C   UNL     1       1.738   3.499  19.426  0.00  0.00    +0.000 A 
ATOM      7 CL   UNL     1       0.566   4.200  20.482  0.00  0.00    +0.000 Cl
ATOM      8  C   UNL     1       1.784   2.105  19.309  0.00  0.00    +0.000 A 
ATOM      9  C   UNL     1       2.707   1.503  18.451  0.00  0.00    +0.000 A 
ATOM     10  C   UNL     1       3.572   2.293  17.698  0.00  0.00    +0.000 A 
ATOM     11  C   UNL     1       3.517   3.687  17.816  0.00  0.00    +0.000 A 
ATOM     12  C   UNL     1       4.399   4.536  17.000  0.00  0.00    +0.000 A 
ATOM     13  O   UNL     1       5.078   4.056  16.092  0.00  0.00    +0.000 OA
ATOM     14  H   UNL     1       1.928   6.149  19.404  0.00  0.00    +0.000 HD
ENDROOT
BRANCH   1  15
ATOM     15  N   UNL     1       5.345   6.709  16.484  0.00  0.00    +0.000 N 
ATOM     16  H   UNL     1       5.350   6.300  15.537  0.00  0.00    +0.000 HD
BRANCH  15  18
ATOM     17  C   UNL     1       7.332   8.245  17.418  0.00  0.00    +0.000 C 
ATOM     18  S   UNL     1       6.954   6.544  17.056  0.00  0.00    +0.000 S 
ATOM     19  O   UNL     1       7.753   6.138  15.921  0.00  0.00    +0.000 OA
ATOM     20  O   UNL     1       6.959   5.787  18.287  0.00  0.00    +0.000 OA
ENDBRANCH  15  18
ENDBRANCH   1  15
TORSDOF 2
ENDMDL
MODEL 9
REMARK VINA RESULT:      -6.6      4.613      5.261
REMARK  Name = 
REMARK  3 active torsions:
REMARK  status: ('A' for Active; 'I' for Inactive)
REMARK    1  A    between atoms: C_1  and  S_2
REMARK    2  A    between atoms: S_2  and  N_5
REMARK    3  A    between atoms: N_5  and  N_6
REMARK                            x       y       z     vdW  Elec       q    Type
REMARK                         _______ _______ _______ _____ _____    ______ ____
ROOT
ATOM      1  N   UNL     1       2.876   5.722  18.955  0.00  0.00    +0.000 N 
ATOM      2  C   UNL     1       2.369   5.619  20.251  0.00  0.00    +0.000 A 
ATOM      3  O   UNL     1       2.490   4.643  20.987  0.00  0.00    +0.000 OA
ATOM      4  N   UNL     1       1.755   6.758  20.728  0.00  0.00    +0.000 N 
ATOM      5  C   UNL     1       1.637   7.953  20.005  0.00  0.00    +0.000 A 
ATOM      6  C   UNL     1       0.977   9.067  20.536  0.00  0.00    +0.000 A 
ATOM      7 CL   UNL     1       0.304   9.033  22.126  0.00  0.00    +0.000 Cl
ATOM      8  C   UNL     1       0.862  10.243  19.787  0.00  0.00    +0.000 A 
ATOM      9  C   UNL     1       1.409  10.315  18.504  0.00  0.00    +0.000 A 
ATOM     10  C   UNL     1       2.086   9.217  17.976  0.00  0.00    +0.000 A 
ATOM     11  C   UNL     1       2.201   8.045  18.734  0.00  0.00    +0.000 A 
ATOM     12  C   UNL     1       2.944   6.891  18.206  0.00  0.00    +0.000 A 
ATOM     13  O   UNL     1       3.609   6.984  17.173  0.00  0.00    +0.000 OA
ATOM     14  H   UNL     1       1.375   6.697  21.668  0.00  0.00    +0.000 HD
ENDROOT
BRANCH   1  15
ATOM     15  N   UNL     1       3.592   4.558  18.347  0.00  0.00    +0.000 N 
ATOM     16  H   UNL     1       3.105   3.710  18.675  0.00  0.00    +0.000 HD
BRANCH  15  18
ATOM     17  C   UNL     1       6.092   4.346  17.408  0.00  0.00    +0.000 C 
ATOM     18  S   UNL     1       5.194   4.418  18.942  0.00  0.00    +0.000 S 
ATOM     19  O   UNL     1       5.283   3.121  19.577  0.00  0.00    +0.000 OA
ATOM     20  O   UNL     1       5.560   5.625  19.646  0.00  0.00    +0.000 OA
ENDBRANCH  15  18
ENDBRANCH   1  15
TORSDOF 2
ENDMDL
