MODEL 1
REMARK VINA RESULT:      -6.8      0.000      0.000
REMARK  Name = 
REMARK  4 active torsions:
REMARK  status: ('A' for Active; 'I' for Inactive)
REMARK    1  A    between atoms: C_1  and  C_2
REMARK    2  A    between atoms: C_2  and  O_3
REMARK    3  A    between atoms: C_2  and  C_14
REMARK    4  A    between atoms: O_3  and  C_4
REMARK                            x       y       z     vdW  Elec       q    Type
REMARK                         _______ _______ _______ _____ _____    ______ ____
ROOT
ATOM      1  C   UNL     1       3.885   3.937  17.439  0.00  0.00    +0.000 A 
ATOM      2  C   UNL     1       3.791   2.546  17.461  0.00  0.00    +0.000 A 
ATOM      3  N   UNL     1       3.150   1.835  18.416  0.00  0.00    +0.000 NA
ATOM      4  C   UNL     1       2.562   2.550  19.400  0.00  0.00    +0.000 A 
ATOM      5  C   UNL     1       2.532   3.942  19.457  0.00  0.00    +0.000 A 
ATOM      6  C   UNL     1       1.906   4.634  20.510  0.00  0.00    +0.000 A 
ATOM      7  C   UNL     1       1.862   6.024  20.524  0.00  0.00    +0.000 A 
ATOM      8  C   UNL     1       2.428   6.743  19.477  0.00  0.00    +0.000 A 
ATOM      9  C   UNL     1       3.086   6.071  18.443  0.00  0.00    +0.000 A 
ATOM     10  C   UNL     1       3.173   4.662  18.422  0.00  0.00    +0.000 A 
ENDROOT
BRANCH   1  11
ATOM     11  O   UNL     1       4.664   4.645  16.552  0.00  0.00    +0.000 OA
BRANCH  11  13
ATOM     12  C   UNL     1       6.979   5.197  17.238  0.00  0.00    +0.000 C 
ATOM     13  C   UNL     1       6.044   4.253  16.472  0.00  0.00    +0.000 C 
BRANCH  13  14
ATOM     14  C   UNL     1       6.518   4.337  15.021  0.00  0.00    +0.000 C 
ATOM     15  N   UNL     1       7.472   5.164  14.668  0.00  0.00    +0.000 NA
ATOM     16  C   UNL     1       7.510   5.057  13.181  0.00  0.00    +0.000 C 
ATOM     17  C   UNL     1       6.700   3.810  12.813  0.00  0.00    +0.000 C 
ATOM     18  N   UNL     1       5.916   3.627  14.010  0.00  0.00    +0.000 N 
ATOM     19  H   UNL     1       5.582   2.698  14.244  0.00  0.00    +0.000 HD
ENDBRANCH  13  14
ENDBRANCH  11  13
ENDBRANCH   1  11
TORSDOF 3
ENDMDL
MODEL 2
REMARK VINA RESULT:      -6.8      1.736      2.880
REMARK  Name = 
REMARK  4 active torsions:
REMARK  status: ('A' for Active; 'I' for Inactive)
REMARK    1  A    between atoms: C_1  and  C_2
REMARK    2  A    between atoms: C_2  and  O_3
REMARK    3  A    between atoms: C_2  and  C_14
REMARK    4  A    between atoms: O_3  and  C_4
REMARK                            x       y       z     vdW  Elec       q    Type
REMARK                         _______ _______ _______ _____ _____    ______ ____
ROOT
ATOM      1  C   UNL     1       3.263   5.796  18.185  0.00  0.00    +0.000 A 
ATOM      2  C   UNL     1       3.050   6.810  19.118  0.00  0.00    +0.000 A 
ATOM      3  N   UNL     1       2.226   6.711  20.185  0.00  0.00    +0.000 NA
ATOM      4  C   UNL     1       1.584   5.532  20.337  0.00  0.00    +0.000 A 
ATOM      5  C   UNL     1       1.760   4.423  19.511  0.00  0.00    +0.000 A 
ATOM      6  C   UNL     1       1.060   3.220  19.717  0.00  0.00    +0.000 A 
ATOM      7  C   UNL     1       1.280   2.118  18.896  0.00  0.00    +0.000 A 
ATOM      8  C   UNL     1       2.214   2.198  17.869  0.00  0.00    +0.000 A 
ATOM      9  C   UNL     1       2.889   3.398  17.630  0.00  0.00    +0.000 A 
ATOM     10  C   UNL     1       2.660   4.541  18.427  0.00  0.00    +0.000 A 
ENDROOT
BRANCH   1  11
ATOM     11  O   UNL     1       3.982   5.954  17.022  0.00  0.00    +0.000 OA
BRANCH  11  13
ATOM     12  C   UNL     1       6.168   7.079  17.318  0.00  0.00    +0.000 C 
ATOM     13  C   UNL     1       5.402   5.764  17.127  0.00  0.00    +0.000 C 
BRANCH  13  14
ATOM     14  C   UNL     1       5.941   5.192  15.816  0.00  0.00    +0.000 C 
ATOM     15  N   UNL     1       5.251   4.315  15.126  0.00  0.00    +0.000 NA
ATOM     16  C   UNL     1       6.182   3.900  14.037  0.00  0.00    +0.000 C 
ATOM     17  C   UNL     1       7.322   4.923  14.024  0.00  0.00    +0.000 C 
ATOM     18  N   UNL     1       7.196   5.493  15.343  0.00  0.00    +0.000 N 
ATOM     19  H   UNL     1       7.528   6.438  15.507  0.00  0.00    +0.000 HD
ENDBRANCH  13  14
ENDBRANCH  11  13
ENDBRANCH   1  11
TORSDOF 3
ENDMDL
MODEL 3
REMARK VINA RESULT:      -6.8      0.491      1.035
REMARK  Name = 
REMARK  4 active torsions:
REMARK  status: ('A' for Active; 'I' for Inactive)
REMARK    1  A    between atoms: C_1  and  C_2
REMARK    2  A    between atoms: C_2  and  O_3
REMARK    3  A    between atoms: C_2  and  C_14
REMARK    4  A    between atoms: O_3  and  C_4
REMARK                            x       y       z     vdW  Elec       q    Type
REMARK                         _______ _______ _______ _____ _____    ______ ____
ROOT
ATOM      1  C   UNL     1       4.007   4.221  17.838  0.00  0.00    +0.000 A 
ATOM      2  C   UNL     1       3.874   2.851  17.621  0.00  0.00    +0.000 A 
ATOM      3  N   UNL     1       3.034   2.043  18.306  0.00  0.00    +0.000 NA
ATOM      4  C   UNL     1       2.278   2.633  19.257  0.00  0.00    +0.000 A 
ATOM      5  C   UNL     1       2.273   4.000  19.527  0.00  0.00    +0.000 A 
ATOM      6  C   UNL     1       1.465   4.560  20.534  0.00  0.00    +0.000 A 
ATOM      7  C   UNL     1       1.457   5.933  20.760  0.00  0.00    +0.000 A 
ATOM      8  C   UNL     1       2.241   6.767  19.972  0.00  0.00    +0.000 A 
ATOM      9  C   UNL     1       3.076   6.222  18.994  0.00  0.00    +0.000 A 
ATOM     10  C   UNL     1       3.130   4.830  18.766  0.00  0.00    +0.000 A 
ENDROOT
BRANCH   1  11
ATOM     11  O   UNL     1       4.967   5.009  17.246  0.00  0.00    +0.000 OA
BRANCH  11  13
ATOM     12  C   UNL     1       7.410   5.095  17.640  0.00  0.00    +0.000 C 
ATOM     13  C   UNL     1       6.228   4.374  16.981  0.00  0.00    +0.000 C 
BRANCH  13  14
ATOM     14  C   UNL     1       6.528   4.435  15.483  0.00  0.00    +0.000 C 
ATOM     15  N   UNL     1       5.837   3.723  14.625  0.00  0.00    +0.000 NA
ATOM     16  C   UNL     1       6.541   3.938  13.328  0.00  0.00    +0.000 C 
ATOM     17  C   UNL     1       7.480   5.131  13.534  0.00  0.00    +0.000 C 
ATOM     18  N   UNL     1       7.579   5.159  14.973  0.00  0.00    +0.000 N 
ATOM     19  H   UNL     1       7.794   6.035  15.436  0.00  0.00    +0.000 HD
ENDBRANCH  13  14
ENDBRANCH  11  13
ENDBRANCH   1  11
TORSDOF 3
ENDMDL
MODEL 4
REMARK VINA RESULT:      -6.7      0.840      1.433
REMARK  Name = 
REMARK  4 active torsions:
REMARK  status: ('A' for Active; 'I' for Inactive)
REMARK    1  A    between atoms: C_1  and  C_2
REMARK    2  A    between atoms: C_2  and  O_3
REMARK    3  A    between atoms: C_2  and  C_14
REMARK    4  A    between atoms: O_3  and  C_4
REMARK                            x       y       z     vdW  Elec       q    Type
REMARK                         _______ _______ _______ _____ _____    ______ ____
ROOT
ATOM      1  C   UNL     1       4.133   4.617  17.240  0.00  0.00    +0.000 A 
ATOM      2  C   UNL     1       4.005   3.305  17.695  0.00  0.00    +0.000 A 
ATOM      3  N   UNL     1       3.339   2.942  18.814  0.00  0.00    +0.000 NA
ATOM      4  C   UNL     1       2.759   3.941  19.515  0.00  0.00    +0.000 A 
ATOM      5  C   UNL     1       2.762   5.281  19.133  0.00  0.00    +0.000 A 
ATOM      6  C   UNL     1       2.143   6.280  19.906  0.00  0.00    +0.000 A 
ATOM      7  C   UNL     1       2.133   7.606  19.484  0.00  0.00    +0.000 A 
ATOM      8  C   UNL     1       2.726   7.949  18.274  0.00  0.00    +0.000 A 
ATOM      9  C   UNL     1       3.376   6.973  17.513  0.00  0.00    +0.000 A 
ATOM     10  C   UNL     1       3.430   5.627  17.935  0.00  0.00    +0.000 A 
ENDROOT
BRANCH   1  11
ATOM     11  O   UNL     1       4.937   4.996  16.189  0.00  0.00    +0.000 OA
BRANCH  11  13
ATOM     12  C   UNL     1       7.291   4.622  16.863  0.00  0.00    +0.000 C 
ATOM     13  C   UNL     1       6.113   4.200  15.976  0.00  0.00    +0.000 C 
BRANCH  13  14
ATOM     14  C   UNL     1       6.618   4.403  14.547  0.00  0.00    +0.000 C 
ATOM     15  N   UNL     1       6.138   3.694  13.553  0.00  0.00    +0.000 NA
ATOM     16  C   UNL     1       6.994   4.074  12.393  0.00  0.00    +0.000 C 
ATOM     17  C   UNL     1       7.761   5.333  12.810  0.00  0.00    +0.000 C 
ATOM     18  N   UNL     1       7.648   5.261  14.246  0.00  0.00    +0.000 N 
ATOM     19  H   UNL     1       7.699   6.116  14.789  0.00  0.00    +0.000 HD
ENDBRANCH  13  14
ENDBRANCH  11  13
ENDBRANCH   1  11
TORSDOF 3
ENDMDL
MODEL 5
REMARK VINA RESULT:      -6.6      1.101      1.453
REMARK  Name = 
REMARK  4 active torsions:
REMARK  status: ('A' for Active; 'I' for Inactive)
REMARK    1  A    between atoms: C_1  and  C_2
REMARK    2  A    between atoms: C_2  and  O_3
REMARK    3  A    between atoms: C_2  and  C_14
REMARK    4  A    between atoms: O_3  and  C_4
REMARK                            x       y       z     vdW  Elec       q    Type
REMARK                         _______ _______ _______ _____ _____    ______ ____
ROOT
ATOM      1  C   UNL     1       4.105   5.165  17.748  0.00  0.00    +0.000 A 
ATOM      2  C   UNL     1       4.202   3.910  18.347  0.00  0.00    +0.000 A 
ATOM      3  N   UNL     1       3.644   3.580  19.533  0.00  0.00    +0.000 NA
ATOM      4  C   UNL     1       2.943   4.553  20.156  0.00  0.00    +0.000 A 
ATOM      5  C   UNL     1       2.721   5.826  19.633  0.00  0.00    +0.000 A 
ATOM      6  C   UNL     1       1.984   6.802  20.330  0.00  0.00    +0.000 A 
ATOM      7  C   UNL     1       1.751   8.054  19.769  0.00  0.00    +0.000 A 
ATOM      8  C   UNL     1       2.235   8.342  18.499  0.00  0.00    +0.000 A 
ATOM      9  C   UNL     1       3.000   7.396  17.811  0.00  0.00    +0.000 A 
ATOM     10  C   UNL     1       3.280   6.130  18.370  0.00  0.00    +0.000 A 
ENDROOT
BRANCH   1  11
ATOM     11  O   UNL     1       4.799   5.539  16.620  0.00  0.00    +0.000 OA
BRANCH  11  13
ATOM     12  C   UNL     1       7.166   6.177  16.973  0.00  0.00    +0.000 C 
ATOM     13  C   UNL     1       6.164   5.098  16.543  0.00  0.00    +0.000 C 
BRANCH  13  14
ATOM     14  C   UNL     1       6.524   4.797  15.088  0.00  0.00    +0.000 C 
ATOM     15  N   UNL     1       7.603   5.301  14.540  0.00  0.00    +0.000 NA
ATOM     16  C   UNL     1       7.495   4.910  13.105  0.00  0.00    +0.000 C 
ATOM     17  C   UNL     1       6.405   3.837  13.026  0.00  0.00    +0.000 C 
ATOM     18  N   UNL     1       5.701   4.067  14.263  0.00  0.00    +0.000 N 
ATOM     19  H   UNL     1       5.192   3.302  14.692  0.00  0.00    +0.000 HD
ENDBRANCH  13  14
ENDBRANCH  11  13
ENDBRANCH   1  11
TORSDOF 3
ENDMDL
MODEL 6
REMARK VINA RESULT:      -6.6      2.492      5.962
REMARK  Name = 
REMARK  4 active torsions:
REMARK  status: ('A' for Active; 'I' for Inactive)
REMARK    1  A    between atoms: C_1  and  C_2
REMARK    2  A    between atoms: C_2  and  O_3
REMARK    3  A    between atoms: C_2  and  C_14
REMARK    4  A    between atoms: O_3  and  C_4
REMARK                            x       y       z     vdW  Elec       q    Type
REMARK                         _______ _______ _______ _____ _____    ______ ____
ROOT
ATOM      1  C   UNL     1       4.940   4.648  18.434  0.00  0.00    +0.000 A 
ATOM      2  C   UNL     1       5.777   5.004  19.490  0.00  0.00    +0.000 A 
ATOM      3  N   UNL     1       7.101   5.246  19.373  0.00  0.00    +0.000 NA
ATOM      4  C   UNL     1       7.622   5.136  18.131  0.00  0.00    +0.000 A 
ATOM      5  C   UNL     1       6.881   4.849  16.986  0.00  0.00    +0.000 A 
ATOM      6  C   UNL     1       7.478   4.744  15.716  0.00  0.00    +0.000 A 
ATOM      7  C   UNL     1       6.709   4.488  14.585  0.00  0.00    +0.000 A 
ATOM      8  C   UNL     1       5.331   4.352  14.704  0.00  0.00    +0.000 A 
ATOM      9  C   UNL     1       4.728   4.418  15.963  0.00  0.00    +0.000 A 
ATOM     10  C   UNL     1       5.489   4.642  17.131  0.00  0.00    +0.000 A 
ENDROOT
BRANCH   1  11
ATOM     11  O   UNL     1       3.629   4.256  18.583  0.00  0.00    +0.000 OA
BRANCH  11  13
ATOM     12  C   UNL     1       1.610   4.095  20.008  0.00  0.00    +0.000 C 
ATOM     13  C   UNL     1       2.925   4.822  19.700  0.00  0.00    +0.000 C 
BRANCH  13  14
ATOM     14  C   UNL     1       2.505   6.254  19.368  0.00  0.00    +0.000 C 
ATOM     15  N   UNL     1       2.447   6.672  18.127  0.00  0.00    +0.000 NA
ATOM     16  C   UNL     1       2.168   8.131  18.250  0.00  0.00    +0.000 C 
ATOM     17  C   UNL     1       1.735   8.372  19.699  0.00  0.00    +0.000 C 
ATOM     18  N   UNL     1       2.256   7.191  20.343  0.00  0.00    +0.000 N 
ATOM     19  H   UNL     1       1.815   6.856  21.193  0.00  0.00    +0.000 HD
ENDBRANCH  13  14
ENDBRANCH  11  13
ENDBRANCH   1  11
TORSDOF 3
ENDMDL
MODEL 7
REMARK VINA RESULT:      -6.6      1.720      2.432
REMARK  Name = 
REMARK  4 active torsions:
REMARK  status: ('A' for Active; 'I' for Inactive)
REMARK    1  A    between atoms: C_1  and  C_2
REMARK    2  A    between atoms: C_2  and  O_3
REMARK    3  A    between atoms: C_2  and  C_14
REMARK    4  A    between atoms: O_3  and  C_4
REMARK                            x       y       z     vdW  Elec       q    Type
REMARK                         _______ _______ _______ _____ _____    ______ ____
ROOT
ATOM      1  C   UNL     1       3.799   6.158  18.059  0.00  0.00    +0.000 A 
ATOM      2  C   UNL     1       3.840   5.004  18.840  0.00  0.00    +0.000 A 
ATOM      3  N   UNL     1       3.163   4.836  19.998  0.00  0.00    +0.000 NA
ATOM      4  C   UNL     1       2.396   5.873  20.399  0.00  0.00    +0.000 A 
ATOM      5  C   UNL     1       2.223   7.053  19.678  0.00  0.00    +0.000 A 
ATOM      6  C   UNL     1       1.413   8.103  20.147  0.00  0.00    +0.000 A 
ATOM      7  C   UNL     1       1.232   9.257  19.391  0.00  0.00    +0.000 A 
ATOM      8  C   UNL     1       1.844   9.371  18.149  0.00  0.00    +0.000 A 
ATOM      9  C   UNL     1       2.682   8.352  17.686  0.00  0.00    +0.000 A 
ATOM     10  C   UNL     1       2.909   7.185  18.448  0.00  0.00    +0.000 A 
ENDROOT
BRANCH   1  11
ATOM     11  O   UNL     1       4.604   6.381  16.965  0.00  0.00    +0.000 OA
BRANCH  11  13
ATOM     12  C   UNL     1       7.011   6.868  17.284  0.00  0.00    +0.000 C 
ATOM     13  C   UNL     1       5.924   5.817  17.028  0.00  0.00    +0.000 C 
BRANCH  13  14
ATOM     14  C   UNL     1       6.287   5.211  15.673  0.00  0.00    +0.000 C 
ATOM     15  N   UNL     1       7.421   5.504  15.082  0.00  0.00    +0.000 NA
ATOM     16  C   UNL     1       7.309   4.854  13.745  0.00  0.00    +0.000 C 
ATOM     17  C   UNL     1       6.126   3.885  13.828  0.00  0.00    +0.000 C 
ATOM     18  N   UNL     1       5.419   4.410  14.970  0.00  0.00    +0.000 N 
ATOM     19  H   UNL     1       4.832   3.788  15.516  0.00  0.00    +0.000 HD
ENDBRANCH  13  14
ENDBRANCH  11  13
ENDBRANCH   1  11
TORSDOF 3
ENDMDL
MODEL 8
REMARK VINA RESULT:      -6.5      2.137      3.575
REMARK  Name = 
REMARK  4 active torsions:
REMARK  status: ('A' for Active; 'I' for Inactive)
REMARK    1  A    between atoms: C_1  and  C_2
REMARK    2  A    between atoms: C_2  and  O_3
REMARK    3  A    between atoms: C_2  and  C_14
REMARK    4  A    between atoms: O_3  and  C_4
REMARK                            x       y       z     vdW  Elec       q    Type
REMARK                         _______ _______ _______ _____ _____    ______ ____
ROOT
ATOM      1  C   UNL     1       3.669   5.399  17.858  0.00  0.00    +0.000 A 
ATOM      2  C   UNL     1       3.284   6.738  17.833  0.00  0.00    +0.000 A 
ATOM      3  N   UNL     1       2.535   7.340  18.784  0.00  0.00    +0.000 NA
ATOM      4  C   UNL     1       2.155   6.567  19.824  0.00  0.00    +0.000 A 
ATOM      5  C   UNL     1       2.526   5.235  19.997  0.00  0.00    +0.000 A 
ATOM      6  C   UNL     1       2.097   4.477  21.101  0.00  0.00    +0.000 A 
ATOM      7  C   UNL     1       2.510   3.158  21.265  0.00  0.00    +0.000 A 
ATOM      8  C   UNL     1       3.372   2.585  20.337  0.00  0.00    +0.000 A 
ATOM      9  C   UNL     1       3.777   3.314  19.216  0.00  0.00    +0.000 A 
ATOM     10  C   UNL     1       3.346   4.642  19.008  0.00  0.00    +0.000 A 
ENDROOT
BRANCH   1  11
ATOM     11  O   UNL     1       4.299   4.755  16.818  0.00  0.00    +0.000 OA
BRANCH  11  13
ATOM     12  C   UNL     1       6.001   4.714  15.019  0.00  0.00    +0.000 C 
ATOM     13  C   UNL     1       5.267   5.529  16.091  0.00  0.00    +0.000 C 
BRANCH  13  14
ATOM     14  C   UNL     1       6.369   5.996  17.041  0.00  0.00    +0.000 C 
ATOM     15  N   UNL     1       6.950   5.159  17.867  0.00  0.00    +0.000 NA
ATOM     16  C   UNL     1       7.821   6.029  18.709  0.00  0.00    +0.000 C 
ATOM     17  C   UNL     1       7.899   7.385  18.000  0.00  0.00    +0.000 C 
ATOM     18  N   UNL     1       6.741   7.315  17.144  0.00  0.00    +0.000 N 
ATOM     19  H   UNL     1       6.727   7.859  16.287  0.00  0.00    +0.000 HD
ENDBRANCH  13  14
ENDBRANCH  11  13
ENDBRANCH   1  11
TORSDOF 3
ENDMDL
MODEL 9
REMARK VINA RESULT:      -6.5      2.388      6.164
REMARK  Name = 
REMARK  4 active torsions:
REMARK  status: ('A' for Active; 'I' for Inactive)
REMARK    1  A    between atoms: C_1  and  C_2
REMARK    2  A    between atoms: C_2  and  O_3
REMARK    3  A    between atoms: C_2  and  C_14
REMARK    4  A    between atoms: O_3  and  C_4
REMARK                            x       y       z     vdW  Elec       q    Type
REMARK                         _______ _______ _______ _____ _____    ______ ____
ROOT
ATOM      1  C   UNL     1       4.944   5.268  18.315  0.00  0.00    +0.000 A 
ATOM      2  C   UNL     1       5.808   5.355  19.406  0.00  0.00    +0.000 A 
ATOM      3  N   UNL     1       7.147   5.179  19.342  0.00  0.00    +0.000 NA
ATOM      4  C   UNL     1       7.657   4.909  18.121  0.00  0.00    +0.000 A 
ATOM      5  C   UNL     1       6.909   4.858  16.945  0.00  0.00    +0.000 A 
ATOM      6  C   UNL     1       7.495   4.568  15.699  0.00  0.00    +0.000 A 
ATOM      7  C   UNL     1       6.730   4.556  14.537  0.00  0.00    +0.000 A 
ATOM      8  C   UNL     1       5.373   4.850  14.601  0.00  0.00    +0.000 A 
ATOM      9  C   UNL     1       4.770   5.103  15.836  0.00  0.00    +0.000 A 
ATOM     10  C   UNL     1       5.517   5.089  17.035  0.00  0.00    +0.000 A 
ENDROOT
BRANCH   1  11
ATOM     11  O   UNL     1       3.572   5.298  18.411  0.00  0.00    +0.000 OA
BRANCH  11  13
ATOM     12  C   UNL     1       1.549   4.145  17.566  0.00  0.00    +0.000 C 
ATOM     13  C   UNL     1       2.903   4.033  18.278  0.00  0.00    +0.000 C 
BRANCH  13  14
ATOM     14  C   UNL     1       2.565   3.484  19.664  0.00  0.00    +0.000 C 
ATOM     15  N   UNL     1       3.459   2.837  20.372  0.00  0.00    +0.000 NA
ATOM     16  C   UNL     1       2.693   2.340  21.551  0.00  0.00    +0.000 C 
ATOM     17  C   UNL     1       1.363   3.099  21.560  0.00  0.00    +0.000 C 
ATOM     18  N   UNL     1       1.299   3.559  20.195  0.00  0.00    +0.000 N 
ATOM     19  H   UNL     1       0.765   4.395  19.980  0.00  0.00    +0.000 HD
ENDBRANCH  13  14
ENDBRANCH  11  13
ENDBRANCH   1  11
TORSDOF 3
ENDMDL
