MODEL 1
REMARK VINA RESULT:      -7.2      0.000      0.000
REMARK  Name = 
REMARK  8 active torsions:
REMARK  status: ('A' for Active; 'I' for Inactive)
REMARK    1  A    between atoms: C_1  and  C_2
REMARK    2  A    between atoms: C_7  and  C_8
REMARK    3  A    between atoms: C_8  and  C_24
REMARK    4  A    between atoms: C_9  and  C_10
REMARK    5  A    between atoms: C_12  and  O_13
REMARK    6  A    between atoms: O_13  and  C_14
REMARK    7  A    between atoms: C_14  and  C_15
REMARK    8  A    between atoms: C_24  and  O_25
REMARK                            x       y       z     vdW  Elec       q    Type
REMARK                         _______ _______ _______ _____ _____    ______ ____
ROOT
ATOM      1  C   UNL     1       2.566   6.161  18.734  0.00  0.00    +0.000 A 
ATOM      2  C   UNL     1       2.518   7.359  18.011  0.00  0.00    +0.000 A 
ATOM      3  C   UNL     1       2.051   8.534  18.606  0.00  0.00    +0.000 A 
ATOM      4  C   UNL     1       1.514   8.494  19.889  0.00  0.00    +0.000 A 
ATOM      5  C   UNL     1       1.588   7.314  20.632  0.00  0.00    +0.000 A 
ATOM      6  C   UNL     1       2.149   6.161  20.071  0.00  0.00    +0.000 A 
ATOM      7 BR   UNL     1       2.305   4.626  21.178  0.00  0.00    +0.000 Br
ENDROOT
BRANCH   1   9
ATOM      8  C   UNL     1       4.078   4.523  17.468  0.00  0.00    +0.000 C 
ATOM      9  C   UNL     1       2.910   4.938  17.980  0.00  0.00    +0.000 C 
BRANCH   8  16
ATOM     10  C   UNL     1       5.257   6.555  15.535  0.00  0.00    +0.000 C 
ATOM     11  C   UNL     1       5.855   6.247  16.879  0.00  0.00    +0.000 A 
ATOM     12  C   UNL     1       6.979   6.983  17.299  0.00  0.00    +0.000 A 
ATOM     13  C   UNL     1       7.631   6.678  18.494  0.00  0.00    +0.000 A 
ATOM     14  C   UNL     1       7.191   5.614  19.270  0.00  0.00    +0.000 A 
ATOM     15  C   UNL     1       6.055   4.901  18.887  0.00  0.00    +0.000 A 
ATOM     16  C   UNL     1       5.347   5.238  17.721  0.00  0.00    +0.000 A 
ENDBRANCH   8  16
BRANCH   8  17
ATOM     17  C   UNL     1       4.181   3.249  16.661  0.00  0.00    +0.000 C 
BRANCH  17  18
ATOM     18  O   UNL     1       4.227   2.097  17.503  0.00  0.00    +0.000 OA
ATOM     19  H   UNL     1       3.942   1.343  16.956  0.00  0.00    +0.000 HD
ENDBRANCH  17  18
ENDBRANCH   8  17
ENDBRANCH   1   9
BRANCH   3  20
ATOM     20  O   UNL     1       2.082   9.763  17.997  0.00  0.00    +0.000 OA
BRANCH  20  21
ATOM     21  C   UNL     1       1.100  10.669  18.520  0.00  0.00    +0.000 C 
BRANCH  21  22
ATOM     22  C   UNL     1       1.703  11.975  18.947  0.00  0.00    +0.000 A 
ATOM     23  C   UNL     1       2.550  12.798  18.136  0.00  0.00    +0.000 A 
ATOM     24  C   UNL     1       3.010  13.907  18.809  0.00  0.00    +0.000 A 
ATOM     25  S   UNL     1       2.418  13.981  20.410  0.00  0.00    +0.000 S 
ATOM     26  C   UNL     1       1.543  12.527  20.206  0.00  0.00    +0.000 A 
ENDBRANCH  21  22
ENDBRANCH  20  21
ENDBRANCH   3  20
TORSDOF 7
ENDMDL
MODEL 2
REMARK VINA RESULT:      -7.1      1.641      2.170
REMARK  Name = 
REMARK  8 active torsions:
REMARK  status: ('A' for Active; 'I' for Inactive)
REMARK    1  A    between atoms: C_1  and  C_2
REMARK    2  A    between atoms: C_7  and  C_8
REMARK    3  A    between atoms: C_8  and  C_24
REMARK    4  A    between atoms: C_9  and  C_10
REMARK    5  A    between atoms: C_12  and  O_13
REMARK    6  A    between atoms: O_13  and  C_14
REMARK    7  A    between atoms: C_14  and  C_15
REMARK    8  A    between atoms: C_24  and  O_25
REMARK                            x       y       z     vdW  Elec       q    Type
REMARK                         _______ _______ _______ _____ _____    ______ ____
ROOT
ATOM      1  C   UNL     1       2.571   6.040  18.837  0.00  0.00    +0.000 A 
ATOM      2  C   UNL     1       2.452   7.250  18.142  0.00  0.00    +0.000 A 
ATOM      3  C   UNL     1       1.962   8.394  18.777  0.00  0.00    +0.000 A 
ATOM      4  C   UNL     1       1.473   8.307  20.077  0.00  0.00    +0.000 A 
ATOM      5  C   UNL     1       1.619   7.116  20.792  0.00  0.00    +0.000 A 
ATOM      6  C   UNL     1       2.203   5.998  20.187  0.00  0.00    +0.000 A 
ATOM      7 BR   UNL     1       2.458   4.448  21.256  0.00  0.00    +0.000 Br
ENDROOT
BRANCH   1   9
ATOM      8  C   UNL     1       4.104   4.479  17.499  0.00  0.00    +0.000 C 
ATOM      9  C   UNL     1       2.935   4.847  18.046  0.00  0.00    +0.000 C 
BRANCH   8  16
ATOM     10  C   UNL     1       5.194   6.571  15.576  0.00  0.00    +0.000 C 
ATOM     11  C   UNL     1       5.822   6.262  16.907  0.00  0.00    +0.000 A 
ATOM     12  C   UNL     1       6.932   7.023  17.319  0.00  0.00    +0.000 A 
ATOM     13  C   UNL     1       7.611   6.720  18.498  0.00  0.00    +0.000 A 
ATOM     14  C   UNL     1       7.213   5.633  19.267  0.00  0.00    +0.000 A 
ATOM     15  C   UNL     1       6.092   4.893  18.891  0.00  0.00    +0.000 A 
ATOM     16  C   UNL     1       5.355   5.226  17.741  0.00  0.00    +0.000 A 
ENDBRANCH   8  16
BRANCH   8  17
ATOM     17  C   UNL     1       4.225   3.229  16.659  0.00  0.00    +0.000 C 
BRANCH  17  18
ATOM     18  O   UNL     1       4.163   2.049  17.460  0.00  0.00    +0.000 OA
ATOM     19  H   UNL     1       4.649   2.246  18.281  0.00  0.00    +0.000 HD
ENDBRANCH  17  18
ENDBRANCH   8  17
ENDBRANCH   1   9
BRANCH   3  20
ATOM     20  O   UNL     1       1.924   9.634  18.193  0.00  0.00    +0.000 OA
BRANCH  20  21
ATOM     21  C   UNL     1       1.161  10.584  18.952  0.00  0.00    +0.000 C 
BRANCH  21  22
ATOM     22  C   UNL     1      -0.258  10.684  18.474  0.00  0.00    +0.000 A 
ATOM     23  C   UNL     1      -0.889   9.777  17.563  0.00  0.00    +0.000 A 
ATOM     24  C   UNL     1      -2.176  10.151  17.251  0.00  0.00    +0.000 A 
ATOM     25  S   UNL     1      -2.645  11.582  18.060  0.00  0.00    +0.000 S 
ATOM     26  C   UNL     1      -1.125  11.702  18.831  0.00  0.00    +0.000 A 
ENDBRANCH  21  22
ENDBRANCH  20  21
ENDBRANCH   3  20
TORSDOF 7
ENDMDL
MODEL 3
REMARK VINA RESULT:      -7.0      2.188      2.526
REMARK  Name = 
REMARK  8 active torsions:
REMARK  status: ('A' for Active; 'I' for Inactive)
REMARK    1  A    between atoms: C_1  and  C_2
REMARK    2  A    between atoms: C_7  and  C_8
REMARK    3  A    between atoms: C_8  and  C_24
REMARK    4  A    between atoms: C_9  and  C_10
REMARK    5  A    between atoms: C_12  and  O_13
REMARK    6  A    between atoms: O_13  and  C_14
REMARK    7  A    between atoms: C_14  and  C_15
REMARK    8  A    between atoms: C_24  and  O_25
REMARK                            x       y       z     vdW  Elec       q    Type
REMARK                         _______ _______ _______ _____ _____    ______ ____
ROOT
ATOM      1  C   UNL     1       3.453   4.613  18.591  0.00  0.00    +0.000 A 
ATOM      2  C   UNL     1       2.967   5.914  18.415  0.00  0.00    +0.000 A 
ATOM      3  C   UNL     1       2.251   6.553  19.431  0.00  0.00    +0.000 A 
ATOM      4  C   UNL     1       1.911   5.852  20.583  0.00  0.00    +0.000 A 
ATOM      5  C   UNL     1       2.419   4.567  20.786  0.00  0.00    +0.000 A 
ATOM      6  C   UNL     1       3.221   3.964  19.810  0.00  0.00    +0.000 A 
ATOM      7 BR   UNL     1       3.956   2.258  20.203  0.00  0.00    +0.000 Br
ENDROOT
BRANCH   1   9
ATOM      8  C   UNL     1       5.178   4.215  16.736  0.00  0.00    +0.000 C 
ATOM      9  C   UNL     1       4.047   3.955  17.410  0.00  0.00    +0.000 C 
BRANCH   8  16
ATOM     10  C   UNL     1       5.207   7.096  15.759  0.00  0.00    +0.000 C 
ATOM     11  C   UNL     1       6.125   6.575  16.829  0.00  0.00    +0.000 A 
ATOM     12  C   UNL     1       6.999   7.478  17.463  0.00  0.00    +0.000 A 
ATOM     13  C   UNL     1       7.937   7.035  18.395  0.00  0.00    +0.000 A 
ATOM     14  C   UNL     1       8.039   5.680  18.684  0.00  0.00    +0.000 A 
ATOM     15  C   UNL     1       7.154   4.778  18.093  0.00  0.00    +0.000 A 
ATOM     16  C   UNL     1       6.158   5.217  17.202  0.00  0.00    +0.000 A 
ENDBRANCH   8  16
BRANCH   8  17
ATOM     17  C   UNL     1       5.555   3.440  15.494  0.00  0.00    +0.000 C 
BRANCH  17  18
ATOM     18  O   UNL     1       5.435   4.242  14.319  0.00  0.00    +0.000 OA
ATOM     19  H   UNL     1       4.492   4.469  14.234  0.00  0.00    +0.000 HD
ENDBRANCH  17  18
ENDBRANCH   8  17
ENDBRANCH   1   9
BRANCH   3  20
ATOM     20  O   UNL     1       1.844   7.862  19.371  0.00  0.00    +0.000 OA
BRANCH  20  21
ATOM     21  C   UNL     1       1.410   8.369  20.641  0.00  0.00    +0.000 C 
BRANCH  21  22
ATOM     22  C   UNL     1       0.487   9.543  20.498  0.00  0.00    +0.000 A 
ATOM     23  C   UNL     1      -0.032  10.040  19.259  0.00  0.00    +0.000 A 
ATOM     24  C   UNL     1      -0.803  11.168  19.424  0.00  0.00    +0.000 A 
ATOM     25  S   UNL     1      -0.927  11.630  21.065  0.00  0.00    +0.000 S 
ATOM     26  C   UNL     1       0.052  10.319  21.558  0.00  0.00    +0.000 A 
ENDBRANCH  21  22
ENDBRANCH  20  21
ENDBRANCH   3  20
TORSDOF 7
ENDMDL
MODEL 4
REMARK VINA RESULT:      -7.0      1.681      2.222
REMARK  Name = 
REMARK  8 active torsions:
REMARK  status: ('A' for Active; 'I' for Inactive)
REMARK    1  A    between atoms: C_1  and  C_2
REMARK    2  A    between atoms: C_7  and  C_8
REMARK    3  A    between atoms: C_8  and  C_24
REMARK    4  A    between atoms: C_9  and  C_10
REMARK    5  A    between atoms: C_12  and  O_13
REMARK    6  A    between atoms: O_13  and  C_14
REMARK    7  A    between atoms: C_14  and  C_15
REMARK    8  A    between atoms: C_24  and  O_25
REMARK                            x       y       z     vdW  Elec       q    Type
REMARK                         _______ _______ _______ _____ _____    ______ ____
ROOT
ATOM      1  C   UNL     1       3.050   5.030  18.665  0.00  0.00    +0.000 A 
ATOM      2  C   UNL     1       2.773   6.388  18.464  0.00  0.00    +0.000 A 
ATOM      3  C   UNL     1       2.165   7.149  19.465  0.00  0.00    +0.000 A 
ATOM      4  C   UNL     1       1.718   6.531  20.629  0.00  0.00    +0.000 A 
ATOM      5  C   UNL     1       2.019   5.186  20.856  0.00  0.00    +0.000 A 
ATOM      6  C   UNL     1       2.718   4.448  19.895  0.00  0.00    +0.000 A 
ATOM      7 BR   UNL     1       3.177   2.655  20.321  0.00  0.00    +0.000 Br
ENDROOT
BRANCH   1   9
ATOM      8  C   UNL     1       4.682   4.352  16.808  0.00  0.00    +0.000 C 
ATOM      9  C   UNL     1       3.535   4.266  17.498  0.00  0.00    +0.000 C 
BRANCH   8  16
ATOM     10  C   UNL     1       5.242   7.071  15.561  0.00  0.00    +0.000 C 
ATOM     11  C   UNL     1       6.009   6.523  16.733  0.00  0.00    +0.000 A 
ATOM     12  C   UNL     1       6.991   7.334  17.331  0.00  0.00    +0.000 A 
ATOM     13  C   UNL     1       7.796   6.845  18.359  0.00  0.00    +0.000 A 
ATOM     14  C   UNL     1       7.654   5.530  18.784  0.00  0.00    +0.000 A 
ATOM     15  C   UNL     1       6.659   4.727  18.227  0.00  0.00    +0.000 A 
ATOM     16  C   UNL     1       5.795   5.225  17.237  0.00  0.00    +0.000 A 
ENDBRANCH   8  16
BRANCH   8  17
ATOM     17  C   UNL     1       4.936   3.501  15.585  0.00  0.00    +0.000 C 
BRANCH  17  18
ATOM     18  O   UNL     1       6.314   3.147  15.469  0.00  0.00    +0.000 OA
ATOM     19  H   UNL     1       6.692   3.208  16.364  0.00  0.00    +0.000 HD
ENDBRANCH  17  18
ENDBRANCH   8  17
ENDBRANCH   1   9
BRANCH   3  20
ATOM     20  O   UNL     1       1.967   8.504  19.381  0.00  0.00    +0.000 OA
BRANCH  20  21
ATOM     21  C   UNL     1       1.456   8.914  18.104  0.00  0.00    +0.000 C 
BRANCH  21  22
ATOM     22  C   UNL     1       0.415   9.987  18.227  0.00  0.00    +0.000 A 
ATOM     23  C   UNL     1      -0.933   9.889  17.753  0.00  0.00    +0.000 A 
ATOM     24  C   UNL     1      -1.647  11.050  17.944  0.00  0.00    +0.000 A 
ATOM     25  S   UNL     1      -0.714  12.260  18.709  0.00  0.00    +0.000 S 
ATOM     26  C   UNL     1       0.648  11.231  18.786  0.00  0.00    +0.000 A 
ENDBRANCH  21  22
ENDBRANCH  20  21
ENDBRANCH   3  20
TORSDOF 7
ENDMDL
MODEL 5
REMARK VINA RESULT:      -7.0      2.316      2.962
REMARK  Name = 
REMARK  8 active torsions:
REMARK  status: ('A' for Active; 'I' for Inactive)
REMARK    1  A    between atoms: C_1  and  C_2
REMARK    2  A    between atoms: C_7  and  C_8
REMARK    3  A    between atoms: C_8  and  C_24
REMARK    4  A    between atoms: C_9  and  C_10
REMARK    5  A    between atoms: C_12  and  O_13
REMARK    6  A    between atoms: O_13  and  C_14
REMARK    7  A    between atoms: C_14  and  C_15
REMARK    8  A    between atoms: C_24  and  O_25
REMARK                            x       y       z     vdW  Elec       q    Type
REMARK                         _______ _______ _______ _____ _____    ______ ____
ROOT
ATOM      1  C   UNL     1       3.317   4.401  18.475  0.00  0.00    +0.000 A 
ATOM      2  C   UNL     1       2.843   5.718  18.530  0.00  0.00    +0.000 A 
ATOM      3  C   UNL     1       2.224   6.208  19.682  0.00  0.00    +0.000 A 
ATOM      4  C   UNL     1       1.963   5.349  20.746  0.00  0.00    +0.000 A 
ATOM      5  C   UNL     1       2.461   4.045  20.718  0.00  0.00    +0.000 A 
ATOM      6  C   UNL     1       3.171   3.584  19.604  0.00  0.00    +0.000 A 
ATOM      7 BR   UNL     1       3.902   1.833  19.685  0.00  0.00    +0.000 Br
ENDROOT
BRANCH   1   9
ATOM      8  C   UNL     1       4.884   4.259  16.452  0.00  0.00    +0.000 C 
ATOM      9  C   UNL     1       3.801   3.918  17.167  0.00  0.00    +0.000 C 
BRANCH   8  16
ATOM     10  C   UNL     1       5.143   7.169  15.602  0.00  0.00    +0.000 C 
ATOM     11  C   UNL     1       5.996   6.538  16.666  0.00  0.00    +0.000 A 
ATOM     12  C   UNL     1       6.918   7.348  17.356  0.00  0.00    +0.000 A 
ATOM     13  C   UNL     1       7.799   6.799  18.287  0.00  0.00    +0.000 A 
ATOM     14  C   UNL     1       7.797   5.429  18.518  0.00  0.00    +0.000 A 
ATOM     15  C   UNL     1       6.863   4.620  17.871  0.00  0.00    +0.000 A 
ATOM     16  C   UNL     1       5.923   5.166  16.980  0.00  0.00    +0.000 A 
ENDBRANCH   8  16
BRANCH   8  17
ATOM     17  C   UNL     1       5.145   3.672  15.083  0.00  0.00    +0.000 C 
BRANCH  17  18
ATOM     18  O   UNL     1       6.543   3.551  14.822  0.00  0.00    +0.000 OA
ATOM     19  H   UNL     1       6.694   2.630  14.544  0.00  0.00    +0.000 HD
ENDBRANCH  17  18
ENDBRANCH   8  17
ENDBRANCH   1   9
BRANCH   3  20
ATOM     20  O   UNL     1       1.839   7.514  19.845  0.00  0.00    +0.000 OA
BRANCH  20  21
ATOM     21  C   UNL     1       1.497   7.829  21.203  0.00  0.00    +0.000 C 
BRANCH  21  22
ATOM     22  C   UNL     1       0.674   9.079  21.306  0.00  0.00    +0.000 A 
ATOM     23  C   UNL     1       0.034   9.552  22.498  0.00  0.00    +0.000 A 
ATOM     24  C   UNL     1      -0.708  10.691  22.283  0.00  0.00    +0.000 A 
ATOM     25  S   UNL     1      -0.631  11.213  20.657  0.00  0.00    +0.000 S 
ATOM     26  C   UNL     1       0.398   9.915  20.238  0.00  0.00    +0.000 A 
ENDBRANCH  21  22
ENDBRANCH  20  21
ENDBRANCH   3  20
TORSDOF 7
ENDMDL
MODEL 6
REMARK VINA RESULT:      -6.8      2.202      2.949
REMARK  Name = 
REMARK  8 active torsions:
REMARK  status: ('A' for Active; 'I' for Inactive)
REMARK    1  A    between atoms: C_1  and  C_2
REMARK    2  A    between atoms: C_7  and  C_8
REMARK    3  A    between atoms: C_8  and  C_24
REMARK    4  A    between atoms: C_9  and  C_10
REMARK    5  A    between atoms: C_12  and  O_13
REMARK    6  A    between atoms: O_13  and  C_14
REMARK    7  A    between atoms: C_14  and  C_15
REMARK    8  A    between atoms: C_24  and  O_25
REMARK                            x       y       z     vdW  Elec       q    Type
REMARK                         _______ _______ _______ _____ _____    ______ ____
ROOT
ATOM      1  C   UNL     1       3.347   4.028  18.265  0.00  0.00    +0.000 A 
ATOM      2  C   UNL     1       2.941   5.336  18.555  0.00  0.00    +0.000 A 
ATOM      3  C   UNL     1       2.334   5.642  19.776  0.00  0.00    +0.000 A 
ATOM      4  C   UNL     1       2.018   4.620  20.666  0.00  0.00    +0.000 A 
ATOM      5  C   UNL     1       2.448   3.318  20.405  0.00  0.00    +0.000 A 
ATOM      6  C   UNL     1       3.147   3.029  19.227  0.00  0.00    +0.000 A 
ATOM      7 BR   UNL     1       3.786   1.256  18.992  0.00  0.00    +0.000 Br
ENDROOT
BRANCH   1   9
ATOM      8  C   UNL     1       4.875   4.251  16.218  0.00  0.00    +0.000 C 
ATOM      9  C   UNL     1       3.822   3.763  16.892  0.00  0.00    +0.000 C 
BRANCH   8  16
ATOM     10  C   UNL     1       4.979   7.267  15.832  0.00  0.00    +0.000 C 
ATOM     11  C   UNL     1       5.892   6.519  16.764  0.00  0.00    +0.000 A 
ATOM     12  C   UNL     1       6.798   7.255  17.551  0.00  0.00    +0.000 A 
ATOM     13  C   UNL     1       7.730   6.610  18.363  0.00  0.00    +0.000 A 
ATOM     14  C   UNL     1       7.795   5.222  18.375  0.00  0.00    +0.000 A 
ATOM     15  C   UNL     1       6.879   4.480  17.630  0.00  0.00    +0.000 A 
ATOM     16  C   UNL     1       5.889   5.113  16.859  0.00  0.00    +0.000 A 
ENDBRANCH   8  16
BRANCH   8  17
ATOM     17  C   UNL     1       5.129   3.884  14.774  0.00  0.00    +0.000 C 
BRANCH  17  18
ATOM     18  O   UNL     1       6.486   3.497  14.562  0.00  0.00    +0.000 OA
ATOM     19  H   UNL     1       6.994   3.845  15.316  0.00  0.00    +0.000 HD
ENDBRANCH  17  18
ENDBRANCH   8  17
ENDBRANCH   1   9
BRANCH   3  20
ATOM     20  O   UNL     1       2.015   6.916  20.171  0.00  0.00    +0.000 OA
BRANCH  20  21
ATOM     21  C   UNL     1       2.160   7.879  19.118  0.00  0.00    +0.000 C 
BRANCH  21  22
ATOM     22  C   UNL     1       1.275   9.075  19.315  0.00  0.00    +0.000 A 
ATOM     23  C   UNL     1       0.598   9.410  20.532  0.00  0.00    +0.000 A 
ATOM     24  C   UNL     1      -0.197  10.526  20.405  0.00  0.00    +0.000 A 
ATOM     25  S   UNL     1      -0.126  11.191  18.832  0.00  0.00    +0.000 S 
ATOM     26  C   UNL     1       0.971   9.986  18.319  0.00  0.00    +0.000 A 
ENDBRANCH  21  22
ENDBRANCH  20  21
ENDBRANCH   3  20
TORSDOF 7
ENDMDL
MODEL 7
REMARK VINA RESULT:      -6.8      1.147      1.641
REMARK  Name = 
REMARK  8 active torsions:
REMARK  status: ('A' for Active; 'I' for Inactive)
REMARK    1  A    between atoms: C_1  and  C_2
REMARK    2  A    between atoms: C_7  and  C_8
REMARK    3  A    between atoms: C_8  and  C_24
REMARK    4  A    between atoms: C_9  and  C_10
REMARK    5  A    between atoms: C_12  and  O_13
REMARK    6  A    between atoms: O_13  and  C_14
REMARK    7  A    between atoms: C_14  and  C_15
REMARK    8  A    between atoms: C_24  and  O_25
REMARK                            x       y       z     vdW  Elec       q    Type
REMARK                         _______ _______ _______ _____ _____    ______ ____
ROOT
ATOM      1  C   UNL     1       2.619   5.868  18.964  0.00  0.00    +0.000 A 
ATOM      2  C   UNL     1       2.543   7.107  18.317  0.00  0.00    +0.000 A 
ATOM      3  C   UNL     1       2.044   8.231  18.981  0.00  0.00    +0.000 A 
ATOM      4  C   UNL     1       1.504   8.097  20.257  0.00  0.00    +0.000 A 
ATOM      5  C   UNL     1       1.606   6.875  20.926  0.00  0.00    +0.000 A 
ATOM      6  C   UNL     1       2.198   5.774  20.297  0.00  0.00    +0.000 A 
ATOM      7 BR   UNL     1       2.391   4.178  21.308  0.00  0.00    +0.000 Br
ENDROOT
BRANCH   1   9
ATOM      8  C   UNL     1       4.161   4.385  17.552  0.00  0.00    +0.000 C 
ATOM      9  C   UNL     1       2.997   4.704  18.138  0.00  0.00    +0.000 C 
BRANCH   8  16
ATOM     10  C   UNL     1       5.169   6.501  15.612  0.00  0.00    +0.000 C 
ATOM     11  C   UNL     1       5.823   6.211  16.934  0.00  0.00    +0.000 A 
ATOM     12  C   UNL     1       6.917   7.003  17.331  0.00  0.00    +0.000 A 
ATOM     13  C   UNL     1       7.620   6.721  18.502  0.00  0.00    +0.000 A 
ATOM     14  C   UNL     1       7.262   5.625  19.277  0.00  0.00    +0.000 A 
ATOM     15  C   UNL     1       6.156   4.855  18.917  0.00  0.00    +0.000 A 
ATOM     16  C   UNL     1       5.395   5.165  17.777  0.00  0.00    +0.000 A 
ENDBRANCH   8  16
BRANCH   8  17
ATOM     17  C   UNL     1       4.298   3.157  16.682  0.00  0.00    +0.000 C 
BRANCH  17  18
ATOM     18  O   UNL     1       4.286   1.959  17.458  0.00  0.00    +0.000 OA
ATOM     19  H   UNL     1       3.937   1.258  16.880  0.00  0.00    +0.000 HD
ENDBRANCH  17  18
ENDBRANCH   8  17
ENDBRANCH   1   9
BRANCH   3  20
ATOM     20  O   UNL     1       2.044   9.495  18.449  0.00  0.00    +0.000 OA
BRANCH  20  21
ATOM     21  C   UNL     1       0.795   9.841  17.834  0.00  0.00    +0.000 C 
BRANCH  21  22
ATOM     22  C   UNL     1       0.044  10.877  18.618  0.00  0.00    +0.000 A 
ATOM     23  C   UNL     1      -1.329  10.777  19.015  0.00  0.00    +0.000 A 
ATOM     24  C   UNL     1      -1.773  11.904  19.670  0.00  0.00    +0.000 A 
ATOM     25  S   UNL     1      -0.545  13.082  19.829  0.00  0.00    +0.000 S 
ATOM     26  C   UNL     1       0.585  12.085  19.023  0.00  0.00    +0.000 A 
ENDBRANCH  21  22
ENDBRANCH  20  21
ENDBRANCH   3  20
TORSDOF 7
ENDMDL
MODEL 8
REMARK VINA RESULT:      -6.8      1.611      2.440
REMARK  Name = 
REMARK  8 active torsions:
REMARK  status: ('A' for Active; 'I' for Inactive)
REMARK    1  A    between atoms: C_1  and  C_2
REMARK    2  A    between atoms: C_7  and  C_8
REMARK    3  A    between atoms: C_8  and  C_24
REMARK    4  A    between atoms: C_9  and  C_10
REMARK    5  A    between atoms: C_12  and  O_13
REMARK    6  A    between atoms: O_13  and  C_14
REMARK    7  A    between atoms: C_14  and  C_15
REMARK    8  A    between atoms: C_24  and  O_25
REMARK                            x       y       z     vdW  Elec       q    Type
REMARK                         _______ _______ _______ _____ _____    ______ ____
ROOT
ATOM      1  C   UNL     1       2.976   5.666  18.622  0.00  0.00    +0.000 A 
ATOM      2  C   UNL     1       2.709   7.034  18.482  0.00  0.00    +0.000 A 
ATOM      3  C   UNL     1       2.019   7.733  19.476  0.00  0.00    +0.000 A 
ATOM      4  C   UNL     1       1.485   7.045  20.562  0.00  0.00    +0.000 A 
ATOM      5  C   UNL     1       1.775   5.689  20.731  0.00  0.00    +0.000 A 
ATOM      6  C   UNL     1       2.552   5.011  19.785  0.00  0.00    +0.000 A 
ATOM      7 BR   UNL     1       2.985   3.195  20.137  0.00  0.00    +0.000 Br
ENDROOT
BRANCH   1   9
ATOM      8  C   UNL     1       4.776   5.056  16.901  0.00  0.00    +0.000 C 
ATOM      9  C   UNL     1       3.556   4.975  17.453  0.00  0.00    +0.000 C 
BRANCH   8  16
ATOM     10  C   UNL     1       6.229   4.164  19.422  0.00  0.00    +0.000 C 
ATOM     11  C   UNL     1       6.612   5.385  18.633  0.00  0.00    +0.000 A 
ATOM     12  C   UNL     1       7.742   6.119  19.039  0.00  0.00    +0.000 A 
ATOM     13  C   UNL     1       8.090   7.311  18.403  0.00  0.00    +0.000 A 
ATOM     14  C   UNL     1       7.296   7.804  17.375  0.00  0.00    +0.000 A 
ATOM     15  C   UNL     1       6.195   7.068  16.937  0.00  0.00    +0.000 A 
ATOM     16  C   UNL     1       5.870   5.832  17.522  0.00  0.00    +0.000 A 
ENDBRANCH   8  16
BRANCH   8  17
ATOM     17  C   UNL     1       5.129   4.294  15.645  0.00  0.00    +0.000 C 
BRANCH  17  18
ATOM     18  O   UNL     1       5.956   3.166  15.930  0.00  0.00    +0.000 OA
ATOM     19  H   UNL     1       5.356   2.426  16.129  0.00  0.00    +0.000 HD
ENDBRANCH  17  18
ENDBRANCH   8  17
ENDBRANCH   1   9
BRANCH   3  20
ATOM     20  O   UNL     1       1.822   9.090  19.458  0.00  0.00    +0.000 OA
BRANCH  20  21
ATOM     21  C   UNL     1       0.621   9.487  20.136  0.00  0.00    +0.000 C 
BRANCH  21  22
ATOM     22  C   UNL     1      -0.066  10.631  19.450  0.00  0.00    +0.000 A 
ATOM     23  C   UNL     1      -1.360  10.572  18.841  0.00  0.00    +0.000 A 
ATOM     24  C   UNL     1      -1.712  11.754  18.230  0.00  0.00    +0.000 A 
ATOM     25  S   UNL     1      -0.502  12.950  18.397  0.00  0.00    +0.000 S 
ATOM     26  C   UNL     1       0.495  11.887  19.289  0.00  0.00    +0.000 A 
ENDBRANCH  21  22
ENDBRANCH  20  21
ENDBRANCH   3  20
TORSDOF 7
ENDMDL
MODEL 9
REMARK VINA RESULT:      -6.7      1.798      2.401
REMARK  Name = 
REMARK  8 active torsions:
REMARK  status: ('A' for Active; 'I' for Inactive)
REMARK    1  A    between atoms: C_1  and  C_2
REMARK    2  A    between atoms: C_7  and  C_8
REMARK    3  A    between atoms: C_8  and  C_24
REMARK    4  A    between atoms: C_9  and  C_10
REMARK    5  A    between atoms: C_12  and  O_13
REMARK    6  A    between atoms: O_13  and  C_14
REMARK    7  A    between atoms: C_14  and  C_15
REMARK    8  A    between atoms: C_24  and  O_25
REMARK                            x       y       z     vdW  Elec       q    Type
REMARK                         _______ _______ _______ _____ _____    ______ ____
ROOT
ATOM      1  C   UNL     1       3.603   4.377  18.350  0.00  0.00    +0.000 A 
ATOM      2  C   UNL     1       3.198   5.718  18.333  0.00  0.00    +0.000 A 
ATOM      3  C   UNL     1       2.442   6.249  19.380  0.00  0.00    +0.000 A 
ATOM      4  C   UNL     1       1.981   5.414  20.394  0.00  0.00    +0.000 A 
ATOM      5  C   UNL     1       2.406   4.085  20.441  0.00  0.00    +0.000 A 
ATOM      6  C   UNL     1       3.247   3.578  19.444  0.00  0.00    +0.000 A 
ATOM      7 BR   UNL     1       3.863   1.791  19.633  0.00  0.00    +0.000 Br
ENDROOT
BRANCH   1   9
ATOM      8  C   UNL     1       5.376   4.232  16.504  0.00  0.00    +0.000 C 
ATOM      9  C   UNL     1       4.249   3.857  17.128  0.00  0.00    +0.000 C 
BRANCH   8  16
ATOM     10  C   UNL     1       5.331   7.172  15.719  0.00  0.00    +0.000 C 
ATOM     11  C   UNL     1       6.224   6.615  16.792  0.00  0.00    +0.000 A 
ATOM     12  C   UNL     1       7.035   7.505  17.521  0.00  0.00    +0.000 A 
ATOM     13  C   UNL     1       7.950   7.036  18.463  0.00  0.00    +0.000 A 
ATOM     14  C   UNL     1       8.093   5.669  18.667  0.00  0.00    +0.000 A 
ATOM     15  C   UNL     1       7.270   4.777  17.980  0.00  0.00    +0.000 A 
ATOM     16  C   UNL     1       6.296   5.237  17.077  0.00  0.00    +0.000 A 
ENDBRANCH   8  16
BRANCH   8  17
ATOM     17  C   UNL     1       5.813   3.591  15.207  0.00  0.00    +0.000 C 
BRANCH  17  18
ATOM     18  O   UNL     1       5.187   4.205  14.081  0.00  0.00    +0.000 OA
ATOM     19  H   UNL     1       5.627   3.846  13.290  0.00  0.00    +0.000 HD
ENDBRANCH  17  18
ENDBRANCH   8  17
ENDBRANCH   1   9
BRANCH   3  20
ATOM     20  O   UNL     1       2.108   7.575  19.484  0.00  0.00    +0.000 OA
BRANCH  20  21
ATOM     21  C   UNL     1       2.014   8.228  18.209  0.00  0.00    +0.000 C 
BRANCH  21  22
ATOM     22  C   UNL     1       1.525   9.641  18.330  0.00  0.00    +0.000 A 
ATOM     23  C   UNL     1       2.332  10.812  18.158  0.00  0.00    +0.000 A 
ATOM     24  C   UNL     1       1.633  11.975  18.391  0.00  0.00    +0.000 A 
ATOM     25  S   UNL     1       0.002  11.674  18.800  0.00  0.00    +0.000 S 
ATOM     26  C   UNL     1       0.227   9.986  18.664  0.00  0.00    +0.000 A 
ENDBRANCH  21  22
ENDBRANCH  20  21
ENDBRANCH   3  20
TORSDOF 7
ENDMDL
