MODEL 1
REMARK VINA RESULT:      -8.1      0.000      0.000
REMARK  Name = 
REMARK  10 active torsions:
REMARK  status: ('A' for Active; 'I' for Inactive)
REMARK    1  A    between atoms: C_1  and  O_2
REMARK    2  A    between atoms: O_2  and  C_3
REMARK    3  A    between atoms: C_3  and  C_4
REMARK    4  A    between atoms: C_4  and  N_5
REMARK    5  A    between atoms: N_5  and  C_6
REMARK    6  A    between atoms: N_14  and  C_15
REMARK    7  A    between atoms: C_18  and  C_19
REMARK    8  A    between atoms: N_22  and  C_23
REMARK    9  A    between atoms: C_26  and  O_27
REMARK   10  A    between atoms: O_27  and  C_28
REMARK                            x       y       z     vdW  Elec       q    Type
REMARK                         _______ _______ _______ _____ _____    ______ ____
ROOT
ATOM      1  C   UNL     1       6.381   6.373  16.689  0.00  0.00    +0.000 A 
ATOM      2  N   UNL     1       7.328   5.707  15.975  0.00  0.00    +0.000 NA
ATOM      3  C   UNL     1       7.065   4.441  15.608  0.00  0.00    +0.000 A 
ATOM      4  C   UNL     1       5.876   3.802  15.888  0.00  0.00    +0.000 A 
ATOM      5  C   UNL     1       4.922   4.494  16.649  0.00  0.00    +0.000 A 
ATOM      6  C   UNL     1       3.687   3.972  16.987  0.00  0.00    +0.000 A 
ATOM      7  N   UNL     1       2.781   4.605  17.759  0.00  0.00    +0.000 NA
ATOM      8  C   UNL     1       3.123   5.822  18.197  0.00  0.00    +0.000 A 
ATOM      9  N   UNL     1       2.225   6.475  19.050  0.00  0.00    +0.000 N 
ATOM     10  N   UNL     1       4.268   6.438  17.865  0.00  0.00    +0.000 NA
ATOM     11  C   UNL     1       5.169   5.784  17.106  0.00  0.00    +0.000 A 
ATOM     12  H   UNL     1       1.353   5.958  19.026  0.00  0.00    +0.000 HD
ENDROOT
BRANCH   9  13
ATOM     13  C   UNL     1       2.018   7.873  19.069  0.00  0.00    +0.000 A 
ATOM     14  C   UNL     1       2.246   8.617  17.895  0.00  0.00    +0.000 A 
ATOM     15  C   UNL     1       1.939   9.974  17.814  0.00  0.00    +0.000 A 
ATOM     16  C   UNL     1       1.365  10.629  18.902  0.00  0.00    +0.000 A 
ATOM     17  C   UNL     1       1.133   9.903  20.076  0.00  0.00    +0.000 A 
ATOM     18  C   UNL     1       1.445   8.536  20.168  0.00  0.00    +0.000 A 
BRANCH  16  19
ATOM     19  C   UNL     1       0.952  12.012  18.770  0.00  0.00    +0.000 A 
ATOM     20  C   UNL     1      -0.329  12.558  18.533  0.00  0.00    +0.000 A 
ATOM     21  N   UNL     1      -0.327  13.893  18.507  0.00  0.00    +0.000 NA
ATOM     22  N   UNL     1       0.959  14.205  18.738  0.00  0.00    +0.000 N 
ATOM     23  C   UNL     1       1.360  15.587  18.835  0.00  0.00    +0.000 C 
ATOM     24  C   UNL     1       1.769  13.116  18.889  0.00  0.00    +0.000 A 
ENDBRANCH  16  19
BRANCH  18  25
ATOM     25  O   UNL     1       1.073   7.981  21.367  0.00  0.00    +0.000 OA
ATOM     26  C   UNL     1       0.231   8.760  22.209  0.00  0.00    +0.000 C 
ENDBRANCH  18  25
ENDBRANCH   9  13
BRANCH   1  27
ATOM     27  N   UNL     1       6.636   7.721  17.049  0.00  0.00    +0.000 N 
ATOM     28  H   UNL     1       6.652   8.269  16.184  0.00  0.00    +0.000 HD
BRANCH  27  29
ATOM     29  C   UNL     1       7.880   7.915  17.804  0.00  0.00    +0.000 C 
BRANCH  29  30
ATOM     30  C   UNL     1       8.231   9.403  17.981  0.00  0.00    +0.000 C 
BRANCH  30  32
ATOM     31  C   UNL     1       9.674  10.848  19.159  0.00  0.00    +0.000 C 
ATOM     32  O   UNL     1       9.058   9.567  19.141  0.00  0.00    +0.000 OA
ENDBRANCH  30  32
ENDBRANCH  29  30
ENDBRANCH  27  29
ENDBRANCH   1  27
TORSDOF 7
ENDMDL
MODEL 2
REMARK VINA RESULT:      -7.9      3.079      8.876
REMARK  Name = 
REMARK  10 active torsions:
REMARK  status: ('A' for Active; 'I' for Inactive)
REMARK    1  A    between atoms: C_1  and  O_2
REMARK    2  A    between atoms: O_2  and  C_3
REMARK    3  A    between atoms: C_3  and  C_4
REMARK    4  A    between atoms: C_4  and  N_5
REMARK    5  A    between atoms: N_5  and  C_6
REMARK    6  A    between atoms: N_14  and  C_15
REMARK    7  A    between atoms: C_18  and  C_19
REMARK    8  A    between atoms: N_22  and  C_23
REMARK    9  A    between atoms: C_26  and  O_27
REMARK   10  A    between atoms: O_27  and  C_28
REMARK                            x       y       z     vdW  Elec       q    Type
REMARK                         _______ _______ _______ _____ _____    ______ ____
ROOT
ATOM      1  C   UNL     1      -1.270  11.303  18.965  0.00  0.00    +0.000 A 
ATOM      2  N   UNL     1      -1.991  12.455  18.986  0.00  0.00    +0.000 NA
ATOM      3  C   UNL     1      -2.096  13.113  20.154  0.00  0.00    +0.000 A 
ATOM      4  C   UNL     1      -1.483  12.694  21.316  0.00  0.00    +0.000 A 
ATOM      5  C   UNL     1      -0.767  11.488  21.283  0.00  0.00    +0.000 A 
ATOM      6  C   UNL     1      -0.098  10.965  22.375  0.00  0.00    +0.000 A 
ATOM      7  N   UNL     1       0.552   9.784  22.372  0.00  0.00    +0.000 NA
ATOM      8  C   UNL     1       0.543   9.106  21.219  0.00  0.00    +0.000 A 
ATOM      9  N   UNL     1       1.159   7.848  21.208  0.00  0.00    +0.000 N 
ATOM     10  N   UNL     1      -0.020   9.563  20.091  0.00  0.00    +0.000 NA
ATOM     11  C   UNL     1      -0.679  10.739  20.116  0.00  0.00    +0.000 A 
ATOM     12  H   UNL     1       1.688   7.761  22.068  0.00  0.00    +0.000 HD
ENDROOT
BRANCH   9  13
ATOM     13  C   UNL     1       1.848   7.309  20.098  0.00  0.00    +0.000 A 
ATOM     14  C   UNL     1       2.183   8.154  19.022  0.00  0.00    +0.000 A 
ATOM     15  C   UNL     1       2.970   7.713  17.960  0.00  0.00    +0.000 A 
ATOM     16  C   UNL     1       3.476   6.415  17.953  0.00  0.00    +0.000 A 
ATOM     17  C   UNL     1       3.151   5.563  19.016  0.00  0.00    +0.000 A 
ATOM     18  C   UNL     1       2.353   5.998  20.088  0.00  0.00    +0.000 A 
BRANCH  16  19
ATOM     19  C   UNL     1       4.381   6.003  16.899  0.00  0.00    +0.000 A 
ATOM     20  C   UNL     1       5.105   6.782  15.969  0.00  0.00    +0.000 A 
ATOM     21  N   UNL     1       5.872   6.046  15.161  0.00  0.00    +0.000 NA
ATOM     22  N   UNL     1       5.647   4.790  15.582  0.00  0.00    +0.000 N 
ATOM     23  C   UNL     1       6.350   3.688  14.971  0.00  0.00    +0.000 C 
ATOM     24  C   UNL     1       4.752   4.708  16.610  0.00  0.00    +0.000 A 
ENDBRANCH  16  19
BRANCH  18  25
ATOM     25  O   UNL     1       2.211   5.049  21.069  0.00  0.00    +0.000 OA
ATOM     26  C   UNL     1       1.488   3.871  20.733  0.00  0.00    +0.000 C 
ENDBRANCH  18  25
ENDBRANCH   9  13
BRANCH   1  27
ATOM     27  N   UNL     1      -1.125  10.623  17.729  0.00  0.00    +0.000 N 
ATOM     28  H   UNL     1      -0.793  11.308  17.043  0.00  0.00    +0.000 HD
BRANCH  27  29
ATOM     29  C   UNL     1      -2.352   9.973  17.254  0.00  0.00    +0.000 C 
BRANCH  29  30
ATOM     30  C   UNL     1      -2.685  10.345  15.799  0.00  0.00    +0.000 C 
BRANCH  30  32
ATOM     31  C   UNL     1      -4.607  11.278  16.798  0.00  0.00    +0.000 C 
ATOM     32  O   UNL     1      -3.624  11.430  15.783  0.00  0.00    +0.000 OA
ENDBRANCH  30  32
ENDBRANCH  29  30
ENDBRANCH  27  29
ENDBRANCH   1  27
TORSDOF 7
ENDMDL
MODEL 3
REMARK VINA RESULT:      -7.7      3.226      8.854
REMARK  Name = 
REMARK  10 active torsions:
REMARK  status: ('A' for Active; 'I' for Inactive)
REMARK    1  A    between atoms: C_1  and  O_2
REMARK    2  A    between atoms: O_2  and  C_3
REMARK    3  A    between atoms: C_3  and  C_4
REMARK    4  A    between atoms: C_4  and  N_5
REMARK    5  A    between atoms: N_5  and  C_6
REMARK    6  A    between atoms: N_14  and  C_15
REMARK    7  A    between atoms: C_18  and  C_19
REMARK    8  A    between atoms: N_22  and  C_23
REMARK    9  A    between atoms: C_26  and  O_27
REMARK   10  A    between atoms: O_27  and  C_28
REMARK                            x       y       z     vdW  Elec       q    Type
REMARK                         _______ _______ _______ _____ _____    ______ ____
ROOT
ATOM      1  C   UNL     1      -1.077  10.915  18.577  0.00  0.00    +0.000 A 
ATOM      2  N   UNL     1      -1.773  12.078  18.471  0.00  0.00    +0.000 NA
ATOM      3  C   UNL     1      -1.805  12.892  19.541  0.00  0.00    +0.000 A 
ATOM      4  C   UNL     1      -1.142  12.622  20.719  0.00  0.00    +0.000 A 
ATOM      5  C   UNL     1      -0.453  11.404  20.820  0.00  0.00    +0.000 A 
ATOM      6  C   UNL     1       0.261  11.019  21.940  0.00  0.00    +0.000 A 
ATOM      7  N   UNL     1       0.886   9.831  22.070  0.00  0.00    +0.000 NA
ATOM      8  C   UNL     1       0.804   9.001  21.024  0.00  0.00    +0.000 A 
ATOM      9  N   UNL     1       1.393   7.737  21.158  0.00  0.00    +0.000 N 
ATOM     10  N   UNL     1       0.194   9.314  19.871  0.00  0.00    +0.000 NA
ATOM     11  C   UNL     1      -0.440  10.499  19.764  0.00  0.00    +0.000 A 
ATOM     12  H   UNL     1       1.964   7.756  21.996  0.00  0.00    +0.000 HD
ENDROOT
BRANCH   9  13
ATOM     13  C   UNL     1       2.014   7.033  20.102  0.00  0.00    +0.000 A 
ATOM     14  C   UNL     1       2.566   7.755  19.026  0.00  0.00    +0.000 A 
ATOM     15  C   UNL     1       3.300   7.128  18.021  0.00  0.00    +0.000 A 
ATOM     16  C   UNL     1       3.532   5.755  18.074  0.00  0.00    +0.000 A 
ATOM     17  C   UNL     1       2.989   5.024  19.138  0.00  0.00    +0.000 A 
ATOM     18  C   UNL     1       2.243   5.647  20.152  0.00  0.00    +0.000 A 
BRANCH  16  19
ATOM     19  C   UNL     1       4.387   5.134  17.082  0.00  0.00    +0.000 A 
ATOM     20  C   UNL     1       4.588   3.767  16.786  0.00  0.00    +0.000 A 
ATOM     21  N   UNL     1       5.435   3.575  15.771  0.00  0.00    +0.000 NA
ATOM     22  N   UNL     1       5.770   4.825  15.409  0.00  0.00    +0.000 N 
ATOM     23  C   UNL     1       6.653   5.039  14.287  0.00  0.00    +0.000 C 
ATOM     24  C   UNL     1       5.182   5.794  16.170  0.00  0.00    +0.000 A 
ENDBRANCH  16  19
BRANCH  18  25
ATOM     25  O   UNL     1       1.863   4.781  21.146  0.00  0.00    +0.000 OA
ATOM     26  C   UNL     1       1.434   3.484  20.749  0.00  0.00    +0.000 C 
ENDBRANCH  18  25
ENDBRANCH   9  13
BRANCH   1  27
ATOM     27  N   UNL     1      -1.009  10.068  17.441  0.00  0.00    +0.000 N 
ATOM     28  H   UNL     1      -0.391  10.520  16.761  0.00  0.00    +0.000 HD
BRANCH  27  29
ATOM     29  C   UNL     1      -2.313   9.773  16.834  0.00  0.00    +0.000 C 
BRANCH  29  30
ATOM     30  C   UNL     1      -2.666  10.756  15.704  0.00  0.00    +0.000 C 
BRANCH  30  32
ATOM     31  C   UNL     1      -3.502   9.947  13.653  0.00  0.00    +0.000 C 
ATOM     32  O   UNL     1      -3.821  10.281  14.997  0.00  0.00    +0.000 OA
ENDBRANCH  30  32
ENDBRANCH  29  30
ENDBRANCH  27  29
ENDBRANCH   1  27
TORSDOF 7
ENDMDL
MODEL 4
REMARK VINA RESULT:      -7.5      3.220      8.920
REMARK  Name = 
REMARK  10 active torsions:
REMARK  status: ('A' for Active; 'I' for Inactive)
REMARK    1  A    between atoms: C_1  and  O_2
REMARK    2  A    between atoms: O_2  and  C_3
REMARK    3  A    between atoms: C_3  and  C_4
REMARK    4  A    between atoms: C_4  and  N_5
REMARK    5  A    between atoms: N_5  and  C_6
REMARK    6  A    between atoms: N_14  and  C_15
REMARK    7  A    between atoms: C_18  and  C_19
REMARK    8  A    between atoms: N_22  and  C_23
REMARK    9  A    between atoms: C_26  and  O_27
REMARK   10  A    between atoms: O_27  and  C_28
REMARK                            x       y       z     vdW  Elec       q    Type
REMARK                         _______ _______ _______ _____ _____    ______ ____
ROOT
ATOM      1  C   UNL     1      -0.965  10.993  18.599  0.00  0.00    +0.000 A 
ATOM      2  N   UNL     1      -1.622  12.179  18.500  0.00  0.00    +0.000 NA
ATOM      3  C   UNL     1      -1.655  12.974  19.584  0.00  0.00    +0.000 A 
ATOM      4  C   UNL     1      -1.029  12.661  20.772  0.00  0.00    +0.000 A 
ATOM      5  C   UNL     1      -0.381  11.421  20.866  0.00  0.00    +0.000 A 
ATOM      6  C   UNL     1       0.294  10.993  21.995  0.00  0.00    +0.000 A 
ATOM      7  N   UNL     1       0.879   9.785  22.117  0.00  0.00    +0.000 NA
ATOM      8  C   UNL     1       0.798   8.978  21.053  0.00  0.00    +0.000 A 
ATOM      9  N   UNL     1       1.345   7.694  21.176  0.00  0.00    +0.000 N 
ATOM     10  N   UNL     1       0.225   9.330  19.892  0.00  0.00    +0.000 NA
ATOM     11  C   UNL     1      -0.369  10.536  19.794  0.00  0.00    +0.000 A 
ATOM     12  H   UNL     1       1.895   7.679  22.028  0.00  0.00    +0.000 HD
ENDROOT
BRANCH   9  13
ATOM     13  C   UNL     1       1.969   6.990  20.122  0.00  0.00    +0.000 A 
ATOM     14  C   UNL     1       2.568   7.715  19.074  0.00  0.00    +0.000 A 
ATOM     15  C   UNL     1       3.308   7.085  18.074  0.00  0.00    +0.000 A 
ATOM     16  C   UNL     1       3.497   5.704  18.106  0.00  0.00    +0.000 A 
ATOM     17  C   UNL     1       2.907   4.971  19.142  0.00  0.00    +0.000 A 
ATOM     18  C   UNL     1       2.155   5.598  20.150  0.00  0.00    +0.000 A 
BRANCH  16  19
ATOM     19  C   UNL     1       4.356   5.076  17.123  0.00  0.00    +0.000 A 
ATOM     20  C   UNL     1       4.527   3.709  16.809  0.00  0.00    +0.000 A 
ATOM     21  N   UNL     1       5.390   3.510  15.810  0.00  0.00    +0.000 NA
ATOM     22  N   UNL     1       5.767   4.756  15.475  0.00  0.00    +0.000 N 
ATOM     23  C   UNL     1       6.680   4.963  14.377  0.00  0.00    +0.000 C 
ATOM     24  C   UNL     1       5.188   5.728  16.240  0.00  0.00    +0.000 A 
ENDBRANCH  16  19
BRANCH  18  25
ATOM     25  O   UNL     1       1.725   4.725  21.119  0.00  0.00    +0.000 OA
ATOM     26  C   UNL     1       2.397   3.474  21.210  0.00  0.00    +0.000 C 
ENDBRANCH  18  25
ENDBRANCH   9  13
BRANCH   1  27
ATOM     27  N   UNL     1      -0.895  10.166  17.450  0.00  0.00    +0.000 N 
ATOM     28  H   UNL     1      -0.131  10.520  16.867  0.00  0.00    +0.000 HD
BRANCH  27  29
ATOM     29  C   UNL     1      -2.143  10.104  16.679  0.00  0.00    +0.000 C 
BRANCH  29  30
ATOM     30  C   UNL     1      -3.365   9.814  17.568  0.00  0.00    +0.000 C 
BRANCH  30  32
ATOM     31  C   UNL     1      -5.365  10.816  18.313  0.00  0.00    +0.000 C 
ATOM     32  O   UNL     1      -4.417  10.738  17.256  0.00  0.00    +0.000 OA
ENDBRANCH  30  32
ENDBRANCH  29  30
ENDBRANCH  27  29
ENDBRANCH   1  27
TORSDOF 7
ENDMDL
MODEL 5
REMARK VINA RESULT:      -7.3      1.614      2.442
REMARK  Name = 
REMARK  10 active torsions:
REMARK  status: ('A' for Active; 'I' for Inactive)
REMARK    1  A    between atoms: C_1  and  O_2
REMARK    2  A    between atoms: O_2  and  C_3
REMARK    3  A    between atoms: C_3  and  C_4
REMARK    4  A    between atoms: C_4  and  N_5
REMARK    5  A    between atoms: N_5  and  C_6
REMARK    6  A    between atoms: N_14  and  C_15
REMARK    7  A    between atoms: C_18  and  C_19
REMARK    8  A    between atoms: N_22  and  C_23
REMARK    9  A    between atoms: C_26  and  O_27
REMARK   10  A    between atoms: O_27  and  C_28
REMARK                            x       y       z     vdW  Elec       q    Type
REMARK                         _______ _______ _______ _____ _____    ______ ____
ROOT
ATOM      1  C   UNL     1       3.910   5.302  17.497  0.00  0.00    +0.000 A 
ATOM      2  N   UNL     1       4.335   4.244  16.755  0.00  0.00    +0.000 NA
ATOM      3  C   UNL     1       3.804   3.036  17.018  0.00  0.00    +0.000 A 
ATOM      4  C   UNL     1       2.832   2.828  17.973  0.00  0.00    +0.000 A 
ATOM      5  C   UNL     1       2.426   3.925  18.747  0.00  0.00    +0.000 A 
ATOM      6  C   UNL     1       1.452   3.852  19.727  0.00  0.00    +0.000 A 
ATOM      7  N   UNL     1       1.088   4.886  20.512  0.00  0.00    +0.000 NA
ATOM      8  C   UNL     1       1.717   6.046  20.294  0.00  0.00    +0.000 A 
ATOM      9  N   UNL     1       1.399   7.119  21.137  0.00  0.00    +0.000 N 
ATOM     10  N   UNL     1       2.623   6.231  19.323  0.00  0.00    +0.000 NA
ATOM     11  C   UNL     1       2.988   5.182  18.557  0.00  0.00    +0.000 A 
ATOM     12  H   UNL     1       0.573   6.857  21.664  0.00  0.00    +0.000 HD
ENDROOT
BRANCH   9  13
ATOM     13  C   UNL     1       1.368   8.471  20.728  0.00  0.00    +0.000 A 
ATOM     14  C   UNL     1       1.488   8.776  19.358  0.00  0.00    +0.000 A 
ATOM     15  C   UNL     1       1.338  10.077  18.880  0.00  0.00    +0.000 A 
ATOM     16  C   UNL     1       1.031  11.116  19.757  0.00  0.00    +0.000 A 
ATOM     17  C   UNL     1       0.909  10.827  21.121  0.00  0.00    +0.000 A 
ATOM     18  C   UNL     1       1.066   9.520  21.613  0.00  0.00    +0.000 A 
BRANCH  16  19
ATOM     19  C   UNL     1       0.771  12.442  19.234  0.00  0.00    +0.000 A 
ATOM     20  C   UNL     1      -0.367  12.947  18.567  0.00  0.00    +0.000 A 
ATOM     21  N   UNL     1      -0.257  14.242  18.261  0.00  0.00    +0.000 NA
ATOM     22  N   UNL     1       0.954  14.572  18.743  0.00  0.00    +0.000 N 
ATOM     23  C   UNL     1       1.423  15.932  18.645  0.00  0.00    +0.000 C 
ATOM     24  C   UNL     1       1.616  13.527  19.323  0.00  0.00    +0.000 A 
ENDBRANCH  16  19
BRANCH  18  25
ATOM     25  O   UNL     1       0.831   9.423  22.961  0.00  0.00    +0.000 OA
ATOM     26  C   UNL     1      -0.435   9.871  23.434  0.00  0.00    +0.000 C 
ENDBRANCH  18  25
ENDBRANCH   9  13
BRANCH   1  27
ATOM     27  N   UNL     1       4.439   6.584  17.201  0.00  0.00    +0.000 N 
ATOM     28  H   UNL     1       3.684   7.134  16.780  0.00  0.00    +0.000 HD
BRANCH  27  29
ATOM     29  C   UNL     1       5.612   6.560  16.319  0.00  0.00    +0.000 C 
BRANCH  29  30
ATOM     30  C   UNL     1       6.930   6.433  17.103  0.00  0.00    +0.000 C 
BRANCH  30  32
ATOM     31  C   UNL     1       7.921   8.463  17.780  0.00  0.00    +0.000 C 
ATOM     32  O   UNL     1       7.813   7.503  16.737  0.00  0.00    +0.000 OA
ENDBRANCH  30  32
ENDBRANCH  29  30
ENDBRANCH  27  29
ENDBRANCH   1  27
TORSDOF 7
ENDMDL
MODEL 6
REMARK VINA RESULT:      -7.3      1.012      1.314
REMARK  Name = 
REMARK  10 active torsions:
REMARK  status: ('A' for Active; 'I' for Inactive)
REMARK    1  A    between atoms: C_1  and  O_2
REMARK    2  A    between atoms: O_2  and  C_3
REMARK    3  A    between atoms: C_3  and  C_4
REMARK    4  A    between atoms: C_4  and  N_5
REMARK    5  A    between atoms: N_5  and  C_6
REMARK    6  A    between atoms: N_14  and  C_15
REMARK    7  A    between atoms: C_18  and  C_19
REMARK    8  A    between atoms: N_22  and  C_23
REMARK    9  A    between atoms: C_26  and  O_27
REMARK   10  A    between atoms: O_27  and  C_28
REMARK                            x       y       z     vdW  Elec       q    Type
REMARK                         _______ _______ _______ _____ _____    ______ ____
ROOT
ATOM      1  C   UNL     1       6.181   6.273  16.517  0.00  0.00    +0.000 A 
ATOM      2  N   UNL     1       7.079   5.590  15.759  0.00  0.00    +0.000 NA
ATOM      3  C   UNL     1       6.788   4.320  15.428  0.00  0.00    +0.000 A 
ATOM      4  C   UNL     1       5.614   3.694  15.789  0.00  0.00    +0.000 A 
ATOM      5  C   UNL     1       4.712   4.403  16.596  0.00  0.00    +0.000 A 
ATOM      6  C   UNL     1       3.497   3.894  17.016  0.00  0.00    +0.000 A 
ATOM      7  N   UNL     1       2.643   4.545  17.831  0.00  0.00    +0.000 NA
ATOM      8  C   UNL     1       3.018   5.766  18.229  0.00  0.00    +0.000 A 
ATOM      9  N   UNL     1       2.176   6.438  19.124  0.00  0.00    +0.000 N 
ATOM     10  N   UNL     1       4.143   6.370  17.819  0.00  0.00    +0.000 NA
ATOM     11  C   UNL     1       4.994   5.698  17.016  0.00  0.00    +0.000 A 
ATOM     12  H   UNL     1       1.302   5.926  19.162  0.00  0.00    +0.000 HD
ENDROOT
BRANCH   9  13
ATOM     13  C   UNL     1       1.979   7.837  19.134  0.00  0.00    +0.000 A 
ATOM     14  C   UNL     1       2.261   8.578  17.971  0.00  0.00    +0.000 A 
ATOM     15  C   UNL     1       1.968   9.938  17.876  0.00  0.00    +0.000 A 
ATOM     16  C   UNL     1       1.353  10.598  18.938  0.00  0.00    +0.000 A 
ATOM     17  C   UNL     1       1.067   9.874  20.102  0.00  0.00    +0.000 A 
ATOM     18  C   UNL     1       1.364   8.505  20.207  0.00  0.00    +0.000 A 
BRANCH  16  19
ATOM     19  C   UNL     1       0.956  11.983  18.788  0.00  0.00    +0.000 A 
ATOM     20  C   UNL     1      -0.324  12.543  18.576  0.00  0.00    +0.000 A 
ATOM     21  N   UNL     1      -0.305  13.876  18.521  0.00  0.00    +0.000 NA
ATOM     22  N   UNL     1       0.992  14.175  18.709  0.00  0.00    +0.000 N 
ATOM     23  C   UNL     1       1.415  15.553  18.764  0.00  0.00    +0.000 C 
ATOM     24  C   UNL     1       1.791  13.077  18.859  0.00  0.00    +0.000 A 
ENDBRANCH  16  19
BRANCH  18  25
ATOM     25  O   UNL     1       0.938   7.954  21.390  0.00  0.00    +0.000 OA
ATOM     26  C   UNL     1      -0.267   8.464  21.946  0.00  0.00    +0.000 C 
ENDBRANCH  18  25
ENDBRANCH   9  13
BRANCH   1  27
ATOM     27  N   UNL     1       6.465   7.625  16.840  0.00  0.00    +0.000 N 
ATOM     28  H   UNL     1       6.224   8.190  16.021  0.00  0.00    +0.000 HD
BRANCH  27  29
ATOM     29  C   UNL     1       7.856   7.866  17.241  0.00  0.00    +0.000 C 
BRANCH  29  30
ATOM     30  C   UNL     1       8.106   7.526  18.721  0.00  0.00    +0.000 C 
BRANCH  30  32
ATOM     31  C   UNL     1       7.443   5.518  19.763  0.00  0.00    +0.000 C 
ATOM     32  O   UNL     1       8.356   6.120  18.855  0.00  0.00    +0.000 OA
ENDBRANCH  30  32
ENDBRANCH  29  30
ENDBRANCH  27  29
ENDBRANCH   1  27
TORSDOF 7
ENDMDL
MODEL 7
REMARK VINA RESULT:      -7.2      2.896      6.735
REMARK  Name = 
REMARK  10 active torsions:
REMARK  status: ('A' for Active; 'I' for Inactive)
REMARK    1  A    between atoms: C_1  and  O_2
REMARK    2  A    between atoms: O_2  and  C_3
REMARK    3  A    between atoms: C_3  and  C_4
REMARK    4  A    between atoms: C_4  and  N_5
REMARK    5  A    between atoms: N_5  and  C_6
REMARK    6  A    between atoms: N_14  and  C_15
REMARK    7  A    between atoms: C_18  and  C_19
REMARK    8  A    between atoms: N_22  and  C_23
REMARK    9  A    between atoms: C_26  and  O_27
REMARK   10  A    between atoms: O_27  and  C_28
REMARK                            x       y       z     vdW  Elec       q    Type
REMARK                         _______ _______ _______ _____ _____    ______ ____
ROOT
ATOM      1  C   UNL     1       2.222   5.558  19.971  0.00  0.00    +0.000 A 
ATOM      2  N   UNL     1       1.118   5.146  20.649  0.00  0.00    +0.000 NA
ATOM      3  C   UNL     1       0.858   3.827  20.688  0.00  0.00    +0.000 A 
ATOM      4  C   UNL     1       1.672   2.877  20.107  0.00  0.00    +0.000 A 
ATOM      5  C   UNL     1       2.791   3.323  19.387  0.00  0.00    +0.000 A 
ATOM      6  C   UNL     1       3.691   2.473  18.769  0.00  0.00    +0.000 A 
ATOM      7  N   UNL     1       4.742   2.888  18.033  0.00  0.00    +0.000 NA
ATOM      8  C   UNL     1       4.905   4.211  17.927  0.00  0.00    +0.000 A 
ATOM      9  N   UNL     1       5.954   4.667  17.118  0.00  0.00    +0.000 N 
ATOM     10  N   UNL     1       4.126   5.110  18.546  0.00  0.00    +0.000 NA
ATOM     11  C   UNL     1       3.070   4.679  19.265  0.00  0.00    +0.000 A 
ATOM     12  H   UNL     1       6.540   3.868  16.902  0.00  0.00    +0.000 HD
ENDROOT
BRANCH   9  13
ATOM     13  C   UNL     1       6.711   5.832  17.376  0.00  0.00    +0.000 A 
ATOM     14  C   UNL     1       6.384   7.025  16.702  0.00  0.00    +0.000 A 
ATOM     15  C   UNL     1       7.008   8.234  17.006  0.00  0.00    +0.000 A 
ATOM     16  C   UNL     1       7.964   8.295  18.018  0.00  0.00    +0.000 A 
ATOM     17  C   UNL     1       8.298   7.117  18.696  0.00  0.00    +0.000 A 
ATOM     18  C   UNL     1       7.679   5.893  18.392  0.00  0.00    +0.000 A 
BRANCH  16  19
ATOM     19  C   UNL     1       8.526   9.576  18.397  0.00  0.00    +0.000 A 
ATOM     20  C   UNL     1       9.278   9.936  19.538  0.00  0.00    +0.000 A 
ATOM     21  N   UNL     1       9.658  11.216  19.526  0.00  0.00    +0.000 NA
ATOM     22  N   UNL     1       9.156  11.677  18.368  0.00  0.00    +0.000 N 
ATOM     23  C   UNL     1       9.403  13.040  17.966  0.00  0.00    +0.000 C 
ATOM     24  C   UNL     1       8.458  10.740  17.661  0.00  0.00    +0.000 A 
ENDBRANCH  16  19
BRANCH  18  25
ATOM     25  O   UNL     1       8.080   4.871  19.215  0.00  0.00    +0.000 OA
ATOM     26  C   UNL     1       8.533   5.225  20.517  0.00  0.00    +0.000 C 
ENDBRANCH  18  25
ENDBRANCH   9  13
BRANCH   1  27
ATOM     27  N   UNL     1       2.522   6.944  19.955  0.00  0.00    +0.000 N 
ATOM     28  H   UNL     1       3.493   7.048  20.264  0.00  0.00    +0.000 HD
BRANCH  27  29
ATOM     29  C   UNL     1       1.628   7.760  20.786  0.00  0.00    +0.000 C 
BRANCH  29  30
ATOM     30  C   UNL     1       1.113   9.004  20.042  0.00  0.00    +0.000 C 
BRANCH  30  32
ATOM     31  C   UNL     1       1.747  10.320  18.190  0.00  0.00    +0.000 C 
ATOM     32  O   UNL     1       1.607   8.998  18.695  0.00  0.00    +0.000 OA
ENDBRANCH  30  32
ENDBRANCH  29  30
ENDBRANCH  27  29
ENDBRANCH   1  27
TORSDOF 7
ENDMDL
MODEL 8
REMARK VINA RESULT:      -7.2      3.237      7.061
REMARK  Name = 
REMARK  10 active torsions:
REMARK  status: ('A' for Active; 'I' for Inactive)
REMARK    1  A    between atoms: C_1  and  O_2
REMARK    2  A    between atoms: O_2  and  C_3
REMARK    3  A    between atoms: C_3  and  C_4
REMARK    4  A    between atoms: C_4  and  N_5
REMARK    5  A    between atoms: N_5  and  C_6
REMARK    6  A    between atoms: N_14  and  C_15
REMARK    7  A    between atoms: C_18  and  C_19
REMARK    8  A    between atoms: N_22  and  C_23
REMARK    9  A    between atoms: C_26  and  O_27
REMARK   10  A    between atoms: O_27  and  C_28
REMARK                            x       y       z     vdW  Elec       q    Type
REMARK                         _______ _______ _______ _____ _____    ______ ____
ROOT
ATOM      1  C   UNL     1       2.208   5.302  20.099  0.00  0.00    +0.000 A 
ATOM      2  N   UNL     1       1.079   4.791  20.659  0.00  0.00    +0.000 NA
ATOM      3  C   UNL     1       1.022   3.463  20.862  0.00  0.00    +0.000 A 
ATOM      4  C   UNL     1       2.059   2.606  20.562  0.00  0.00    +0.000 A 
ATOM      5  C   UNL     1       3.204   3.146  19.957  0.00  0.00    +0.000 A 
ATOM      6  C   UNL     1       4.316   2.397  19.619  0.00  0.00    +0.000 A 
ATOM      7  N   UNL     1       5.403   2.893  18.993  0.00  0.00    +0.000 NA
ATOM      8  C   UNL     1       5.378   4.200  18.710  0.00  0.00    +0.000 A 
ATOM      9  N   UNL     1       6.468   4.727  18.007  0.00  0.00    +0.000 N 
ATOM     10  N   UNL     1       4.375   5.019  19.061  0.00  0.00    +0.000 NA
ATOM     11  C   UNL     1       3.289   4.503  19.671  0.00  0.00    +0.000 A 
ATOM     12  H   UNL     1       7.198   4.023  18.006  0.00  0.00    +0.000 HD
ENDROOT
BRANCH   9  13
ATOM     13  C   UNL     1       6.982   6.030  18.193  0.00  0.00    +0.000 A 
ATOM     14  C   UNL     1       7.939   6.253  19.201  0.00  0.00    +0.000 A 
ATOM     15  C   UNL     1       8.575   7.484  19.351  0.00  0.00    +0.000 A 
ATOM     16  C   UNL     1       8.294   8.530  18.474  0.00  0.00    +0.000 A 
ATOM     17  C   UNL     1       7.343   8.324  17.467  0.00  0.00    +0.000 A 
ATOM     18  C   UNL     1       6.693   7.087  17.313  0.00  0.00    +0.000 A 
BRANCH  16  19
ATOM     19  C   UNL     1       9.039   9.769  18.574  0.00  0.00    +0.000 A 
ATOM     20  C   UNL     1       9.666  10.364  19.691  0.00  0.00    +0.000 A 
ATOM     21  N   UNL     1      10.295  11.502  19.388  0.00  0.00    +0.000 NA
ATOM     22  N   UNL     1      10.079  11.633  18.069  0.00  0.00    +0.000 N 
ATOM     23  C   UNL     1      10.655  12.743  17.350  0.00  0.00    +0.000 C 
ATOM     24  C   UNL     1       9.321  10.630  17.535  0.00  0.00    +0.000 A 
ENDBRANCH  16  19
BRANCH  18  25
ATOM     25  O   UNL     1       5.858   7.054  16.225  0.00  0.00    +0.000 OA
ATOM     26  C   UNL     1       4.460   7.136  16.476  0.00  0.00    +0.000 C 
ENDBRANCH  18  25
ENDBRANCH   9  13
BRANCH   1  27
ATOM     27  N   UNL     1       2.290   6.706  19.915  0.00  0.00    +0.000 N 
ATOM     28  H   UNL     1       3.285   6.952  19.897  0.00  0.00    +0.000 HD
BRANCH  27  29
ATOM     29  C   UNL     1       1.587   7.487  20.940  0.00  0.00    +0.000 C 
BRANCH  29  30
ATOM     30  C   UNL     1       1.141   8.865  20.420  0.00  0.00    +0.000 C 
BRANCH  30  32
ATOM     31  C   UNL     1      -0.203  10.552  21.372  0.00  0.00    +0.000 C 
ATOM     32  O   UNL     1       0.969   9.763  21.526  0.00  0.00    +0.000 OA
ENDBRANCH  30  32
ENDBRANCH  29  30
ENDBRANCH  27  29
ENDBRANCH   1  27
TORSDOF 7
ENDMDL
MODEL 9
REMARK VINA RESULT:      -7.1      3.191      6.846
REMARK  Name = 
REMARK  10 active torsions:
REMARK  status: ('A' for Active; 'I' for Inactive)
REMARK    1  A    between atoms: C_1  and  O_2
REMARK    2  A    between atoms: O_2  and  C_3
REMARK    3  A    between atoms: C_3  and  C_4
REMARK    4  A    between atoms: C_4  and  N_5
REMARK    5  A    between atoms: N_5  and  C_6
REMARK    6  A    between atoms: N_14  and  C_15
REMARK    7  A    between atoms: C_18  and  C_19
REMARK    8  A    between atoms: N_22  and  C_23
REMARK    9  A    between atoms: C_26  and  O_27
REMARK   10  A    between atoms: O_27  and  C_28
REMARK                            x       y       z     vdW  Elec       q    Type
REMARK                         _______ _______ _______ _____ _____    ______ ____
ROOT
ATOM      1  C   UNL     1       2.407   5.447  20.112  0.00  0.00    +0.000 A 
ATOM      2  N   UNL     1       1.345   4.970  20.814  0.00  0.00    +0.000 NA
ATOM      3  C   UNL     1       1.074   3.656  20.732  0.00  0.00    +0.000 A 
ATOM      4  C   UNL     1       1.837   2.770  20.002  0.00  0.00    +0.000 A 
ATOM      5  C   UNL     1       2.912   3.284  19.261  0.00  0.00    +0.000 A 
ATOM      6  C   UNL     1       3.761   2.501  18.499  0.00  0.00    +0.000 A 
ATOM      7  N   UNL     1       4.766   2.986  17.744  0.00  0.00    +0.000 NA
ATOM      8  C   UNL     1       4.937   4.313  17.767  0.00  0.00    +0.000 A 
ATOM      9  N   UNL     1       5.936   4.847  16.943  0.00  0.00    +0.000 N 
ATOM     10  N   UNL     1       4.209   5.145  18.527  0.00  0.00    +0.000 NA
ATOM     11  C   UNL     1       3.197   4.644  19.264  0.00  0.00    +0.000 A 
ATOM     12  H   UNL     1       6.498   4.073  16.606  0.00  0.00    +0.000 HD
ENDROOT
BRANCH   9  13
ATOM     13  C   UNL     1       6.720   5.976  17.271  0.00  0.00    +0.000 A 
ATOM     14  C   UNL     1       6.463   7.201  16.627  0.00  0.00    +0.000 A 
ATOM     15  C   UNL     1       7.114   8.377  16.997  0.00  0.00    +0.000 A 
ATOM     16  C   UNL     1       8.029   8.370  18.049  0.00  0.00    +0.000 A 
ATOM     17  C   UNL     1       8.295   7.159  18.698  0.00  0.00    +0.000 A 
ATOM     18  C   UNL     1       7.647   5.968  18.327  0.00  0.00    +0.000 A 
BRANCH  16  19
ATOM     19  C   UNL     1       8.618   9.617  18.494  0.00  0.00    +0.000 A 
ATOM     20  C   UNL     1       8.672  10.875  17.853  0.00  0.00    +0.000 A 
ATOM     21  N   UNL     1       9.274  11.809  18.594  0.00  0.00    +0.000 NA
ATOM     22  N   UNL     1       9.598  11.149  19.719  0.00  0.00    +0.000 N 
ATOM     23  C   UNL     1      10.236  11.850  20.807  0.00  0.00    +0.000 C 
ATOM     24  C   UNL     1       9.240   9.832  19.705  0.00  0.00    +0.000 A 
ENDBRANCH  16  19
BRANCH  18  25
ATOM     25  O   UNL     1       7.980   4.905  19.129  0.00  0.00    +0.000 OA
ATOM     26  C   UNL     1       8.477   5.203  20.428  0.00  0.00    +0.000 C 
ENDBRANCH  18  25
ENDBRANCH   9  13
BRANCH   1  27
ATOM     27  N   UNL     1       2.720   6.826  20.223  0.00  0.00    +0.000 N 
ATOM     28  H   UNL     1       2.623   7.082  21.210  0.00  0.00    +0.000 HD
BRANCH  27  29
ATOM     29  C   UNL     1       1.892   7.699  19.382  0.00  0.00    +0.000 C 
BRANCH  29  30
ATOM     30  C   UNL     1       1.152   8.770  20.202  0.00  0.00    +0.000 C 
BRANCH  30  32
ATOM     31  C   UNL     1       0.652   9.466  22.398  0.00  0.00    +0.000 C 
ATOM     32  O   UNL     1       1.423   8.579  21.598  0.00  0.00    +0.000 OA
ENDBRANCH  30  32
ENDBRANCH  29  30
ENDBRANCH  27  29
ENDBRANCH   1  27
TORSDOF 7
ENDMDL
