MODEL 1
REMARK VINA RESULT:      -8.2      0.000      0.000
REMARK  Name = 
REMARK  13 active torsions:
REMARK  status: ('A' for Active; 'I' for Inactive)
REMARK    1  A    between atoms: C_1  and  C_2
REMARK    2  A    between atoms: C_2  and  C_3
REMARK    3  A    between atoms: C_2  and  N_4
REMARK    4  A    between atoms: C_7  and  N_8
REMARK    5  A    between atoms: C_9  and  C_11
REMARK    6  A    between atoms: C_11  and  C_12
REMARK    7  A    between atoms: C_11  and  N_20
REMARK    8  A    between atoms: C_12  and  C_13
REMARK    9  A    between atoms: C_21  and  O_23
REMARK   10  A    between atoms: O_23  and  C_24
REMARK   11  A    between atoms: C_24  and  C_25
REMARK   12  A    between atoms: C_24  and  C_26
REMARK   13  A    between atoms: C_24  and  C_27
REMARK                            x       y       z     vdW  Elec       q    Type
REMARK                         _______ _______ _______ _____ _____    ______ ____
ROOT
ATOM      1  N   UNL     1       1.404   9.029  19.341  0.00  0.00    +0.000 N 
ATOM      2  C   UNL     1       2.201   8.237  18.532  0.00  0.00    +0.000 C 
ATOM      3  O   UNL     1       2.297   8.416  17.322  0.00  0.00    +0.000 OA
ATOM      4  H   UNL     1       1.154   8.640  20.246  0.00  0.00    +0.000 HD
ENDROOT
BRANCH   1   8
ATOM      5  N   UNL     1      -0.429  10.726  21.000  0.00  0.00    +0.000 N 
ATOM      6  C   UNL     1      -0.653  10.431  19.657  0.00  0.00    +0.000 C 
ATOM      7  O   UNL     1      -1.778  10.409  19.160  0.00  0.00    +0.000 OA
ATOM      8  C   UNL     1       0.625  10.170  18.835  0.00  0.00    +0.000 C 
ATOM      9  C   UNL     1       1.499  11.428  18.752  0.00  0.00    +0.000 C 
ATOM     10  C   UNL     1       2.028  11.929  20.098  0.00  0.00    +0.000 C 
ATOM     11  C   UNL     1       1.008  12.689  20.905  0.00  0.00    +0.000 A 
ATOM     12  C   UNL     1       1.308  14.000  21.317  0.00  0.00    +0.000 A 
ATOM     13  C   UNL     1       0.431  14.708  22.137  0.00  0.00    +0.000 A 
ATOM     14  C   UNL     1      -0.753  14.114  22.556  0.00  0.00    +0.000 A 
ATOM     15  C   UNL     1      -1.053  12.802  22.173  0.00  0.00    +0.000 A 
ATOM     16  C   UNL     1      -0.178  12.078  21.354  0.00  0.00    +0.000 A 
BRANCH   5  18
ATOM     17  C   UNL     1      -0.757   8.295  21.391  0.00  0.00    +0.000 C 
ATOM     18  C   UNL     1      -0.745   9.700  21.996  0.00  0.00    +0.000 C 
ATOM     19  C   UNL     1       0.062   9.751  23.292  0.00  0.00    +0.000 C 
ENDBRANCH   5  18
ENDBRANCH   1   8
BRANCH   2  20
ATOM     20  C   UNL     1       2.866   7.039  19.271  0.00  0.00    +0.000 C 
BRANCH  20  21
ATOM     21  N   UNL     1       3.267   6.010  18.311  0.00  0.00    +0.000 N 
ATOM     22  C   UNL     1       4.453   5.358  18.450  0.00  0.00    +0.000 C 
ATOM     23  O   UNL     1       5.214   5.571  19.380  0.00  0.00    +0.000 OA
ATOM     24  H   UNL     1       2.789   5.915  17.431  0.00  0.00    +0.000 HD
BRANCH  22  25
ATOM     25  O   UNL     1       4.679   4.530  17.403  0.00  0.00    +0.000 OA
BRANCH  25  26
ATOM     26  C   UNL     1       5.638   4.938  16.392  0.00  0.00    +0.000 C 
ATOM     27  C   UNL     1       7.070   4.660  16.867  0.00  0.00    +0.000 C 
ATOM     28  C   UNL     1       5.360   4.070  15.157  0.00  0.00    +0.000 C 
ATOM     29  C   UNL     1       5.439   6.406  15.986  0.00  0.00    +0.000 C 
ENDBRANCH  25  26
ENDBRANCH  22  25
ENDBRANCH  20  21
BRANCH  20  30
ATOM     30  C   UNL     1       1.942   6.488  20.370  0.00  0.00    +0.000 C 
BRANCH  30  31
ATOM     31  C   UNL     1       1.736   4.983  20.443  0.00  0.00    +0.000 A 
ATOM     32  C   UNL     1       2.439   4.261  21.425  0.00  0.00    +0.000 A 
ATOM     33  C   UNL     1       2.434   2.862  21.439  0.00  0.00    +0.000 A 
ATOM     34  C   UNL     1       1.727   2.162  20.468  0.00  0.00    +0.000 A 
ATOM     35  C   UNL     1       1.004   2.868  19.514  0.00  0.00    +0.000 A 
ATOM     36  F   UNL     1       0.326   2.192  18.576  0.00  0.00    +0.000 F 
ATOM     37  C   UNL     1       0.998   4.263  19.493  0.00  0.00    +0.000 A 
ENDBRANCH  30  31
ENDBRANCH  20  30
ENDBRANCH   2  20
TORSDOF 8
ENDMDL
MODEL 2
REMARK VINA RESULT:      -8.1      1.021      1.413
REMARK  Name = 
REMARK  13 active torsions:
REMARK  status: ('A' for Active; 'I' for Inactive)
REMARK    1  A    between atoms: C_1  and  C_2
REMARK    2  A    between atoms: C_2  and  C_3
REMARK    3  A    between atoms: C_2  and  N_4
REMARK    4  A    between atoms: C_7  and  N_8
REMARK    5  A    between atoms: C_9  and  C_11
REMARK    6  A    between atoms: C_11  and  C_12
REMARK    7  A    between atoms: C_11  and  N_20
REMARK    8  A    between atoms: C_12  and  C_13
REMARK    9  A    between atoms: C_21  and  O_23
REMARK   10  A    between atoms: O_23  and  C_24
REMARK   11  A    between atoms: C_24  and  C_25
REMARK   12  A    between atoms: C_24  and  C_26
REMARK   13  A    between atoms: C_24  and  C_27
REMARK                            x       y       z     vdW  Elec       q    Type
REMARK                         _______ _______ _______ _____ _____    ______ ____
ROOT
ATOM      1  N   UNL     1       1.485   9.229  19.113  0.00  0.00    +0.000 N 
ATOM      2  C   UNL     1       2.250   8.541  18.188  0.00  0.00    +0.000 C 
ATOM      3  O   UNL     1       2.191   8.768  16.984  0.00  0.00    +0.000 OA
ATOM      4  H   UNL     1       1.375   8.790  20.023  0.00  0.00    +0.000 HD
ENDROOT
BRANCH   1   8
ATOM      5  N   UNL     1      -0.334  10.652  21.027  0.00  0.00    +0.000 N 
ATOM      6  C   UNL     1      -0.656  10.403  19.695  0.00  0.00    +0.000 C 
ATOM      7  O   UNL     1      -1.816  10.292  19.301  0.00  0.00    +0.000 OA
ATOM      8  C   UNL     1       0.556  10.310  18.746  0.00  0.00    +0.000 C 
ATOM      9  C   UNL     1       1.294  11.652  18.657  0.00  0.00    +0.000 C 
ATOM     10  C   UNL     1       1.900  12.138  19.976  0.00  0.00    +0.000 C 
ATOM     11  C   UNL     1       0.894  12.752  20.915  0.00  0.00    +0.000 A 
ATOM     12  C   UNL     1       1.106  14.065  21.373  0.00  0.00    +0.000 A 
ATOM     13  C   UNL     1       0.249  14.642  22.307  0.00  0.00    +0.000 A 
ATOM     14  C   UNL     1      -0.828  13.912  22.797  0.00  0.00    +0.000 A 
ATOM     15  C   UNL     1      -1.037  12.597  22.368  0.00  0.00    +0.000 A 
ATOM     16  C   UNL     1      -0.180  12.005  21.433  0.00  0.00    +0.000 A 
BRANCH   5  18
ATOM     17  C   UNL     1      -0.648   8.203  21.294  0.00  0.00    +0.000 C 
ATOM     18  C   UNL     1      -0.454   9.554  21.986  0.00  0.00    +0.000 C 
ATOM     19  C   UNL     1       0.623   9.485  23.067  0.00  0.00    +0.000 C 
ENDBRANCH   5  18
ENDBRANCH   1   8
BRANCH   2  20
ATOM     20  C   UNL     1       3.098   7.386  18.796  0.00  0.00    +0.000 C 
BRANCH  20  21
ATOM     21  N   UNL     1       3.518   6.457  17.747  0.00  0.00    +0.000 N 
ATOM     22  C   UNL     1       4.762   6.547  17.200  0.00  0.00    +0.000 C 
ATOM     23  O   UNL     1       5.585   7.367  17.573  0.00  0.00    +0.000 OA
ATOM     24  H   UNL     1       2.843   5.887  17.265  0.00  0.00    +0.000 HD
BRANCH  22  25
ATOM     25  O   UNL     1       4.909   5.672  16.178  0.00  0.00    +0.000 OA
BRANCH  25  26
ATOM     26  C   UNL     1       5.612   4.426  16.430  0.00  0.00    +0.000 C 
ATOM     27  C   UNL     1       4.703   3.438  17.173  0.00  0.00    +0.000 C 
ATOM     28  C   UNL     1       5.949   3.835  15.053  0.00  0.00    +0.000 C 
ATOM     29  C   UNL     1       6.935   4.665  17.172  0.00  0.00    +0.000 C 
ENDBRANCH  25  26
ENDBRANCH  22  25
ENDBRANCH  20  21
BRANCH  20  30
ATOM     30  C   UNL     1       2.335   6.681  19.931  0.00  0.00    +0.000 C 
BRANCH  30  31
ATOM     31  C   UNL     1       2.097   5.184  19.810  0.00  0.00    +0.000 A 
ATOM     32  C   UNL     1       1.606   4.684  18.590  0.00  0.00    +0.000 A 
ATOM     33  C   UNL     1       1.201   3.351  18.463  0.00  0.00    +0.000 A 
ATOM     34  C   UNL     1       1.278   2.496  19.557  0.00  0.00    +0.000 A 
ATOM     35  C   UNL     1       1.791   2.974  20.757  0.00  0.00    +0.000 A 
ATOM     36  F   UNL     1       1.861   2.150  21.812  0.00  0.00    +0.000 F 
ATOM     37  C   UNL     1       2.202   4.300  20.893  0.00  0.00    +0.000 A 
ENDBRANCH  30  31
ENDBRANCH  20  30
ENDBRANCH   2  20
TORSDOF 8
ENDMDL
MODEL 3
REMARK VINA RESULT:      -8.0      1.237      1.515
REMARK  Name = 
REMARK  13 active torsions:
REMARK  status: ('A' for Active; 'I' for Inactive)
REMARK    1  A    between atoms: C_1  and  C_2
REMARK    2  A    between atoms: C_2  and  C_3
REMARK    3  A    between atoms: C_2  and  N_4
REMARK    4  A    between atoms: C_7  and  N_8
REMARK    5  A    between atoms: C_9  and  C_11
REMARK    6  A    between atoms: C_11  and  C_12
REMARK    7  A    between atoms: C_11  and  N_20
REMARK    8  A    between atoms: C_12  and  C_13
REMARK    9  A    between atoms: C_21  and  O_23
REMARK   10  A    between atoms: O_23  and  C_24
REMARK   11  A    between atoms: C_24  and  C_25
REMARK   12  A    between atoms: C_24  and  C_26
REMARK   13  A    between atoms: C_24  and  C_27
REMARK                            x       y       z     vdW  Elec       q    Type
REMARK                         _______ _______ _______ _____ _____    ______ ____
ROOT
ATOM      1  N   UNL     1       1.402   9.311  19.120  0.00  0.00    +0.000 N 
ATOM      2  C   UNL     1       2.194   8.612  18.225  0.00  0.00    +0.000 C 
ATOM      3  O   UNL     1       2.220   8.869  17.026  0.00  0.00    +0.000 OA
ATOM      4  H   UNL     1       1.218   8.855  20.010  0.00  0.00    +0.000 HD
ENDROOT
BRANCH   1   8
ATOM      5  N   UNL     1      -0.203  10.991  21.015  0.00  0.00    +0.000 N 
ATOM      6  C   UNL     1      -0.608  10.688  19.718  0.00  0.00    +0.000 C 
ATOM      7  O   UNL     1      -1.792  10.648  19.384  0.00  0.00    +0.000 OA
ATOM      8  C   UNL     1       0.545  10.439  18.725  0.00  0.00    +0.000 C 
ATOM      9  C   UNL     1       1.381  11.708  18.517  0.00  0.00    +0.000 C 
ATOM     10  C   UNL     1       2.087  12.222  19.774  0.00  0.00    +0.000 C 
ATOM     11  C   UNL     1       1.179  12.973  20.714  0.00  0.00    +0.000 A 
ATOM     12  C   UNL     1       1.516  14.289  21.077  0.00  0.00    +0.000 A 
ATOM     13  C   UNL     1       0.754  14.990  22.009  0.00  0.00    +0.000 A 
ATOM     14  C   UNL     1      -0.352  14.382  22.592  0.00  0.00    +0.000 A 
ATOM     15  C   UNL     1      -0.685  13.065  22.258  0.00  0.00    +0.000 A 
ATOM     16  C   UNL     1       0.077  12.348  21.326  0.00  0.00    +0.000 A 
BRANCH   5  18
ATOM     17  C   UNL     1       0.971   9.314  22.422  0.00  0.00    +0.000 C 
ATOM     18  C   UNL     1      -0.361   9.967  22.048  0.00  0.00    +0.000 C 
ATOM     19  C   UNL     1      -1.156  10.377  23.286  0.00  0.00    +0.000 C 
ENDBRANCH   5  18
ENDBRANCH   1   8
BRANCH   2  20
ATOM     20  C   UNL     1       2.954   7.407  18.854  0.00  0.00    +0.000 C 
BRANCH  20  21
ATOM     21  N   UNL     1       3.342   6.453  17.815  0.00  0.00    +0.000 N 
ATOM     22  C   UNL     1       4.582   6.506  17.255  0.00  0.00    +0.000 C 
ATOM     23  O   UNL     1       5.427   7.314  17.607  0.00  0.00    +0.000 OA
ATOM     24  H   UNL     1       2.650   5.891  17.349  0.00  0.00    +0.000 HD
BRANCH  22  25
ATOM     25  O   UNL     1       4.698   5.613  16.245  0.00  0.00    +0.000 OA
BRANCH  25  26
ATOM     26  C   UNL     1       5.331   4.335  16.522  0.00  0.00    +0.000 C 
ATOM     27  C   UNL     1       4.272   3.271  16.842  0.00  0.00    +0.000 C 
ATOM     28  C   UNL     1       6.057   3.924  15.233  0.00  0.00    +0.000 C 
ATOM     29  C   UNL     1       6.383   4.455  17.633  0.00  0.00    +0.000 C 
ENDBRANCH  25  26
ENDBRANCH  22  25
ENDBRANCH  20  21
BRANCH  20  30
ATOM     30  C   UNL     1       2.120   6.752  19.969  0.00  0.00    +0.000 C 
BRANCH  30  31
ATOM     31  C   UNL     1       2.159   5.236  20.094  0.00  0.00    +0.000 A 
ATOM     32  C   UNL     1       0.958   4.560  20.376  0.00  0.00    +0.000 A 
ATOM     33  C   UNL     1       0.949   3.193  20.675  0.00  0.00    +0.000 A 
ATOM     34  C   UNL     1       2.143   2.481  20.699  0.00  0.00    +0.000 A 
ATOM     35  C   UNL     1       3.330   3.135  20.391  0.00  0.00    +0.000 A 
ATOM     36  F   UNL     1       4.481   2.449  20.419  0.00  0.00    +0.000 F 
ATOM     37  C   UNL     1       3.350   4.496  20.086  0.00  0.00    +0.000 A 
ENDBRANCH  30  31
ENDBRANCH  20  30
ENDBRANCH   2  20
TORSDOF 8
ENDMDL
MODEL 4
REMARK VINA RESULT:      -8.0      0.914      1.133
REMARK  Name = 
REMARK  13 active torsions:
REMARK  status: ('A' for Active; 'I' for Inactive)
REMARK    1  A    between atoms: C_1  and  C_2
REMARK    2  A    between atoms: C_2  and  C_3
REMARK    3  A    between atoms: C_2  and  N_4
REMARK    4  A    between atoms: C_7  and  N_8
REMARK    5  A    between atoms: C_9  and  C_11
REMARK    6  A    between atoms: C_11  and  C_12
REMARK    7  A    between atoms: C_11  and  N_20
REMARK    8  A    between atoms: C_12  and  C_13
REMARK    9  A    between atoms: C_21  and  O_23
REMARK   10  A    between atoms: O_23  and  C_24
REMARK   11  A    between atoms: C_24  and  C_25
REMARK   12  A    between atoms: C_24  and  C_26
REMARK   13  A    between atoms: C_24  and  C_27
REMARK                            x       y       z     vdW  Elec       q    Type
REMARK                         _______ _______ _______ _____ _____    ______ ____
ROOT
ATOM      1  N   UNL     1       1.463   9.459  19.297  0.00  0.00    +0.000 N 
ATOM      2  C   UNL     1       1.920   8.466  18.448  0.00  0.00    +0.000 C 
ATOM      3  O   UNL     1       1.681   8.465  17.245  0.00  0.00    +0.000 OA
ATOM      4  H   UNL     1       1.450   9.233  20.288  0.00  0.00    +0.000 HD
ENDROOT
BRANCH   1   8
ATOM      5  N   UNL     1      -0.206  11.214  21.065  0.00  0.00    +0.000 N 
ATOM      6  C   UNL     1      -0.531  10.914  19.744  0.00  0.00    +0.000 C 
ATOM      7  O   UNL     1      -1.689  10.916  19.328  0.00  0.00    +0.000 OA
ATOM      8  C   UNL     1       0.678  10.615  18.836  0.00  0.00    +0.000 C 
ATOM      9  C   UNL     1       1.573  11.850  18.679  0.00  0.00    +0.000 C 
ATOM     10  C   UNL     1       2.209  12.349  19.979  0.00  0.00    +0.000 C 
ATOM     11  C   UNL     1       1.267  13.141  20.849  0.00  0.00    +0.000 A 
ATOM     12  C   UNL     1       1.626  14.447  21.226  0.00  0.00    +0.000 A 
ATOM     13  C   UNL     1       0.827  15.184  22.098  0.00  0.00    +0.000 A 
ATOM     14  C   UNL     1      -0.338  14.622  22.605  0.00  0.00    +0.000 A 
ATOM     15  C   UNL     1      -0.696  13.315  22.258  0.00  0.00    +0.000 A 
ATOM     16  C   UNL     1       0.101  12.563  21.386  0.00  0.00    +0.000 A 
BRANCH   5  18
ATOM     17  C   UNL     1       0.805   9.520  22.573  0.00  0.00    +0.000 C 
ATOM     18  C   UNL     1      -0.475  10.205  22.090  0.00  0.00    +0.000 C 
ATOM     19  C   UNL     1      -1.352  10.652  23.259  0.00  0.00    +0.000 C 
ENDBRANCH   5  18
ENDBRANCH   1   8
BRANCH   2  20
ATOM     20  C   UNL     1       2.659   7.301  19.170  0.00  0.00    +0.000 C 
BRANCH  20  21
ATOM     21  N   UNL     1       3.085   6.291  18.201  0.00  0.00    +0.000 N 
ATOM     22  C   UNL     1       4.256   6.432  17.523  0.00  0.00    +0.000 C 
ATOM     23  O   UNL     1       5.013   7.372  17.710  0.00  0.00    +0.000 OA
ATOM     24  H   UNL     1       2.437   5.600  17.862  0.00  0.00    +0.000 HD
BRANCH  22  25
ATOM     25  O   UNL     1       4.408   5.452  16.603  0.00  0.00    +0.000 OA
BRANCH  25  26
ATOM     26  C   UNL     1       5.097   4.235  16.995  0.00  0.00    +0.000 C 
ATOM     27  C   UNL     1       4.088   3.156  17.408  0.00  0.00    +0.000 C 
ATOM     28  C   UNL     1       5.850   3.745  15.750  0.00  0.00    +0.000 C 
ATOM     29  C   UNL     1       6.136   4.504  18.093  0.00  0.00    +0.000 C 
ENDBRANCH  25  26
ENDBRANCH  22  25
ENDBRANCH  20  21
BRANCH  20  30
ATOM     30  C   UNL     1       1.788   6.708  20.291  0.00  0.00    +0.000 C 
BRANCH  30  31
ATOM     31  C   UNL     1       1.671   5.194  20.379  0.00  0.00    +0.000 A 
ATOM     32  C   UNL     1       2.446   4.520  21.341  0.00  0.00    +0.000 A 
ATOM     33  C   UNL     1       2.521   3.123  21.363  0.00  0.00    +0.000 A 
ATOM     34  C   UNL     1       1.822   2.377  20.421  0.00  0.00    +0.000 A 
ATOM     35  C   UNL     1       1.029   3.033  19.487  0.00  0.00    +0.000 A 
ATOM     36  F   UNL     1       0.360   2.313  18.576  0.00  0.00    +0.000 F 
ATOM     37  C   UNL     1       0.944   4.426  19.458  0.00  0.00    +0.000 A 
ENDBRANCH  30  31
ENDBRANCH  20  30
ENDBRANCH   2  20
TORSDOF 8
ENDMDL
MODEL 5
REMARK VINA RESULT:      -7.9      1.291      1.596
REMARK  Name = 
REMARK  13 active torsions:
REMARK  status: ('A' for Active; 'I' for Inactive)
REMARK    1  A    between atoms: C_1  and  C_2
REMARK    2  A    between atoms: C_2  and  C_3
REMARK    3  A    between atoms: C_2  and  N_4
REMARK    4  A    between atoms: C_7  and  N_8
REMARK    5  A    between atoms: C_9  and  C_11
REMARK    6  A    between atoms: C_11  and  C_12
REMARK    7  A    between atoms: C_11  and  N_20
REMARK    8  A    between atoms: C_12  and  C_13
REMARK    9  A    between atoms: C_21  and  O_23
REMARK   10  A    between atoms: O_23  and  C_24
REMARK   11  A    between atoms: C_24  and  C_25
REMARK   12  A    between atoms: C_24  and  C_26
REMARK   13  A    between atoms: C_24  and  C_27
REMARK                            x       y       z     vdW  Elec       q    Type
REMARK                         _______ _______ _______ _____ _____    ______ ____
ROOT
ATOM      1  N   UNL     1       2.085   9.749  18.259  0.00  0.00    +0.000 N 
ATOM      2  C   UNL     1       2.115   8.430  17.839  0.00  0.00    +0.000 C 
ATOM      3  O   UNL     1       1.134   7.867  17.364  0.00  0.00    +0.000 OA
ATOM      4  H   UNL     1       2.825  10.035  18.895  0.00  0.00    +0.000 HD
ENDROOT
BRANCH   1   8
ATOM      5  N   UNL     1       0.166  10.312  20.493  0.00  0.00    +0.000 N 
ATOM      6  C   UNL     1      -0.211  10.219  19.156  0.00  0.00    +0.000 C 
ATOM      7  O   UNL     1      -1.342   9.885  18.805  0.00  0.00    +0.000 OA
ATOM      8  C   UNL     1       0.892  10.602  18.149  0.00  0.00    +0.000 C 
ATOM      9  C   UNL     1       1.271  12.083  18.279  0.00  0.00    +0.000 C 
ATOM     10  C   UNL     1       1.864  12.475  19.635  0.00  0.00    +0.000 C 
ATOM     11  C   UNL     1       0.832  12.643  20.720  0.00  0.00    +0.000 A 
ATOM     12  C   UNL     1       0.762  13.868  21.407  0.00  0.00    +0.000 A 
ATOM     13  C   UNL     1      -0.117  14.039  22.475  0.00  0.00    +0.000 A 
ATOM     14  C   UNL     1      -0.934  12.986  22.870  0.00  0.00    +0.000 A 
ATOM     15  C   UNL     1      -0.858  11.754  22.211  0.00  0.00    +0.000 A 
ATOM     16  C   UNL     1       0.025  11.569  21.140  0.00  0.00    +0.000 A 
BRANCH   5  18
ATOM     17  C   UNL     1       1.623   9.179  22.155  0.00  0.00    +0.000 C 
ATOM     18  C   UNL     1       0.407   9.072  21.232  0.00  0.00    +0.000 C 
ATOM     19  C   UNL     1      -0.800   8.475  21.955  0.00  0.00    +0.000 C 
ENDBRANCH   5  18
ENDBRANCH   1   8
BRANCH   2  20
ATOM     20  C   UNL     1       3.459   7.700  18.130  0.00  0.00    +0.000 C 
BRANCH  20  21
ATOM     21  N   UNL     1       3.874   6.918  16.965  0.00  0.00    +0.000 N 
ATOM     22  C   UNL     1       5.192   6.796  16.648  0.00  0.00    +0.000 C 
ATOM     23  O   UNL     1       6.079   7.293  17.323  0.00  0.00    +0.000 OA
ATOM     24  H   UNL     1       3.205   6.642  16.267  0.00  0.00    +0.000 HD
BRANCH  22  25
ATOM     25  O   UNL     1       5.352   6.129  15.481  0.00  0.00    +0.000 OA
BRANCH  25  26
ATOM     26  C   UNL     1       5.891   4.781  15.523  0.00  0.00    +0.000 C 
ATOM     27  C   UNL     1       5.045   3.894  16.446  0.00  0.00    +0.000 C 
ATOM     28  C   UNL     1       5.789   4.230  14.093  0.00  0.00    +0.000 C 
ATOM     29  C   UNL     1       7.375   4.778  15.919  0.00  0.00    +0.000 C 
ENDBRANCH  25  26
ENDBRANCH  22  25
ENDBRANCH  20  21
BRANCH  20  30
ATOM     30  C   UNL     1       3.355   6.843  19.404  0.00  0.00    +0.000 C 
BRANCH  30  31
ATOM     31  C   UNL     1       2.461   5.613  19.367  0.00  0.00    +0.000 A 
ATOM     32  C   UNL     1       1.662   5.335  20.491  0.00  0.00    +0.000 A 
ATOM     33  C   UNL     1       0.951   4.135  20.597  0.00  0.00    +0.000 A 
ATOM     34  C   UNL     1       1.029   3.191  19.579  0.00  0.00    +0.000 A 
ATOM     35  C   UNL     1       1.791   3.471  18.451  0.00  0.00    +0.000 A 
ATOM     36  F   UNL     1       1.870   2.558  17.472  0.00  0.00    +0.000 F 
ATOM     37  C   UNL     1       2.501   4.666  18.332  0.00  0.00    +0.000 A 
ENDBRANCH  30  31
ENDBRANCH  20  30
ENDBRANCH   2  20
TORSDOF 8
ENDMDL
MODEL 6
REMARK VINA RESULT:      -7.9      1.444      1.784
REMARK  Name = 
REMARK  13 active torsions:
REMARK  status: ('A' for Active; 'I' for Inactive)
REMARK    1  A    between atoms: C_1  and  C_2
REMARK    2  A    between atoms: C_2  and  C_3
REMARK    3  A    between atoms: C_2  and  N_4
REMARK    4  A    between atoms: C_7  and  N_8
REMARK    5  A    between atoms: C_9  and  C_11
REMARK    6  A    between atoms: C_11  and  C_12
REMARK    7  A    between atoms: C_11  and  N_20
REMARK    8  A    between atoms: C_12  and  C_13
REMARK    9  A    between atoms: C_21  and  O_23
REMARK   10  A    between atoms: O_23  and  C_24
REMARK   11  A    between atoms: C_24  and  C_25
REMARK   12  A    between atoms: C_24  and  C_26
REMARK   13  A    between atoms: C_24  and  C_27
REMARK                            x       y       z     vdW  Elec       q    Type
REMARK                         _______ _______ _______ _____ _____    ______ ____
ROOT
ATOM      1  N   UNL     1       1.917   9.501  18.682  0.00  0.00    +0.000 N 
ATOM      2  C   UNL     1       2.018   8.302  17.998  0.00  0.00    +0.000 C 
ATOM      3  O   UNL     1       1.190   7.945  17.167  0.00  0.00    +0.000 OA
ATOM      4  H   UNL     1       2.460   9.578  19.538  0.00  0.00    +0.000 HD
ENDROOT
BRANCH   1   8
ATOM      5  N   UNL     1       0.065  10.524  20.807  0.00  0.00    +0.000 N 
ATOM      6  C   UNL     1      -0.313  10.326  19.481  0.00  0.00    +0.000 C 
ATOM      7  O   UNL     1      -1.474  10.086  19.150  0.00  0.00    +0.000 OA
ATOM      8  C   UNL     1       0.831  10.467  18.458  0.00  0.00    +0.000 C 
ATOM      9  C   UNL     1       1.377  11.901  18.431  0.00  0.00    +0.000 C 
ATOM     10  C   UNL     1       2.005  12.371  19.746  0.00  0.00    +0.000 C 
ATOM     11  C   UNL     1       0.994  12.775  20.788  0.00  0.00    +0.000 A 
ATOM     12  C   UNL     1       1.062  14.069  21.335  0.00  0.00    +0.000 A 
ATOM     13  C   UNL     1       0.203  14.456  22.361  0.00  0.00    +0.000 A 
ATOM     14  C   UNL     1      -0.731  13.553  22.856  0.00  0.00    +0.000 A 
ATOM     15  C   UNL     1      -0.794  12.255  22.337  0.00  0.00    +0.000 A 
ATOM     16  C   UNL     1       0.067  11.853  21.309  0.00  0.00    +0.000 A 
BRANCH   5  18
ATOM     17  C   UNL     1       1.598   9.076  22.120  0.00  0.00    +0.000 C 
ATOM     18  C   UNL     1       0.158   9.355  21.682  0.00  0.00    +0.000 C 
ATOM     19  C   UNL     1      -0.808   9.322  22.865  0.00  0.00    +0.000 C 
ENDBRANCH   5  18
ENDBRANCH   1   8
BRANCH   2  20
ATOM     20  C   UNL     1       3.204   7.404  18.459  0.00  0.00    +0.000 C 
BRANCH  20  21
ATOM     21  N   UNL     1       3.819   6.744  17.307  0.00  0.00    +0.000 N 
ATOM     22  C   UNL     1       5.140   6.920  17.032  0.00  0.00    +0.000 C 
ATOM     23  O   UNL     1       5.872   7.597  17.736  0.00  0.00    +0.000 OA
ATOM     24  H   UNL     1       3.249   6.331  16.588  0.00  0.00    +0.000 HD
BRANCH  22  25
ATOM     25  O   UNL     1       5.480   6.315  15.870  0.00  0.00    +0.000 OA
BRANCH  25  26
ATOM     26  C   UNL     1       6.082   4.995  15.929  0.00  0.00    +0.000 C 
ATOM     27  C   UNL     1       5.010   3.928  16.187  0.00  0.00    +0.000 C 
ATOM     28  C   UNL     1       6.699   4.739  14.546  0.00  0.00    +0.000 C 
ATOM     29  C   UNL     1       7.215   4.937  16.963  0.00  0.00    +0.000 C 
ENDBRANCH  25  26
ENDBRANCH  22  25
ENDBRANCH  20  21
BRANCH  20  30
ATOM     30  C   UNL     1       2.749   6.403  19.535  0.00  0.00    +0.000 C 
BRANCH  30  31
ATOM     31  C   UNL     1       2.761   4.923  19.184  0.00  0.00    +0.000 A 
ATOM     32  C   UNL     1       1.635   4.383  18.536  0.00  0.00    +0.000 A 
ATOM     33  C   UNL     1       1.503   3.004  18.340  0.00  0.00    +0.000 A 
ATOM     34  C   UNL     1       2.496   2.141  18.792  0.00  0.00    +0.000 A 
ATOM     35  C   UNL     1       3.626   2.669  19.405  0.00  0.00    +0.000 A 
ATOM     36  F   UNL     1       4.580   1.837  19.845  0.00  0.00    +0.000 F 
ATOM     37  C   UNL     1       3.770   4.043  19.602  0.00  0.00    +0.000 A 
ENDBRANCH  30  31
ENDBRANCH  20  30
ENDBRANCH   2  20
TORSDOF 8
ENDMDL
MODEL 7
REMARK VINA RESULT:      -7.7      0.859      1.371
REMARK  Name = 
REMARK  13 active torsions:
REMARK  status: ('A' for Active; 'I' for Inactive)
REMARK    1  A    between atoms: C_1  and  C_2
REMARK    2  A    between atoms: C_2  and  C_3
REMARK    3  A    between atoms: C_2  and  N_4
REMARK    4  A    between atoms: C_7  and  N_8
REMARK    5  A    between atoms: C_9  and  C_11
REMARK    6  A    between atoms: C_11  and  C_12
REMARK    7  A    between atoms: C_11  and  N_20
REMARK    8  A    between atoms: C_12  and  C_13
REMARK    9  A    between atoms: C_21  and  O_23
REMARK   10  A    between atoms: O_23  and  C_24
REMARK   11  A    between atoms: C_24  and  C_25
REMARK   12  A    between atoms: C_24  and  C_26
REMARK   13  A    between atoms: C_24  and  C_27
REMARK                            x       y       z     vdW  Elec       q    Type
REMARK                         _______ _______ _______ _____ _____    ______ ____
ROOT
ATOM      1  N   UNL     1       1.437   9.096  19.212  0.00  0.00    +0.000 N 
ATOM      2  C   UNL     1       2.206   8.352  18.335  0.00  0.00    +0.000 C 
ATOM      3  O   UNL     1       2.211   8.556  17.125  0.00  0.00    +0.000 OA
ATOM      4  H   UNL     1       1.267   8.682  20.125  0.00  0.00    +0.000 HD
ENDROOT
BRANCH   1   8
ATOM      5  N   UNL     1      -0.374  10.659  21.020  0.00  0.00    +0.000 N 
ATOM      6  C   UNL     1      -0.659  10.392  19.683  0.00  0.00    +0.000 C 
ATOM      7  O   UNL     1      -1.809  10.331  19.248  0.00  0.00    +0.000 OA
ATOM      8  C   UNL     1       0.580  10.213  18.784  0.00  0.00    +0.000 C 
ATOM      9  C   UNL     1       1.390  11.513  18.691  0.00  0.00    +0.000 C 
ATOM     10  C   UNL     1       1.971  12.001  20.021  0.00  0.00    +0.000 C 
ATOM     11  C   UNL     1       0.964  12.690  20.905  0.00  0.00    +0.000 A 
ATOM     12  C   UNL     1       1.227  14.002  21.340  0.00  0.00    +0.000 A 
ATOM     13  C   UNL     1       0.367  14.645  22.226  0.00  0.00    +0.000 A 
ATOM     14  C   UNL     1      -0.764  13.984  22.692  0.00  0.00    +0.000 A 
ATOM     15  C   UNL     1      -1.025  12.671  22.287  0.00  0.00    +0.000 A 
ATOM     16  C   UNL     1      -0.166  12.012  21.400  0.00  0.00    +0.000 A 
BRANCH   5  18
ATOM     17  C   UNL     1      -0.711   8.219  21.339  0.00  0.00    +0.000 C 
ATOM     18  C   UNL     1      -0.587   9.594  22.000  0.00  0.00    +0.000 C 
ATOM     19  C   UNL     1       0.379   9.566  23.183  0.00  0.00    +0.000 C 
ENDBRANCH   5  18
ENDBRANCH   1   8
BRANCH   2  20
ATOM     20  C   UNL     1       2.969   7.170  19.002  0.00  0.00    +0.000 C 
BRANCH  20  21
ATOM     21  N   UNL     1       3.305   6.154  18.003  0.00  0.00    +0.000 N 
ATOM     22  C   UNL     1       4.542   5.588  17.982  0.00  0.00    +0.000 C 
ATOM     23  O   UNL     1       5.407   5.867  18.797  0.00  0.00    +0.000 OA
ATOM     24  H   UNL     1       2.719   6.013  17.198  0.00  0.00    +0.000 HD
BRANCH  22  25
ATOM     25  O   UNL     1       4.680   4.760  16.920  0.00  0.00    +0.000 OA
BRANCH  25  26
ATOM     26  C   UNL     1       5.561   5.163  15.838  0.00  0.00    +0.000 C 
ATOM     27  C   UNL     1       5.320   6.633  15.470  0.00  0.00    +0.000 C 
ATOM     28  C   UNL     1       6.994   5.025  16.372  0.00  0.00    +0.000 C 
ATOM     29  C   UNL     1       5.424   4.234  14.623  0.00  0.00    +0.000 C 
ENDBRANCH  25  26
ENDBRANCH  22  25
ENDBRANCH  20  21
BRANCH  20  30
ATOM     30  C   UNL     1       2.166   6.591  20.179  0.00  0.00    +0.000 C 
BRANCH  30  31
ATOM     31  C   UNL     1       2.026   5.080  20.274  0.00  0.00    +0.000 A 
ATOM     32  C   UNL     1       0.817   4.495  19.854  0.00  0.00    +0.000 A 
ATOM     33  C   UNL     1       0.553   3.139  20.073  0.00  0.00    +0.000 A 
ATOM     34  C   UNL     1       1.494   2.345  20.718  0.00  0.00    +0.000 A 
ATOM     35  C   UNL     1       2.704   2.907  21.109  0.00  0.00    +0.000 A 
ATOM     36  F   UNL     1       3.609   2.143  21.735  0.00  0.00    +0.000 F 
ATOM     37  C   UNL     1       2.980   4.258  20.891  0.00  0.00    +0.000 A 
ENDBRANCH  30  31
ENDBRANCH  20  30
ENDBRANCH   2  20
TORSDOF 8
ENDMDL
MODEL 8
REMARK VINA RESULT:      -7.7      1.368      1.677
REMARK  Name = 
REMARK  13 active torsions:
REMARK  status: ('A' for Active; 'I' for Inactive)
REMARK    1  A    between atoms: C_1  and  C_2
REMARK    2  A    between atoms: C_2  and  C_3
REMARK    3  A    between atoms: C_2  and  N_4
REMARK    4  A    between atoms: C_7  and  N_8
REMARK    5  A    between atoms: C_9  and  C_11
REMARK    6  A    between atoms: C_11  and  C_12
REMARK    7  A    between atoms: C_11  and  N_20
REMARK    8  A    between atoms: C_12  and  C_13
REMARK    9  A    between atoms: C_21  and  O_23
REMARK   10  A    between atoms: O_23  and  C_24
REMARK   11  A    between atoms: C_24  and  C_25
REMARK   12  A    between atoms: C_24  and  C_26
REMARK   13  A    between atoms: C_24  and  C_27
REMARK                            x       y       z     vdW  Elec       q    Type
REMARK                         _______ _______ _______ _____ _____    ______ ____
ROOT
ATOM      1  N   UNL     1       2.207   9.565  18.342  0.00  0.00    +0.000 N 
ATOM      2  C   UNL     1       2.219   8.236  17.955  0.00  0.00    +0.000 C 
ATOM      3  O   UNL     1       1.244   7.685  17.455  0.00  0.00    +0.000 OA
ATOM      4  H   UNL     1       2.929   9.849  18.999  0.00  0.00    +0.000 HD
ENDROOT
BRANCH   1   8
ATOM      5  N   UNL     1       0.272  10.306  20.510  0.00  0.00    +0.000 N 
ATOM      6  C   UNL     1      -0.087  10.149  19.173  0.00  0.00    +0.000 C 
ATOM      7  O   UNL     1      -1.222   9.828  18.824  0.00  0.00    +0.000 OA
ATOM      8  C   UNL     1       1.041  10.445  18.165  0.00  0.00    +0.000 C 
ATOM      9  C   UNL     1       1.462  11.919  18.219  0.00  0.00    +0.000 C 
ATOM     10  C   UNL     1       2.045  12.369  19.560  0.00  0.00    +0.000 C 
ATOM     11  C   UNL     1       1.003  12.626  20.618  0.00  0.00    +0.000 A 
ATOM     12  C   UNL     1       0.959  13.890  21.235  0.00  0.00    +0.000 A 
ATOM     13  C   UNL     1       0.070  14.144  22.277  0.00  0.00    +0.000 A 
ATOM     14  C   UNL     1      -0.783  13.138  22.716  0.00  0.00    +0.000 A 
ATOM     15  C   UNL     1      -0.734  11.870  22.128  0.00  0.00    +0.000 A 
ATOM     16  C   UNL     1       0.159  11.601  21.083  0.00  0.00    +0.000 A 
BRANCH   5  18
ATOM     17  C   UNL     1       1.640   9.246  22.292  0.00  0.00    +0.000 C 
ATOM     18  C   UNL     1       0.466   9.103  21.320  0.00  0.00    +0.000 C 
ATOM     19  C   UNL     1      -0.778   8.553  22.015  0.00  0.00    +0.000 C 
ENDBRANCH   5  18
ENDBRANCH   1   8
BRANCH   2  20
ATOM     20  C   UNL     1       3.532   7.480  18.315  0.00  0.00    +0.000 C 
BRANCH  20  21
ATOM     21  N   UNL     1       4.031   6.746  17.151  0.00  0.00    +0.000 N 
ATOM     22  C   UNL     1       5.337   6.843  16.780  0.00  0.00    +0.000 C 
ATOM     23  O   UNL     1       6.150   7.505  17.405  0.00  0.00    +0.000 OA
ATOM     24  H   UNL     1       3.392   6.339  16.489  0.00  0.00    +0.000 HD
BRANCH  22  25
ATOM     25  O   UNL     1       5.565   6.178  15.623  0.00  0.00    +0.000 OA
BRANCH  25  26
ATOM     26  C   UNL     1       6.197   4.873  15.689  0.00  0.00    +0.000 C 
ATOM     27  C   UNL     1       5.140   3.761  15.634  0.00  0.00    +0.000 C 
ATOM     28  C   UNL     1       7.085   4.759  14.441  0.00  0.00    +0.000 C 
ATOM     29  C   UNL     1       7.105   4.746  16.921  0.00  0.00    +0.000 C 
ENDBRANCH  25  26
ENDBRANCH  22  25
ENDBRANCH  20  21
BRANCH  20  30
ATOM     30  C   UNL     1       3.325   6.569  19.538  0.00  0.00    +0.000 C 
BRANCH  30  31
ATOM     31  C   UNL     1       3.113   5.083  19.293  0.00  0.00    +0.000 A 
ATOM     32  C   UNL     1       4.241   4.242  19.276  0.00  0.00    +0.000 A 
ATOM     33  C   UNL     1       4.141   2.902  18.887  0.00  0.00    +0.000 A 
ATOM     34  C   UNL     1       2.909   2.381  18.507  0.00  0.00    +0.000 A 
ATOM     35  C   UNL     1       1.784   3.196  18.551  0.00  0.00    +0.000 A 
ATOM     36  F   UNL     1       0.598   2.695  18.180  0.00  0.00    +0.000 F 
ATOM     37  C   UNL     1       1.871   4.533  18.942  0.00  0.00    +0.000 A 
ENDBRANCH  30  31
ENDBRANCH  20  30
ENDBRANCH   2  20
TORSDOF 8
ENDMDL
MODEL 9
REMARK VINA RESULT:      -7.6      2.955      6.032
REMARK  Name = 
REMARK  13 active torsions:
REMARK  status: ('A' for Active; 'I' for Inactive)
REMARK    1  A    between atoms: C_1  and  C_2
REMARK    2  A    between atoms: C_2  and  C_3
REMARK    3  A    between atoms: C_2  and  N_4
REMARK    4  A    between atoms: C_7  and  N_8
REMARK    5  A    between atoms: C_9  and  C_11
REMARK    6  A    between atoms: C_11  and  C_12
REMARK    7  A    between atoms: C_11  and  N_20
REMARK    8  A    between atoms: C_12  and  C_13
REMARK    9  A    between atoms: C_21  and  O_23
REMARK   10  A    between atoms: O_23  and  C_24
REMARK   11  A    between atoms: C_24  and  C_25
REMARK   12  A    between atoms: C_24  and  C_26
REMARK   13  A    between atoms: C_24  and  C_27
REMARK                            x       y       z     vdW  Elec       q    Type
REMARK                         _______ _______ _______ _____ _____    ______ ____
ROOT
ATOM      1  N   UNL     1       0.499  12.212  20.890  0.00  0.00    +0.000 N 
ATOM      2  C   UNL     1       0.384  10.965  21.480  0.00  0.00    +0.000 C 
ATOM      3  O   UNL     1       0.252  10.818  22.691  0.00  0.00    +0.000 OA
ATOM      4  H   UNL     1       0.893  12.232  19.954  0.00  0.00    +0.000 HD
ENDROOT
BRANCH   1   8
ATOM      5  N   UNL     1       1.853  14.763  20.083  0.00  0.00    +0.000 N 
ATOM      6  C   UNL     1       1.675  14.367  21.406  0.00  0.00    +0.000 C 
ATOM      7  O   UNL     1       2.424  14.728  22.313  0.00  0.00    +0.000 OA
ATOM      8  C   UNL     1       0.445  13.471  21.650  0.00  0.00    +0.000 C 
ATOM      9  C   UNL     1      -0.858  14.225  21.357  0.00  0.00    +0.000 C 
ATOM     10  C   UNL     1      -1.021  14.680  19.905  0.00  0.00    +0.000 C 
ATOM     11  C   UNL     1      -0.228  15.915  19.565  0.00  0.00    +0.000 A 
ATOM     12  C   UNL     1      -0.904  17.036  19.048  0.00  0.00    +0.000 A 
ATOM     13  C   UNL     1      -0.202  18.167  18.640  0.00  0.00    +0.000 A 
ATOM     14  C   UNL     1       1.185  18.191  18.740  0.00  0.00    +0.000 A 
ATOM     15  C   UNL     1       1.872  17.075  19.230  0.00  0.00    +0.000 A 
ATOM     16  C   UNL     1       1.177  15.930  19.639  0.00  0.00    +0.000 A 
BRANCH   5  18
ATOM     17  C   UNL     1       2.436  13.589  17.973  0.00  0.00    +0.000 C 
ATOM     18  C   UNL     1       2.930  14.139  19.312  0.00  0.00    +0.000 C 
ATOM     19  C   UNL     1       4.204  14.965  19.148  0.00  0.00    +0.000 C 
ENDBRANCH   5  18
ENDBRANCH   1   8
BRANCH   2  20
ATOM     20  C   UNL     1       0.551   9.775  20.491  0.00  0.00    +0.000 C 
BRANCH  20  21
ATOM     21  N   UNL     1      -0.681   9.570  19.729  0.00  0.00    +0.000 N 
ATOM     22  C   UNL     1      -0.687   9.706  18.375  0.00  0.00    +0.000 C 
ATOM     23  O   UNL     1       0.320   9.967  17.736  0.00  0.00    +0.000 OA
ATOM     24  H   UNL     1      -1.572   9.539  20.194  0.00  0.00    +0.000 HD
BRANCH  22  25
ATOM     25  O   UNL     1      -1.941   9.583  17.879  0.00  0.00    +0.000 OA
BRANCH  25  26
ATOM     26  C   UNL     1      -2.574  10.756  17.302  0.00  0.00    +0.000 C 
ATOM     27  C   UNL     1      -2.645  10.630  15.774  0.00  0.00    +0.000 C 
ATOM     28  C   UNL     1      -4.007  10.789  17.854  0.00  0.00    +0.000 C 
ATOM     29  C   UNL     1      -1.874  12.050  17.742  0.00  0.00    +0.000 C 
ENDBRANCH  25  26
ENDBRANCH  22  25
ENDBRANCH  20  21
BRANCH  20  30
ATOM     30  C   UNL     1       1.000   8.503  21.232  0.00  0.00    +0.000 C 
BRANCH  30  31
ATOM     31  C   UNL     1       1.663   7.400  20.421  0.00  0.00    +0.000 A 
ATOM     32  C   UNL     1       2.311   7.752  19.223  0.00  0.00    +0.000 A 
ATOM     33  C   UNL     1       2.788   6.774  18.342  0.00  0.00    +0.000 A 
ATOM     34  C   UNL     1       2.622   5.427  18.646  0.00  0.00    +0.000 A 
ATOM     35  C   UNL     1       2.011   5.072  19.843  0.00  0.00    +0.000 A 
ATOM     36  F   UNL     1       1.847   3.774  20.133  0.00  0.00    +0.000 F 
ATOM     37  C   UNL     1       1.536   6.038  20.730  0.00  0.00    +0.000 A 
ENDBRANCH  30  31
ENDBRANCH  20  30
ENDBRANCH   2  20
TORSDOF 8
ENDMDL
