MODEL 1
REMARK VINA RESULT:      -6.0      0.000      0.000
REMARK  Name = 
REMARK  9 active torsions:
REMARK  status: ('A' for Active; 'I' for Inactive)
REMARK    1  A    between atoms: C_1  and  C_2
REMARK    2  A    between atoms: C_2  and  O_3
REMARK    3  A    between atoms: O_3  and  P_4
REMARK    4  A    between atoms: P_4  and  O_6
REMARK    5  A    between atoms: P_4  and  C_9
REMARK    6  A    between atoms: O_6  and  C_7
REMARK    7  A    between atoms: C_7  and  C_8
REMARK    8  A    between atoms: C_9  and  N_10
REMARK    9  A    between atoms: C_9  and  C_11
REMARK                            x       y       z     vdW  Elec       q    Type
REMARK                         _______ _______ _______ _____ _____    ______ ____
ROOT
ATOM      1  C   UNL     1       5.800   4.527  18.440  0.00  0.00    +0.000 C 
ENDROOT
BRANCH   1   2
ATOM      2  C   UNL     1       4.269   4.780  18.397  0.00  0.00    +0.000 C 
ATOM      3  C   UNL     1       3.604   3.958  17.273  0.00  0.00    +0.000 C 
ATOM      4  C   UNL     1       3.588   2.460  17.573  0.00  0.00    +0.000 C 
ATOM      5  C   UNL     1       2.891   2.154  18.892  0.00  0.00    +0.000 C 
ATOM      6  C   UNL     1       3.432   2.986  20.049  0.00  0.00    +0.000 C 
ATOM      7  C   UNL     1       3.533   4.476  19.721  0.00  0.00    +0.000 C 
ENDBRANCH   1   2
BRANCH   1   8
ATOM      8  N   UNL     1       6.403   5.061  19.691  0.00  0.00    +0.000 NA
ATOM      9  H   UNL     1       5.943   4.660  20.501  0.00  0.00    +0.000 HD
ATOM     10  H   UNL     1       6.154   6.058  19.712  0.00  0.00    +0.000 HD
ENDBRANCH   1   8
BRANCH   1  11
ATOM     11  P   UNL     1       6.623   5.098  16.908  0.00  0.00    +0.000 P 
ATOM     12  O   UNL     1       7.932   4.541  17.482  0.00  0.00    +0.000 OA
BRANCH  11  13
ATOM     13  O   UNL     1       7.401   5.638  15.460  0.00  0.00    +0.000 OA
BRANCH  13  15
ATOM     14  C   UNL     1       5.611   4.154  14.158  0.00  0.00    +0.000 C 
ATOM     15  C   UNL     1       7.007   4.801  14.269  0.00  0.00    +0.000 C 
ENDBRANCH  13  15
ENDBRANCH  11  13
BRANCH  11  16
ATOM     16  O   UNL     1       6.400   6.708  17.396  0.00  0.00    +0.000 OA
BRANCH  16  17
ATOM     17  C   UNL     1       7.414   7.709  17.214  0.00  0.00    +0.000 C 
ATOM     18  C   UNL     1       8.331   7.924  18.439  0.00  0.00    +0.000 C 
ENDBRANCH  16  17
ENDBRANCH  11  16
ENDBRANCH   1  11
TORSDOF 7
ENDMDL
MODEL 2
REMARK VINA RESULT:      -5.8      1.768      1.961
REMARK  Name = 
REMARK  9 active torsions:
REMARK  status: ('A' for Active; 'I' for Inactive)
REMARK    1  A    between atoms: C_1  and  C_2
REMARK    2  A    between atoms: C_2  and  O_3
REMARK    3  A    between atoms: O_3  and  P_4
REMARK    4  A    between atoms: P_4  and  O_6
REMARK    5  A    between atoms: P_4  and  C_9
REMARK    6  A    between atoms: O_6  and  C_7
REMARK    7  A    between atoms: C_7  and  C_8
REMARK    8  A    between atoms: C_9  and  N_10
REMARK    9  A    between atoms: C_9  and  C_11
REMARK                            x       y       z     vdW  Elec       q    Type
REMARK                         _______ _______ _______ _____ _____    ______ ____
ROOT
ATOM      1  C   UNL     1       3.849   4.913  18.688  0.00  0.00    +0.000 C 
ENDROOT
BRANCH   1   2
ATOM      2  C   UNL     1       2.341   5.277  18.746  0.00  0.00    +0.000 C 
ATOM      3  C   UNL     1       1.511   4.342  17.842  0.00  0.00    +0.000 C 
ATOM      4  C   UNL     1       1.432   2.916  18.388  0.00  0.00    +0.000 C 
ATOM      5  C   UNL     1       0.859   2.881  19.798  0.00  0.00    +0.000 C 
ATOM      6  C   UNL     1       1.571   3.842  20.745  0.00  0.00    +0.000 C 
ATOM      7  C   UNL     1       1.730   5.248  20.165  0.00  0.00    +0.000 C 
ENDBRANCH   1   2
BRANCH   1   8
ATOM      8  N   UNL     1       4.576   5.423  19.882  0.00  0.00    +0.000 NA
ATOM      9  H   UNL     1       5.571   5.251  19.787  0.00  0.00    +0.000 HD
ATOM     10  H   UNL     1       4.277   4.826  20.662  0.00  0.00    +0.000 HD
ENDBRANCH   1   8
BRANCH   1  11
ATOM     11  P   UNL     1       4.600   5.396  17.091  0.00  0.00    +0.000 P 
ATOM     12  O   UNL     1       5.073   3.944  16.949  0.00  0.00    +0.000 OA
BRANCH  11  13
ATOM     13  O   UNL     1       5.310   5.853  15.581  0.00  0.00    +0.000 OA
BRANCH  13  15
ATOM     14  C   UNL     1       6.851   4.493  13.883  0.00  0.00    +0.000 C 
ATOM     15  C   UNL     1       5.547   4.658  14.691  0.00  0.00    +0.000 C 
ENDBRANCH  13  15
ENDBRANCH  11  13
BRANCH  11  16
ATOM     16  O   UNL     1       5.758   6.318  17.921  0.00  0.00    +0.000 OA
BRANCH  16  17
ATOM     17  C   UNL     1       7.121   6.413  17.476  0.00  0.00    +0.000 C 
ATOM     18  C   UNL     1       7.728   7.831  17.568  0.00  0.00    +0.000 C 
ENDBRANCH  16  17
ENDBRANCH  11  16
ENDBRANCH   1  11
TORSDOF 7
ENDMDL
MODEL 3
REMARK VINA RESULT:      -5.8      2.045      3.573
REMARK  Name = 
REMARK  9 active torsions:
REMARK  status: ('A' for Active; 'I' for Inactive)
REMARK    1  A    between atoms: C_1  and  C_2
REMARK    2  A    between atoms: C_2  and  O_3
REMARK    3  A    between atoms: O_3  and  P_4
REMARK    4  A    between atoms: P_4  and  O_6
REMARK    5  A    between atoms: P_4  and  C_9
REMARK    6  A    between atoms: O_6  and  C_7
REMARK    7  A    between atoms: C_7  and  C_8
REMARK    8  A    between atoms: C_9  and  N_10
REMARK    9  A    between atoms: C_9  and  C_11
REMARK                            x       y       z     vdW  Elec       q    Type
REMARK                         _______ _______ _______ _____ _____    ______ ____
ROOT
ATOM      1  C   UNL     1       3.507   4.415  18.761  0.00  0.00    +0.000 C 
ENDROOT
BRANCH   1   2
ATOM      2  C   UNL     1       2.956   2.965  18.831  0.00  0.00    +0.000 C 
ATOM      3  C   UNL     1       3.461   2.242  20.098  0.00  0.00    +0.000 C 
ATOM      4  C   UNL     1       2.834   2.796  21.377  0.00  0.00    +0.000 C 
ATOM      5  C   UNL     1       1.314   2.728  21.338  0.00  0.00    +0.000 C 
ATOM      6  C   UNL     1       0.730   3.349  20.074  0.00  0.00    +0.000 C 
ATOM      7  C   UNL     1       1.415   2.863  18.796  0.00  0.00    +0.000 C 
ENDBRANCH   1   2
BRANCH   1   8
ATOM      8  N   UNL     1       2.835   5.198  17.690  0.00  0.00    +0.000 NA
ATOM      9  H   UNL     1       3.422   5.974  17.401  0.00  0.00    +0.000 HD
ATOM     10  H   UNL     1       2.021   5.636  18.138  0.00  0.00    +0.000 HD
ENDBRANCH   1   8
BRANCH   1  11
ATOM     11  P   UNL     1       5.335   4.440  18.673  0.00  0.00    +0.000 P 
ATOM     12  O   UNL     1       5.297   5.654  19.611  0.00  0.00    +0.000 OA
BRANCH  11  13
ATOM     13  O   UNL     1       7.063   4.464  18.590  0.00  0.00    +0.000 OA
BRANCH  13  15
ATOM     14  C   UNL     1       7.863   6.960  18.104  0.00  0.00    +0.000 C 
ATOM     15  C   UNL     1       7.626   5.779  19.068  0.00  0.00    +0.000 C 
ENDBRANCH  13  15
ENDBRANCH  11  13
BRANCH  11  16
ATOM     16  O   UNL     1       5.244   4.939  17.054  0.00  0.00    +0.000 OA
BRANCH  16  17
ATOM     17  C   UNL     1       5.765   4.142  15.979  0.00  0.00    +0.000 C 
ATOM     18  C   UNL     1       6.781   4.872  15.073  0.00  0.00    +0.000 C 
ENDBRANCH  16  17
ENDBRANCH  11  16
ENDBRANCH   1  11
TORSDOF 7
ENDMDL
MODEL 4
REMARK VINA RESULT:      -5.8      1.499      1.765
REMARK  Name = 
REMARK  9 active torsions:
REMARK  status: ('A' for Active; 'I' for Inactive)
REMARK    1  A    between atoms: C_1  and  C_2
REMARK    2  A    between atoms: C_2  and  O_3
REMARK    3  A    between atoms: O_3  and  P_4
REMARK    4  A    between atoms: P_4  and  O_6
REMARK    5  A    between atoms: P_4  and  C_9
REMARK    6  A    between atoms: O_6  and  C_7
REMARK    7  A    between atoms: C_7  and  C_8
REMARK    8  A    between atoms: C_9  and  N_10
REMARK    9  A    between atoms: C_9  and  C_11
REMARK                            x       y       z     vdW  Elec       q    Type
REMARK                         _______ _______ _______ _____ _____    ______ ____
ROOT
ATOM      1  C   UNL     1       4.047   4.915  18.243  0.00  0.00    +0.000 C 
ENDROOT
BRANCH   1   2
ATOM      2  C   UNL     1       2.903   4.154  17.519  0.00  0.00    +0.000 C 
ATOM      3  C   UNL     1       3.146   2.631  17.551  0.00  0.00    +0.000 C 
ATOM      4  C   UNL     1       2.975   2.039  18.949  0.00  0.00    +0.000 C 
ATOM      5  C   UNL     1       1.597   2.336  19.525  0.00  0.00    +0.000 C 
ATOM      6  C   UNL     1       1.239   3.816  19.458  0.00  0.00    +0.000 C 
ATOM      7  C   UNL     1       1.492   4.433  18.082  0.00  0.00    +0.000 C 
ENDBRANCH   1   2
BRANCH   1   8
ATOM      8  N   UNL     1       3.695   6.345  18.459  0.00  0.00    +0.000 NA
ATOM      9  H   UNL     1       4.354   6.776  19.098  0.00  0.00    +0.000 HD
ATOM     10  H   UNL     1       2.802   6.335  18.967  0.00  0.00    +0.000 HD
ENDBRANCH   1   8
BRANCH   1  11
ATOM     11  P   UNL     1       5.660   4.658  17.417  0.00  0.00    +0.000 P 
ATOM     12  O   UNL     1       6.099   3.879  18.664  0.00  0.00    +0.000 OA
BRANCH  11  13
ATOM     13  O   UNL     1       7.184   4.414  16.637  0.00  0.00    +0.000 OA
BRANCH  13  15
ATOM     14  C   UNL     1       6.031   4.005  14.269  0.00  0.00    +0.000 C 
ATOM     15  C   UNL     1       7.100   4.678  15.154  0.00  0.00    +0.000 C 
ENDBRANCH  13  15
ENDBRANCH  11  13
BRANCH  11  16
ATOM     16  O   UNL     1       6.008   6.309  17.597  0.00  0.00    +0.000 OA
BRANCH  16  17
ATOM     17  C   UNL     1       7.270   6.772  18.103  0.00  0.00    +0.000 C 
ATOM     18  C   UNL     1       7.718   8.145  17.551  0.00  0.00    +0.000 C 
ENDBRANCH  16  17
ENDBRANCH  11  16
ENDBRANCH   1  11
TORSDOF 7
ENDMDL
MODEL 5
REMARK VINA RESULT:      -5.8      1.728      3.156
REMARK  Name = 
REMARK  9 active torsions:
REMARK  status: ('A' for Active; 'I' for Inactive)
REMARK    1  A    between atoms: C_1  and  C_2
REMARK    2  A    between atoms: C_2  and  O_3
REMARK    3  A    between atoms: O_3  and  P_4
REMARK    4  A    between atoms: P_4  and  O_6
REMARK    5  A    between atoms: P_4  and  C_9
REMARK    6  A    between atoms: O_6  and  C_7
REMARK    7  A    between atoms: C_7  and  C_8
REMARK    8  A    between atoms: C_9  and  N_10
REMARK    9  A    between atoms: C_9  and  C_11
REMARK                            x       y       z     vdW  Elec       q    Type
REMARK                         _______ _______ _______ _____ _____    ______ ____
ROOT
ATOM      1  C   UNL     1       4.456   3.601  18.741  0.00  0.00    +0.000 C 
ENDROOT
BRANCH   1   2
ATOM      2  C   UNL     1       3.343   4.526  19.303  0.00  0.00    +0.000 C 
ATOM      3  C   UNL     1       2.176   4.658  18.302  0.00  0.00    +0.000 C 
ATOM      4  C   UNL     1       1.368   3.368  18.169  0.00  0.00    +0.000 C 
ATOM      5  C   UNL     1       0.821   2.902  19.512  0.00  0.00    +0.000 C 
ATOM      6  C   UNL     1       1.897   2.821  20.589  0.00  0.00    +0.000 C 
ATOM      7  C   UNL     1       2.765   4.078  20.664  0.00  0.00    +0.000 C 
ENDBRANCH   1   2
BRANCH   1   8
ATOM      8  N   UNL     1       4.905   2.613  19.759  0.00  0.00    +0.000 NA
ATOM      9  H   UNL     1       5.231   3.091  20.592  0.00  0.00    +0.000 HD
ATOM     10  H   UNL     1       5.742   2.170  19.363  0.00  0.00    +0.000 HD
ENDBRANCH   1   8
BRANCH   1  11
ATOM     11  P   UNL     1       5.815   4.563  17.982  0.00  0.00    +0.000 P 
ATOM     12  O   UNL     1       5.251   5.798  18.696  0.00  0.00    +0.000 OA
BRANCH  11  13
ATOM     13  O   UNL     1       7.100   5.473  17.264  0.00  0.00    +0.000 OA
BRANCH  13  15
ATOM     14  C   UNL     1       7.812   8.012  17.650  0.00  0.00    +0.000 C 
ATOM     15  C   UNL     1       7.574   6.580  18.171  0.00  0.00    +0.000 C 
ENDBRANCH  13  15
ENDBRANCH  11  13
BRANCH  11  16
ATOM     16  O   UNL     1       5.089   4.376  16.459  0.00  0.00    +0.000 OA
BRANCH  16  17
ATOM     17  C   UNL     1       5.596   5.030  15.285  0.00  0.00    +0.000 C 
ATOM     18  C   UNL     1       5.994   4.074  14.139  0.00  0.00    +0.000 C 
ENDBRANCH  16  17
ENDBRANCH  11  16
ENDBRANCH   1  11
TORSDOF 7
ENDMDL
MODEL 6
REMARK VINA RESULT:      -5.7      1.502      3.209
REMARK  Name = 
REMARK  9 active torsions:
REMARK  status: ('A' for Active; 'I' for Inactive)
REMARK    1  A    between atoms: C_1  and  C_2
REMARK    2  A    between atoms: C_2  and  O_3
REMARK    3  A    between atoms: O_3  and  P_4
REMARK    4  A    between atoms: P_4  and  O_6
REMARK    5  A    between atoms: P_4  and  C_9
REMARK    6  A    between atoms: O_6  and  C_7
REMARK    7  A    between atoms: C_7  and  C_8
REMARK    8  A    between atoms: C_9  and  N_10
REMARK    9  A    between atoms: C_9  and  C_11
REMARK                            x       y       z     vdW  Elec       q    Type
REMARK                         _______ _______ _______ _____ _____    ______ ____
ROOT
ATOM      1  C   UNL     1       4.272   4.962  18.555  0.00  0.00    +0.000 C 
ENDROOT
BRANCH   1   2
ATOM      2  C   UNL     1       3.130   4.501  17.608  0.00  0.00    +0.000 C 
ATOM      3  C   UNL     1       3.301   3.017  17.220  0.00  0.00    +0.000 C 
ATOM      4  C   UNL     1       3.036   2.071  18.390  0.00  0.00    +0.000 C 
ATOM      5  C   UNL     1       1.647   2.274  18.979  0.00  0.00    +0.000 C 
ATOM      6  C   UNL     1       1.361   3.733  19.318  0.00  0.00    +0.000 C 
ATOM      7  C   UNL     1       1.708   4.693  18.180  0.00  0.00    +0.000 C 
ENDBRANCH   1   2
BRANCH   1   8
ATOM      8  N   UNL     1       3.730   5.599  19.786  0.00  0.00    +0.000 NA
ATOM      9  H   UNL     1       2.728   5.734  19.700  0.00  0.00    +0.000 HD
ATOM     10  H   UNL     1       4.125   6.547  19.802  0.00  0.00    +0.000 HD
ENDBRANCH   1   8
BRANCH   1  11
ATOM     11  P   UNL     1       5.514   5.976  17.672  0.00  0.00    +0.000 P 
ATOM     12  O   UNL     1       4.400   6.370  16.694  0.00  0.00    +0.000 OA
BRANCH  11  13
ATOM     13  O   UNL     1       6.688   6.934  16.838  0.00  0.00    +0.000 OA
BRANCH  13  15
ATOM     14  C   UNL     1       8.059   8.978  17.861  0.00  0.00    +0.000 C 
ATOM     15  C   UNL     1       7.739   7.471  17.777  0.00  0.00    +0.000 C 
ENDBRANCH  13  15
ENDBRANCH  11  13
BRANCH  11  16
ATOM     16  O   UNL     1       6.289   4.560  17.149  0.00  0.00    +0.000 OA
BRANCH  16  17
ATOM     17  C   UNL     1       6.936   4.471  15.870  0.00  0.00    +0.000 C 
ATOM     18  C   UNL     1       6.026   3.981  14.722  0.00  0.00    +0.000 C 
ENDBRANCH  16  17
ENDBRANCH  11  16
ENDBRANCH   1  11
TORSDOF 7
ENDMDL
MODEL 7
REMARK VINA RESULT:      -5.6      1.473      1.643
REMARK  Name = 
REMARK  9 active torsions:
REMARK  status: ('A' for Active; 'I' for Inactive)
REMARK    1  A    between atoms: C_1  and  C_2
REMARK    2  A    between atoms: C_2  and  O_3
REMARK    3  A    between atoms: O_3  and  P_4
REMARK    4  A    between atoms: P_4  and  O_6
REMARK    5  A    between atoms: P_4  and  C_9
REMARK    6  A    between atoms: O_6  and  C_7
REMARK    7  A    between atoms: C_7  and  C_8
REMARK    8  A    between atoms: C_9  and  N_10
REMARK    9  A    between atoms: C_9  and  C_11
REMARK                            x       y       z     vdW  Elec       q    Type
REMARK                         _______ _______ _______ _____ _____    ______ ____
ROOT
ATOM      1  C   UNL     1       4.466   4.234  17.936  0.00  0.00    +0.000 C 
ENDROOT
BRANCH   1   2
ATOM      2  C   UNL     1       3.433   5.180  18.607  0.00  0.00    +0.000 C 
ATOM      3  C   UNL     1       2.065   5.096  17.897  0.00  0.00    +0.000 C 
ATOM      4  C   UNL     1       1.359   3.763  18.142  0.00  0.00    +0.000 C 
ATOM      5  C   UNL     1       1.167   3.487  19.627  0.00  0.00    +0.000 C 
ATOM      6  C   UNL     1       2.460   3.629  20.422  0.00  0.00    +0.000 C 
ATOM      7  C   UNL     1       3.214   4.923  20.114  0.00  0.00    +0.000 C 
ENDBRANCH   1   2
BRANCH   1   8
ATOM      8  N   UNL     1       5.408   3.664  18.937  0.00  0.00    +0.000 NA
ATOM      9  H   UNL     1       5.732   4.391  19.567  0.00  0.00    +0.000 HD
ATOM     10  H   UNL     1       6.240   3.385  18.404  0.00  0.00    +0.000 HD
ENDBRANCH   1   8
BRANCH   1  11
ATOM     11  P   UNL     1       5.283   5.031  16.506  0.00  0.00    +0.000 P 
ATOM     12  O   UNL     1       6.210   3.810  16.440  0.00  0.00    +0.000 OA
BRANCH  11  13
ATOM     13  O   UNL     1       6.057   5.785  15.154  0.00  0.00    +0.000 OA
BRANCH  13  15
ATOM     14  C   UNL     1       7.711   5.227  13.140  0.00  0.00    +0.000 C 
ATOM     15  C   UNL     1       6.823   4.787  14.322  0.00  0.00    +0.000 C 
ENDBRANCH  13  15
ENDBRANCH  11  13
BRANCH  11  16
ATOM     16  O   UNL     1       5.930   6.210  17.541  0.00  0.00    +0.000 OA
BRANCH  16  17
ATOM     17  C   UNL     1       7.341   6.464  17.622  0.00  0.00    +0.000 C 
ATOM     18  C   UNL     1       7.727   7.960  17.600  0.00  0.00    +0.000 C 
ENDBRANCH  16  17
ENDBRANCH  11  16
ENDBRANCH   1  11
TORSDOF 7
ENDMDL
MODEL 8
REMARK VINA RESULT:      -5.6      1.979      2.292
REMARK  Name = 
REMARK  9 active torsions:
REMARK  status: ('A' for Active; 'I' for Inactive)
REMARK    1  A    between atoms: C_1  and  C_2
REMARK    2  A    between atoms: C_2  and  O_3
REMARK    3  A    between atoms: O_3  and  P_4
REMARK    4  A    between atoms: P_4  and  O_6
REMARK    5  A    between atoms: P_4  and  C_9
REMARK    6  A    between atoms: O_6  and  C_7
REMARK    7  A    between atoms: C_7  and  C_8
REMARK    8  A    between atoms: C_9  and  N_10
REMARK    9  A    between atoms: C_9  and  C_11
REMARK                            x       y       z     vdW  Elec       q    Type
REMARK                         _______ _______ _______ _____ _____    ______ ____
ROOT
ATOM      1  C   UNL     1       4.276   3.668  18.575  0.00  0.00    +0.000 C 
ENDROOT
BRANCH   1   2
ATOM      2  C   UNL     1       3.109   4.509  19.159  0.00  0.00    +0.000 C 
ATOM      3  C   UNL     1       1.850   4.397  18.273  0.00  0.00    +0.000 C 
ATOM      4  C   UNL     1       1.204   3.014  18.345  0.00  0.00    +0.000 C 
ATOM      5  C   UNL     1       0.842   2.631  19.773  0.00  0.00    +0.000 C 
ATOM      6  C   UNL     1       2.013   2.790  20.738  0.00  0.00    +0.000 C 
ATOM      7  C   UNL     1       2.717   4.141  20.607  0.00  0.00    +0.000 C 
ENDBRANCH   1   2
BRANCH   1   8
ATOM      8  N   UNL     1       4.982   2.907  19.641  0.00  0.00    +0.000 NA
ATOM      9  H   UNL     1       5.206   3.519  20.419  0.00  0.00    +0.000 HD
ATOM     10  H   UNL     1       5.890   2.647  19.239  0.00  0.00    +0.000 HD
ENDBRANCH   1   8
BRANCH   1  11
ATOM     11  P   UNL     1       5.379   4.680  17.522  0.00  0.00    +0.000 P 
ATOM     12  O   UNL     1       6.536   4.245  18.431  0.00  0.00    +0.000 OA
BRANCH  11  13
ATOM     13  O   UNL     1       6.421   5.637  16.528  0.00  0.00    +0.000 OA
BRANCH  13  15
ATOM     14  C   UNL     1       6.062   3.992  14.462  0.00  0.00    +0.000 C 
ATOM     15  C   UNL     1       6.973   4.843  15.371  0.00  0.00    +0.000 C 
ENDBRANCH  13  15
ENDBRANCH  11  13
BRANCH  11  16
ATOM     16  O   UNL     1       4.650   6.089  18.125  0.00  0.00    +0.000 OA
BRANCH  16  17
ATOM     17  C   UNL     1       4.220   7.155  17.264  0.00  0.00    +0.000 C 
ATOM     18  C   UNL     1       2.989   7.936  17.774  0.00  0.00    +0.000 C 
ENDBRANCH  16  17
ENDBRANCH  11  16
ENDBRANCH   1  11
TORSDOF 7
ENDMDL
MODEL 9
REMARK VINA RESULT:      -5.6      2.986      5.167
REMARK  Name = 
REMARK  9 active torsions:
REMARK  status: ('A' for Active; 'I' for Inactive)
REMARK    1  A    between atoms: C_1  and  C_2
REMARK    2  A    between atoms: C_2  and  O_3
REMARK    3  A    between atoms: O_3  and  P_4
REMARK    4  A    between atoms: P_4  and  O_6
REMARK    5  A    between atoms: P_4  and  C_9
REMARK    6  A    between atoms: O_6  and  C_7
REMARK    7  A    between atoms: C_7  and  C_8
REMARK    8  A    between atoms: C_9  and  N_10
REMARK    9  A    between atoms: C_9  and  C_11
REMARK                            x       y       z     vdW  Elec       q    Type
REMARK                         _______ _______ _______ _____ _____    ______ ____
ROOT
ATOM      1  C   UNL     1       4.603   4.671  18.391  0.00  0.00    +0.000 C 
ENDROOT
BRANCH   1   2
ATOM      2  C   UNL     1       5.477   4.743  17.109  0.00  0.00    +0.000 C 
ATOM      3  C   UNL     1       5.297   6.099  16.394  0.00  0.00    +0.000 C 
ATOM      4  C   UNL     1       5.919   7.258  17.170  0.00  0.00    +0.000 C 
ATOM      5  C   UNL     1       7.400   7.030  17.438  0.00  0.00    +0.000 C 
ATOM      6  C   UNL     1       7.680   5.672  18.073  0.00  0.00    +0.000 C 
ATOM      7  C   UNL     1       6.986   4.518  17.349  0.00  0.00    +0.000 C 
ENDBRANCH   1   2
BRANCH   1   8
ATOM      8  N   UNL     1       5.338   4.023  19.511  0.00  0.00    +0.000 NA
ATOM      9  H   UNL     1       4.781   4.050  20.359  0.00  0.00    +0.000 HD
ATOM     10  H   UNL     1       6.142   4.633  19.702  0.00  0.00    +0.000 HD
ENDBRANCH   1   8
BRANCH   1  11
ATOM     11  P   UNL     1       2.961   3.938  18.050  0.00  0.00    +0.000 P 
ATOM     12  O   UNL     1       3.537   3.430  16.722  0.00  0.00    +0.000 OA
BRANCH  11  13
ATOM     13  O   UNL     1       1.409   3.246  17.727  0.00  0.00    +0.000 OA
BRANCH  13  15
ATOM     14  C   UNL     1       1.028   3.223  20.365  0.00  0.00    +0.000 C 
ATOM     15  C   UNL     1       0.810   2.621  18.962  0.00  0.00    +0.000 C 
ENDBRANCH  13  15
ENDBRANCH  11  13
BRANCH  11  16
ATOM     16  O   UNL     1       2.313   5.495  17.858  0.00  0.00    +0.000 OA
BRANCH  16  17
ATOM     17  C   UNL     1       2.550   6.543  18.811  0.00  0.00    +0.000 C 
ATOM     18  C   UNL     1       2.408   7.972  18.241  0.00  0.00    +0.000 C 
ENDBRANCH  16  17
ENDBRANCH  11  16
ENDBRANCH   1  11
TORSDOF 7
ENDMDL
