MODEL 1
REMARK VINA RESULT:      -7.1      0.000      0.000
REMARK  Name = 
REMARK  9 active torsions:
REMARK  status: ('A' for Active; 'I' for Inactive)
REMARK    1  A    between atoms: C_1  and  O_2
REMARK    2  A    between atoms: O_2  and  C_3
REMARK    3  A    between atoms: C_8  and  O_9
REMARK    4  A    between atoms: O_9  and  C_10
REMARK    5  A    between atoms: C_10  and  C_11
REMARK    6  A    between atoms: C_14  and  S_15
REMARK    7  A    between atoms: S_15  and  C_16
REMARK    8  A    between atoms: C_16  and  C_17
REMARK    9  A    between atoms: C_17  and  N_18
REMARK                            x       y       z     vdW  Elec       q    Type
REMARK                         _______ _______ _______ _____ _____    ______ ____
ROOT
ATOM      1  C   UNL     1       7.918   7.849  17.789  0.00  0.00    +0.000 A 
ATOM      2  N   UNL     1       8.110   6.867  18.647  0.00  0.00    +0.000 NA
ATOM      3  N   UNL     1       7.484   5.756  18.122  0.00  0.00    +0.000 NA
ATOM      4  C   UNL     1       6.952   6.131  16.971  0.00  0.00    +0.000 A 
ATOM      5  O   UNL     1       7.204   7.447  16.688  0.00  0.00    +0.000 OA
ENDROOT
BRANCH   1   6
ATOM      6  C   UNL     1       8.178   9.305  17.939  0.00  0.00    +0.000 C 
BRANCH   6   7
ATOM      7  O   UNL     1       8.821   9.549  19.189  0.00  0.00    +0.000 OA
BRANCH   7  13
ATOM      8  C   UNL     1       9.760  11.532  20.402  0.00  0.00    +0.000 A 
ATOM      9  C   UNL     1      10.639  12.623  20.318  0.00  0.00    +0.000 A 
ATOM     10  C   UNL     1      11.264  12.947  19.116  0.00  0.00    +0.000 A 
ATOM     11  C   UNL     1      11.051  12.153  17.995  0.00  0.00    +0.000 A 
ATOM     12  C   UNL     1      10.232  11.025  18.086  0.00  0.00    +0.000 A 
ATOM     13  C   UNL     1       9.584  10.692  19.287  0.00  0.00    +0.000 A 
BRANCH   8  15
ATOM     14  C   UNL     1       8.835  12.360  22.425  0.00  0.00    +0.000 C 
ATOM     15  O   UNL     1       9.125  11.247  21.581  0.00  0.00    +0.000 OA
ENDBRANCH   8  15
ENDBRANCH   7  13
ENDBRANCH   6   7
ENDBRANCH   1   6
BRANCH   4  16
ATOM     16  S   UNL     1       6.015   5.087  15.947  0.00  0.00    +0.000 S 
BRANCH  16  17
ATOM     17  C   UNL     1       5.189   4.107  17.234  0.00  0.00    +0.000 C 
BRANCH  17  18
ATOM     18  C   UNL     1       3.764   4.609  17.506  0.00  0.00    +0.000 C 
BRANCH  18  19
ATOM     19  N   UNL     1       2.747   3.547  17.349  0.00  0.00    +0.000 NA
ATOM     20  C   UNL     1       1.456   3.946  17.956  0.00  0.00    +0.000 C 
ATOM     21  C   UNL     1       1.441   3.890  19.496  0.00  0.00    +0.000 C 
ATOM     22  O   UNL     1       1.834   2.599  19.981  0.00  0.00    +0.000 OA
ATOM     23  C   UNL     1       3.125   2.236  19.479  0.00  0.00    +0.000 C 
ATOM     24  C   UNL     1       3.137   2.247  17.942  0.00  0.00    +0.000 C 
ENDBRANCH  18  19
ENDBRANCH  17  18
ENDBRANCH  16  17
ENDBRANCH   4  16
TORSDOF 8
ENDMDL
MODEL 2
REMARK VINA RESULT:      -7.0      1.027      1.981
REMARK  Name = 
REMARK  9 active torsions:
REMARK  status: ('A' for Active; 'I' for Inactive)
REMARK    1  A    between atoms: C_1  and  O_2
REMARK    2  A    between atoms: O_2  and  C_3
REMARK    3  A    between atoms: C_8  and  O_9
REMARK    4  A    between atoms: O_9  and  C_10
REMARK    5  A    between atoms: C_10  and  C_11
REMARK    6  A    between atoms: C_14  and  S_15
REMARK    7  A    between atoms: S_15  and  C_16
REMARK    8  A    between atoms: C_16  and  C_17
REMARK    9  A    between atoms: C_17  and  N_18
REMARK                            x       y       z     vdW  Elec       q    Type
REMARK                         _______ _______ _______ _____ _____    ______ ____
ROOT
ATOM      1  C   UNL     1       8.047   8.019  17.944  0.00  0.00    +0.000 A 
ATOM      2  N   UNL     1       8.185   7.011  18.780  0.00  0.00    +0.000 NA
ATOM      3  N   UNL     1       7.561   5.927  18.198  0.00  0.00    +0.000 NA
ATOM      4  C   UNL     1       7.084   6.343  17.038  0.00  0.00    +0.000 A 
ATOM      5  O   UNL     1       7.372   7.662  16.803  0.00  0.00    +0.000 OA
ENDROOT
BRANCH   1   6
ATOM      6  C   UNL     1       8.326   9.465  18.145  0.00  0.00    +0.000 C 
BRANCH   6   7
ATOM      7  O   UNL     1       9.457   9.617  19.003  0.00  0.00    +0.000 OA
BRANCH   7  13
ATOM      8  C   UNL     1      10.330  11.963  18.861  0.00  0.00    +0.000 A 
ATOM      9  C   UNL     1      10.421  13.200  19.520  0.00  0.00    +0.000 A 
ATOM     10  C   UNL     1       9.986  13.343  20.836  0.00  0.00    +0.000 A 
ATOM     11  C   UNL     1       9.412  12.261  21.491  0.00  0.00    +0.000 A 
ATOM     12  C   UNL     1       9.253  11.045  20.821  0.00  0.00    +0.000 A 
ATOM     13  C   UNL     1       9.698  10.880  19.500  0.00  0.00    +0.000 A 
BRANCH   8  15
ATOM     14  C   UNL     1      11.294  13.012  16.964  0.00  0.00    +0.000 C 
ATOM     15  O   UNL     1      10.795  11.827  17.581  0.00  0.00    +0.000 OA
ENDBRANCH   8  15
ENDBRANCH   7  13
ENDBRANCH   6   7
ENDBRANCH   1   6
BRANCH   4  16
ATOM     16  S   UNL     1       6.171   5.346  15.947  0.00  0.00    +0.000 S 
BRANCH  16  17
ATOM     17  C   UNL     1       4.610   5.283  16.872  0.00  0.00    +0.000 C 
BRANCH  17  18
ATOM     18  C   UNL     1       4.263   3.853  17.310  0.00  0.00    +0.000 C 
BRANCH  18  19
ATOM     19  N   UNL     1       2.819   3.558  17.197  0.00  0.00    +0.000 NA
ATOM     20  C   UNL     1       2.004   4.604  17.860  0.00  0.00    +0.000 C 
ATOM     21  C   UNL     1       2.016   4.529  19.399  0.00  0.00    +0.000 C 
ATOM     22  O   UNL     1       1.624   3.231  19.867  0.00  0.00    +0.000 OA
ATOM     23  C   UNL     1       2.463   2.213  19.309  0.00  0.00    +0.000 C 
ATOM     24  C   UNL     1       2.424   2.253  17.773  0.00  0.00    +0.000 C 
ENDBRANCH  18  19
ENDBRANCH  17  18
ENDBRANCH  16  17
ENDBRANCH   4  16
TORSDOF 8
ENDMDL
MODEL 3
REMARK VINA RESULT:      -6.9      1.946      2.192
REMARK  Name = 
REMARK  9 active torsions:
REMARK  status: ('A' for Active; 'I' for Inactive)
REMARK    1  A    between atoms: C_1  and  O_2
REMARK    2  A    between atoms: O_2  and  C_3
REMARK    3  A    between atoms: C_8  and  O_9
REMARK    4  A    between atoms: O_9  and  C_10
REMARK    5  A    between atoms: C_10  and  C_11
REMARK    6  A    between atoms: C_14  and  S_15
REMARK    7  A    between atoms: S_15  and  C_16
REMARK    8  A    between atoms: C_16  and  C_17
REMARK    9  A    between atoms: C_17  and  N_18
REMARK                            x       y       z     vdW  Elec       q    Type
REMARK                         _______ _______ _______ _____ _____    ______ ____
ROOT
ATOM      1  C   UNL     1       8.092   8.578  18.156  0.00  0.00    +0.000 A 
ATOM      2  N   UNL     1       7.242   8.542  17.150  0.00  0.00    +0.000 NA
ATOM      3  N   UNL     1       6.921   7.215  16.952  0.00  0.00    +0.000 NA
ATOM      4  C   UNL     1       7.594   6.524  17.856  0.00  0.00    +0.000 A 
ATOM      5  O   UNL     1       8.347   7.330  18.667  0.00  0.00    +0.000 OA
ENDROOT
BRANCH   1   6
ATOM      6  C   UNL     1       8.926   9.702  18.653  0.00  0.00    +0.000 C 
BRANCH   6   7
ATOM      7  O   UNL     1       8.463  10.928  18.087  0.00  0.00    +0.000 OA
BRANCH   7  13
ATOM      8  C   UNL     1       9.156  13.322  17.820  0.00  0.00    +0.000 A 
ATOM      9  C   UNL     1      10.247  14.205  17.752  0.00  0.00    +0.000 A 
ATOM     10  C   UNL     1      11.553  13.726  17.706  0.00  0.00    +0.000 A 
ATOM     11  C   UNL     1      11.786  12.357  17.775  0.00  0.00    +0.000 A 
ATOM     12  C   UNL     1      10.712  11.474  17.912  0.00  0.00    +0.000 A 
ATOM     13  C   UNL     1       9.388  11.940  17.946  0.00  0.00    +0.000 A 
BRANCH   8  15
ATOM     14  C   UNL     1       7.498  14.571  18.970  0.00  0.00    +0.000 C 
ATOM     15  O   UNL     1       7.876  13.806  17.827  0.00  0.00    +0.000 OA
ENDBRANCH   8  15
ENDBRANCH   7  13
ENDBRANCH   6   7
ENDBRANCH   1   6
BRANCH   4  16
ATOM     16  S   UNL     1       7.554   4.793  17.984  0.00  0.00    +0.000 S 
BRANCH  16  17
ATOM     17  C   UNL     1       5.810   4.524  17.553  0.00  0.00    +0.000 C 
BRANCH  17  18
ATOM     18  C   UNL     1       4.941   4.309  18.799  0.00  0.00    +0.000 C 
BRANCH  18  19
ATOM     19  N   UNL     1       3.498   4.472  18.521  0.00  0.00    +0.000 NA
ATOM     20  C   UNL     1       2.689   4.267  19.746  0.00  0.00    +0.000 C 
ATOM     21  C   UNL     1       2.557   2.792  20.173  0.00  0.00    +0.000 C 
ATOM     22  O   UNL     1       2.050   1.977  19.107  0.00  0.00    +0.000 OA
ATOM     23  C   UNL     1       2.875   2.090  17.942  0.00  0.00    +0.000 C 
ATOM     24  C   UNL     1       2.977   3.553  17.483  0.00  0.00    +0.000 C 
ENDBRANCH  18  19
ENDBRANCH  17  18
ENDBRANCH  16  17
ENDBRANCH   4  16
TORSDOF 8
ENDMDL
MODEL 4
REMARK VINA RESULT:      -6.9      1.184      2.124
REMARK  Name = 
REMARK  9 active torsions:
REMARK  status: ('A' for Active; 'I' for Inactive)
REMARK    1  A    between atoms: C_1  and  O_2
REMARK    2  A    between atoms: O_2  and  C_3
REMARK    3  A    between atoms: C_8  and  O_9
REMARK    4  A    between atoms: O_9  and  C_10
REMARK    5  A    between atoms: C_10  and  C_11
REMARK    6  A    between atoms: C_14  and  S_15
REMARK    7  A    between atoms: S_15  and  C_16
REMARK    8  A    between atoms: C_16  and  C_17
REMARK    9  A    between atoms: C_17  and  N_18
REMARK                            x       y       z     vdW  Elec       q    Type
REMARK                         _______ _______ _______ _____ _____    ______ ____
ROOT
ATOM      1  C   UNL     1       8.122   8.416  18.015  0.00  0.00    +0.000 A 
ATOM      2  N   UNL     1       8.352   7.312  18.697  0.00  0.00    +0.000 NA
ATOM      3  N   UNL     1       7.465   6.366  18.227  0.00  0.00    +0.000 NA
ATOM      4  C   UNL     1       6.751   6.953  17.282  0.00  0.00    +0.000 A 
ATOM      5  O   UNL     1       7.128   8.255  17.082  0.00  0.00    +0.000 OA
ENDROOT
BRANCH   1   6
ATOM      6  C   UNL     1       8.624   9.795  18.245  0.00  0.00    +0.000 C 
BRANCH   6   7
ATOM      7  O   UNL     1       9.467   9.811  19.397  0.00  0.00    +0.000 OA
BRANCH   7  13
ATOM      8  C   UNL     1      10.703  11.992  19.430  0.00  0.00    +0.000 A 
ATOM      9  C   UNL     1      10.837  13.230  20.078  0.00  0.00    +0.000 A 
ATOM     10  C   UNL     1      10.149  13.497  21.260  0.00  0.00    +0.000 A 
ATOM     11  C   UNL     1       9.283  12.543  21.781  0.00  0.00    +0.000 A 
ATOM     12  C   UNL     1       9.090  11.335  21.106  0.00  0.00    +0.000 A 
ATOM     13  C   UNL     1       9.785  11.045  19.921  0.00  0.00    +0.000 A 
BRANCH   8  15
ATOM     14  C   UNL     1      11.247  12.657  17.217  0.00  0.00    +0.000 C 
ATOM     15  O   UNL     1      11.413  11.731  18.289  0.00  0.00    +0.000 OA
ENDBRANCH   8  15
ENDBRANCH   7  13
ENDBRANCH   6   7
ENDBRANCH   1   6
BRANCH   4  16
ATOM     16  S   UNL     1       5.463   6.178  16.413  0.00  0.00    +0.000 S 
BRANCH  16  17
ATOM     17  C   UNL     1       5.320   4.671  17.417  0.00  0.00    +0.000 C 
BRANCH  17  18
ATOM     18  C   UNL     1       3.998   3.936  17.158  0.00  0.00    +0.000 C 
BRANCH  18  19
ATOM     19  N   UNL     1       3.865   2.704  17.964  0.00  0.00    +0.000 NA
ATOM     20  C   UNL     1       2.525   2.094  17.795  0.00  0.00    +0.000 C 
ATOM     21  C   UNL     1       1.397   2.838  18.537  0.00  0.00    +0.000 C 
ATOM     22  O   UNL     1       1.695   2.991  19.932  0.00  0.00    +0.000 OA
ATOM     23  C   UNL     1       2.945   3.665  20.115  0.00  0.00    +0.000 C 
ATOM     24  C   UNL     1       4.083   2.907  19.415  0.00  0.00    +0.000 C 
ENDBRANCH  18  19
ENDBRANCH  17  18
ENDBRANCH  16  17
ENDBRANCH   4  16
TORSDOF 8
ENDMDL
MODEL 5
REMARK VINA RESULT:      -6.8      1.681      2.465
REMARK  Name = 
REMARK  9 active torsions:
REMARK  status: ('A' for Active; 'I' for Inactive)
REMARK    1  A    between atoms: C_1  and  O_2
REMARK    2  A    between atoms: O_2  and  C_3
REMARK    3  A    between atoms: C_8  and  O_9
REMARK    4  A    between atoms: O_9  and  C_10
REMARK    5  A    between atoms: C_10  and  C_11
REMARK    6  A    between atoms: C_14  and  S_15
REMARK    7  A    between atoms: S_15  and  C_16
REMARK    8  A    between atoms: C_16  and  C_17
REMARK    9  A    between atoms: C_17  and  N_18
REMARK                            x       y       z     vdW  Elec       q    Type
REMARK                         _______ _______ _______ _____ _____    ______ ____
ROOT
ATOM      1  C   UNL     1       8.210   8.413  18.293  0.00  0.00    +0.000 A 
ATOM      2  N   UNL     1       7.548   8.571  17.164  0.00  0.00    +0.000 NA
ATOM      3  N   UNL     1       7.102   7.321  16.790  0.00  0.00    +0.000 NA
ATOM      4  C   UNL     1       7.517   6.477  17.720  0.00  0.00    +0.000 A 
ATOM      5  O   UNL     1       8.214   7.108  18.716  0.00  0.00    +0.000 OA
ENDROOT
BRANCH   1   6
ATOM      6  C   UNL     1       9.080   9.370  19.024  0.00  0.00    +0.000 C 
BRANCH   6   7
ATOM      7  O   UNL     1       9.071  10.631  18.355  0.00  0.00    +0.000 OA
BRANCH   7  13
ATOM      8  C   UNL     1      10.107  12.907  18.536  0.00  0.00    +0.000 A 
ATOM      9  C   UNL     1      10.510  13.922  19.419  0.00  0.00    +0.000 A 
ATOM     10  C   UNL     1      10.483  13.724  20.797  0.00  0.00    +0.000 A 
ATOM     11  C   UNL     1      10.009  12.522  21.309  0.00  0.00    +0.000 A 
ATOM     12  C   UNL     1       9.542  11.532  20.442  0.00  0.00    +0.000 A 
ATOM     13  C   UNL     1       9.574  11.710  19.050  0.00  0.00    +0.000 A 
BRANCH   8  15
ATOM     14  C   UNL     1      11.456  13.436  16.657  0.00  0.00    +0.000 C 
ATOM     15  O   UNL     1      10.173  13.103  17.183  0.00  0.00    +0.000 OA
ENDBRANCH   8  15
ENDBRANCH   7  13
ENDBRANCH   6   7
ENDBRANCH   1   6
BRANCH   4  16
ATOM     16  S   UNL     1       7.239   4.764  17.673  0.00  0.00    +0.000 S 
BRANCH  16  17
ATOM     17  C   UNL     1       5.780   4.691  18.751  0.00  0.00    +0.000 C 
BRANCH  17  18
ATOM     18  C   UNL     1       4.633   3.901  18.107  0.00  0.00    +0.000 C 
BRANCH  18  19
ATOM     19  N   UNL     1       3.301   4.405  18.505  0.00  0.00    +0.000 NA
ATOM     20  C   UNL     1       3.091   4.269  19.966  0.00  0.00    +0.000 C 
ATOM     21  C   UNL     1       2.810   2.826  20.429  0.00  0.00    +0.000 C 
ATOM     22  O   UNL     1       1.706   2.249  19.718  0.00  0.00    +0.000 OA
ATOM     23  C   UNL     1       1.934   2.286  18.305  0.00  0.00    +0.000 C 
ATOM     24  C   UNL     1       2.173   3.727  17.826  0.00  0.00    +0.000 C 
ENDBRANCH  18  19
ENDBRANCH  17  18
ENDBRANCH  16  17
ENDBRANCH   4  16
TORSDOF 8
ENDMDL
MODEL 6
REMARK VINA RESULT:      -6.7      1.624      1.910
REMARK  Name = 
REMARK  9 active torsions:
REMARK  status: ('A' for Active; 'I' for Inactive)
REMARK    1  A    between atoms: C_1  and  O_2
REMARK    2  A    between atoms: O_2  and  C_3
REMARK    3  A    between atoms: C_8  and  O_9
REMARK    4  A    between atoms: O_9  and  C_10
REMARK    5  A    between atoms: C_10  and  C_11
REMARK    6  A    between atoms: C_14  and  S_15
REMARK    7  A    between atoms: S_15  and  C_16
REMARK    8  A    between atoms: C_16  and  C_17
REMARK    9  A    between atoms: C_17  and  N_18
REMARK                            x       y       z     vdW  Elec       q    Type
REMARK                         _______ _______ _______ _____ _____    ______ ____
ROOT
ATOM      1  C   UNL     1       8.123   8.037  18.206  0.00  0.00    +0.000 A 
ATOM      2  N   UNL     1       8.173   6.819  18.707  0.00  0.00    +0.000 NA
ATOM      3  N   UNL     1       7.204   6.085  18.055  0.00  0.00    +0.000 NA
ATOM      4  C   UNL     1       6.626   6.902  17.192  0.00  0.00    +0.000 A 
ATOM      5  O   UNL     1       7.173   8.158  17.222  0.00  0.00    +0.000 OA
ENDROOT
BRANCH   1   6
ATOM      6  C   UNL     1       8.778   9.285  18.678  0.00  0.00    +0.000 C 
BRANCH   6   7
ATOM      7  O   UNL     1       8.347  10.383  17.875  0.00  0.00    +0.000 OA
BRANCH   7  13
ATOM      8  C   UNL     1       8.725  12.855  17.697  0.00  0.00    +0.000 A 
ATOM      9  C   UNL     1       9.664  13.889  17.837  0.00  0.00    +0.000 A 
ATOM     10  C   UNL     1      11.007  13.609  18.079  0.00  0.00    +0.000 A 
ATOM     11  C   UNL     1      11.416  12.289  18.230  0.00  0.00    +0.000 A 
ATOM     12  C   UNL     1      10.478  11.257  18.161  0.00  0.00    +0.000 A 
ATOM     13  C   UNL     1       9.123  11.522  17.905  0.00  0.00    +0.000 A 
BRANCH   8  15
ATOM     14  C   UNL     1       7.016  14.500  17.620  0.00  0.00    +0.000 C 
ATOM     15  O   UNL     1       7.415  13.145  17.423  0.00  0.00    +0.000 OA
ENDBRANCH   8  15
ENDBRANCH   7  13
ENDBRANCH   6   7
ENDBRANCH   1   6
BRANCH   4  16
ATOM     16  S   UNL     1       5.305   6.450  16.159  0.00  0.00    +0.000 S 
BRANCH  16  17
ATOM     17  C   UNL     1       4.915   4.839  16.900  0.00  0.00    +0.000 C 
BRANCH  17  18
ATOM     18  C   UNL     1       3.584   4.870  17.664  0.00  0.00    +0.000 C 
BRANCH  18  19
ATOM     19  N   UNL     1       2.721   3.711  17.350  0.00  0.00    +0.000 NA
ATOM     20  C   UNL     1       1.388   3.848  17.983  0.00  0.00    +0.000 C 
ATOM     21  C   UNL     1       1.382   3.586  19.502  0.00  0.00    +0.000 C 
ATOM     22  O   UNL     1       1.947   2.306  19.818  0.00  0.00    +0.000 OA
ATOM     23  C   UNL     1       3.275   2.191  19.294  0.00  0.00    +0.000 C 
ATOM     24  C   UNL     1       3.284   2.408  17.772  0.00  0.00    +0.000 C 
ENDBRANCH  18  19
ENDBRANCH  17  18
ENDBRANCH  16  17
ENDBRANCH   4  16
TORSDOF 8
ENDMDL
MODEL 7
REMARK VINA RESULT:      -6.7      1.800      2.077
REMARK  Name = 
REMARK  9 active torsions:
REMARK  status: ('A' for Active; 'I' for Inactive)
REMARK    1  A    between atoms: C_1  and  O_2
REMARK    2  A    between atoms: O_2  and  C_3
REMARK    3  A    between atoms: C_8  and  O_9
REMARK    4  A    between atoms: O_9  and  C_10
REMARK    5  A    between atoms: C_10  and  C_11
REMARK    6  A    between atoms: C_14  and  S_15
REMARK    7  A    between atoms: S_15  and  C_16
REMARK    8  A    between atoms: C_16  and  C_17
REMARK    9  A    between atoms: C_17  and  N_18
REMARK                            x       y       z     vdW  Elec       q    Type
REMARK                         _______ _______ _______ _____ _____    ______ ____
ROOT
ATOM      1  C   UNL     1       8.208   8.538  18.303  0.00  0.00    +0.000 A 
ATOM      2  N   UNL     1       7.572   8.650  17.154  0.00  0.00    +0.000 NA
ATOM      3  N   UNL     1       7.113   7.390  16.833  0.00  0.00    +0.000 NA
ATOM      4  C   UNL     1       7.496   6.587  17.811  0.00  0.00    +0.000 A 
ATOM      5  O   UNL     1       8.183   7.255  18.790  0.00  0.00    +0.000 OA
ENDROOT
BRANCH   1   6
ATOM      6  C   UNL     1       9.079   9.517  19.005  0.00  0.00    +0.000 C 
BRANCH   6   7
ATOM      7  O   UNL     1       9.476  10.542  18.095  0.00  0.00    +0.000 OA
BRANCH   7  13
ATOM      8  C   UNL     1       9.608  12.894  18.953  0.00  0.00    +0.000 A 
ATOM      9  C   UNL     1      10.437  13.856  19.553  0.00  0.00    +0.000 A 
ATOM     10  C   UNL     1      11.796  13.614  19.739  0.00  0.00    +0.000 A 
ATOM     11  C   UNL     1      12.332  12.386  19.368  0.00  0.00    +0.000 A 
ATOM     12  C   UNL     1      11.503  11.397  18.834  0.00  0.00    +0.000 A 
ATOM     13  C   UNL     1      10.134  11.630  18.627  0.00  0.00    +0.000 A 
BRANCH   8  15
ATOM     14  C   UNL     1       7.986  14.350  18.016  0.00  0.00    +0.000 C 
ATOM     15  O   UNL     1       8.282  13.160  18.744  0.00  0.00    +0.000 OA
ENDBRANCH   8  15
ENDBRANCH   7  13
ENDBRANCH   6   7
ENDBRANCH   1   6
BRANCH   4  16
ATOM     16  S   UNL     1       7.190   4.878  17.842  0.00  0.00    +0.000 S 
BRANCH  16  17
ATOM     17  C   UNL     1       5.757   4.874  18.957  0.00  0.00    +0.000 C 
BRANCH  17  18
ATOM     18  C   UNL     1       4.510   4.286  18.281  0.00  0.00    +0.000 C 
BRANCH  18  19
ATOM     19  N   UNL     1       4.358   2.837  18.532  0.00  0.00    +0.000 NA
ATOM     20  C   UNL     1       3.143   2.303  17.873  0.00  0.00    +0.000 C 
ATOM     21  C   UNL     1       1.827   2.679  18.581  0.00  0.00    +0.000 C 
ATOM     22  O   UNL     1       1.844   2.298  19.963  0.00  0.00    +0.000 OA
ATOM     23  C   UNL     1       2.962   2.883  20.640  0.00  0.00    +0.000 C 
ATOM     24  C   UNL     1       4.282   2.478  19.966  0.00  0.00    +0.000 C 
ENDBRANCH  18  19
ENDBRANCH  17  18
ENDBRANCH  16  17
ENDBRANCH   4  16
TORSDOF 8
ENDMDL
MODEL 8
REMARK VINA RESULT:      -6.7      1.833      2.743
REMARK  Name = 
REMARK  9 active torsions:
REMARK  status: ('A' for Active; 'I' for Inactive)
REMARK    1  A    between atoms: C_1  and  O_2
REMARK    2  A    between atoms: O_2  and  C_3
REMARK    3  A    between atoms: C_8  and  O_9
REMARK    4  A    between atoms: O_9  and  C_10
REMARK    5  A    between atoms: C_10  and  C_11
REMARK    6  A    between atoms: C_14  and  S_15
REMARK    7  A    between atoms: S_15  and  C_16
REMARK    8  A    between atoms: C_16  and  C_17
REMARK    9  A    between atoms: C_17  and  N_18
REMARK                            x       y       z     vdW  Elec       q    Type
REMARK                         _______ _______ _______ _____ _____    ______ ____
ROOT
ATOM      1  C   UNL     1       8.388   8.822  18.344  0.00  0.00    +0.000 A 
ATOM      2  N   UNL     1       7.613   8.946  17.285  0.00  0.00    +0.000 NA
ATOM      3  N   UNL     1       7.124   7.687  17.004  0.00  0.00    +0.000 NA
ATOM      4  C   UNL     1       7.629   6.873  17.915  0.00  0.00    +0.000 A 
ATOM      5  O   UNL     1       8.429   7.532  18.811  0.00  0.00    +0.000 OA
ENDROOT
BRANCH   1   6
ATOM      6  C   UNL     1       9.334   9.796  18.947  0.00  0.00    +0.000 C 
BRANCH   6   7
ATOM      7  O   UNL     1       9.007  11.114  18.509  0.00  0.00    +0.000 OA
BRANCH   7  13
ATOM      8  C   UNL     1      10.063  13.363  18.842  0.00  0.00    +0.000 A 
ATOM      9  C   UNL     1      10.414  14.342  19.786  0.00  0.00    +0.000 A 
ATOM     10  C   UNL     1      10.281  14.100  21.151  0.00  0.00    +0.000 A 
ATOM     11  C   UNL     1       9.750  12.891  21.586  0.00  0.00    +0.000 A 
ATOM     12  C   UNL     1       9.333  11.938  20.654  0.00  0.00    +0.000 A 
ATOM     13  C   UNL     1       9.473  12.161  19.275  0.00  0.00    +0.000 A 
BRANCH   8  15
ATOM     14  C   UNL     1      11.481  13.190  16.947  0.00  0.00    +0.000 C 
ATOM     15  O   UNL     1      10.234  13.601  17.505  0.00  0.00    +0.000 OA
ENDBRANCH   8  15
ENDBRANCH   7  13
ENDBRANCH   6   7
ENDBRANCH   1   6
BRANCH   4  16
ATOM     16  S   UNL     1       7.338   5.162  17.958  0.00  0.00    +0.000 S 
BRANCH  16  17
ATOM     17  C   UNL     1       5.591   5.191  18.454  0.00  0.00    +0.000 C 
BRANCH  17  18
ATOM     18  C   UNL     1       4.951   3.798  18.372  0.00  0.00    +0.000 C 
BRANCH  18  19
ATOM     19  N   UNL     1       3.816   3.638  19.307  0.00  0.00    +0.000 NA
ATOM     20  C   UNL     1       3.144   2.332  19.115  0.00  0.00    +0.000 C 
ATOM     21  C   UNL     1       2.262   2.257  17.853  0.00  0.00    +0.000 C 
ATOM     22  O   UNL     1       1.297   3.317  17.820  0.00  0.00    +0.000 OA
ATOM     23  C   UNL     1       1.937   4.594  17.910  0.00  0.00    +0.000 C 
ATOM     24  C   UNL     1       2.784   4.693  19.188  0.00  0.00    +0.000 C 
ENDBRANCH  18  19
ENDBRANCH  17  18
ENDBRANCH  16  17
ENDBRANCH   4  16
TORSDOF 8
ENDMDL
MODEL 9
REMARK VINA RESULT:      -6.7      6.956      9.906
REMARK  Name = 
REMARK  9 active torsions:
REMARK  status: ('A' for Active; 'I' for Inactive)
REMARK    1  A    between atoms: C_1  and  O_2
REMARK    2  A    between atoms: O_2  and  C_3
REMARK    3  A    between atoms: C_8  and  O_9
REMARK    4  A    between atoms: O_9  and  C_10
REMARK    5  A    between atoms: C_10  and  C_11
REMARK    6  A    between atoms: C_14  and  S_15
REMARK    7  A    between atoms: S_15  and  C_16
REMARK    8  A    between atoms: C_16  and  C_17
REMARK    9  A    between atoms: C_17  and  N_18
REMARK                            x       y       z     vdW  Elec       q    Type
REMARK                         _______ _______ _______ _____ _____    ______ ____
ROOT
ATOM      1  C   UNL     1       1.371   8.486  20.586  0.00  0.00    +0.000 A 
ATOM      2  N   UNL     1       1.398   8.735  21.879  0.00  0.00    +0.000 NA
ATOM      3  N   UNL     1       0.624   9.859  22.081  0.00  0.00    +0.000 NA
ATOM      4  C   UNL     1       0.169  10.223  20.895  0.00  0.00    +0.000 A 
ATOM      5  O   UNL     1       0.591   9.383  19.898  0.00  0.00    +0.000 OA
ENDROOT
BRANCH   1   6
ATOM      6  C   UNL     1       2.191   7.541  19.784  0.00  0.00    +0.000 C 
BRANCH   6   7
ATOM      7  O   UNL     1       2.045   6.221  20.305  0.00  0.00    +0.000 OA
BRANCH   7  13
ATOM      8  C   UNL     1       1.602   3.895  19.482  0.00  0.00    +0.000 A 
ATOM      9  C   UNL     1       1.803   2.989  18.428  0.00  0.00    +0.000 A 
ATOM     10  C   UNL     1       2.642   3.304  17.363  0.00  0.00    +0.000 A 
ATOM     11  C   UNL     1       3.253   4.552  17.317  0.00  0.00    +0.000 A 
ATOM     12  C   UNL     1       3.006   5.486  18.325  0.00  0.00    +0.000 A 
ATOM     13  C   UNL     1       2.173   5.179  19.413  0.00  0.00    +0.000 A 
BRANCH   8  15
ATOM     14  C   UNL     1       1.398   2.728  21.539  0.00  0.00    +0.000 C 
ATOM     15  O   UNL     1       0.803   3.556  20.541  0.00  0.00    +0.000 OA
ENDBRANCH   8  15
ENDBRANCH   7  13
ENDBRANCH   6   7
ENDBRANCH   1   6
BRANCH   4  16
ATOM     16  S   UNL     1      -0.825  11.620  20.621  0.00  0.00    +0.000 S 
BRANCH  16  17
ATOM     17  C   UNL     1      -0.355  11.960  18.900  0.00  0.00    +0.000 C 
BRANCH  17  18
ATOM     18  C   UNL     1      -1.580  12.040  17.979  0.00  0.00    +0.000 C 
BRANCH  18  19
ATOM     19  N   UNL     1      -2.410  10.817  18.030  0.00  0.00    +0.000 NA
ATOM     20  C   UNL     1      -2.115   9.921  16.887  0.00  0.00    +0.000 C 
ATOM     21  C   UNL     1      -2.701  10.400  15.544  0.00  0.00    +0.000 C 
ATOM     22  O   UNL     1      -4.114  10.630  15.637  0.00  0.00    +0.000 OA
ATOM     23  C   UNL     1      -4.411  11.568  16.677  0.00  0.00    +0.000 C 
ATOM     24  C   UNL     1      -3.868  11.077  18.029  0.00  0.00    +0.000 C 
ENDBRANCH  18  19
ENDBRANCH  17  18
ENDBRANCH  16  17
ENDBRANCH   4  16
TORSDOF 8
ENDMDL
