MODEL 1
REMARK VINA RESULT:      -7.5      0.000      0.000
REMARK  Name = 
REMARK  11 active torsions:
REMARK  status: ('A' for Active; 'I' for Inactive)
REMARK    1  A    between atoms: C_1  and  N_2
REMARK    2  A    between atoms: N_2  and  C_3
REMARK    3  A    between atoms: C_3  and  C_4
REMARK    4  A    between atoms: C_3  and  C_8
REMARK    5  A    between atoms: C_4  and  C_5
REMARK    6  A    between atoms: C_5  and  C_6
REMARK    7  A    between atoms: C_5  and  C_7
REMARK    8  A    between atoms: N_10  and  C_11
REMARK    9  A    between atoms: N_16  and  S_17
REMARK   10  A    between atoms: S_17  and  C_20
REMARK   11  A    between atoms: C_24  and  C_25
REMARK                            x       y       z     vdW  Elec       q    Type
REMARK                         _______ _______ _______ _____ _____    ______ ____
ROOT
ATOM      1  C   UNL     1       2.633   5.778  17.850  0.00  0.00    +0.000 C 
ATOM      2  C   UNL     1       1.743   4.562  17.594  0.00  0.00    +0.000 C 
ATOM      3  C   UNL     1       2.746   3.531  17.096  0.00  0.00    +0.000 C 
ATOM      4  C   UNL     1       3.951   3.715  18.024  0.00  0.00    +0.000 C 
ATOM      5  C   UNL     1       5.299   3.570  17.322  0.00  0.00    +0.000 C 
ATOM      6  N   UNL     1       5.641   4.956  16.925  0.00  0.00    +0.000 NA
ATOM      7  C   UNL     1       5.179   5.829  18.036  0.00  0.00    +0.000 C 
ATOM      8  C   UNL     1       3.882   5.177  18.514  0.00  0.00    +0.000 C 
ENDROOT
BRANCH   1  11
ATOM      9  C   UNL     1       1.979   8.136  18.256  0.00  0.00    +0.000 C 
ATOM     10  O   UNL     1       2.562   8.540  17.257  0.00  0.00    +0.000 OA
ATOM     11  N   UNL     1       1.993   6.807  18.652  0.00  0.00    +0.000 N 
ATOM     12  H   UNL     1       1.298   6.569  19.356  0.00  0.00    +0.000 HD
BRANCH   9  13
ATOM     13  C   UNL     1       1.189   9.082  19.197  0.00  0.00    +0.000 C 
BRANCH  13  15
ATOM     14  C   UNL     1       0.507   8.483  21.495  0.00  0.00    +0.000 C 
ATOM     15  N   UNL     1       1.621   8.777  20.599  0.00  0.00    +0.000 NA
ATOM     16  H   UNL     1       2.207   7.938  20.552  0.00  0.00    +0.000 HD
ENDBRANCH  13  15
BRANCH  13  17
ATOM     17  C   UNL     1       1.425  10.555  18.804  0.00  0.00    +0.000 C 
BRANCH  17  18
ATOM     18  C   UNL     1       0.174  11.454  18.629  0.00  0.00    +0.000 C 
ATOM     19  C   UNL     1      -1.089  10.908  19.303  0.00  0.00    +0.000 C 
ATOM     20  C   UNL     1       0.481  12.847  19.194  0.00  0.00    +0.000 C 
ENDBRANCH  17  18
ENDBRANCH  13  17
ENDBRANCH   9  13
ENDBRANCH   1  11
BRANCH   6  21
ATOM     21  S   UNL     1       7.242   5.234  16.422  0.00  0.00    +0.000 S 
ATOM     22  O   UNL     1       7.548   6.631  16.630  0.00  0.00    +0.000 OA
ATOM     23  O   UNL     1       8.068   4.192  16.994  0.00  0.00    +0.000 OA
BRANCH  21  24
ATOM     24  C   UNL     1       7.140   4.969  14.668  0.00  0.00    +0.000 A 
ATOM     25  C   UNL     1       8.125   5.523  13.844  0.00  0.00    +0.000 A 
ATOM     26  C   UNL     1       8.054   5.330  12.466  0.00  0.00    +0.000 A 
ATOM     27  C   UNL     1       7.011   4.582  11.915  0.00  0.00    +0.000 A 
ATOM     28  C   UNL     1       6.026   4.009  12.737  0.00  0.00    +0.000 A 
ATOM     29  C   UNL     1       6.101   4.205  14.127  0.00  0.00    +0.000 A 
BRANCH  28  30
ATOM     30  C   UNL     1       4.903   3.187  12.150  0.00  0.00    +0.000 C 
ATOM     31  F   UNL     1       4.359   3.730  11.026  0.00  0.00    +0.000 F 
ATOM     32  F   UNL     1       5.298   1.932  11.804  0.00  0.00    +0.000 F 
ATOM     33  F   UNL     1       3.869   3.028  13.023  0.00  0.00    +0.000 F 
ENDBRANCH  28  30
ENDBRANCH  21  24
ENDBRANCH   6  21
TORSDOF 8
ENDMDL
MODEL 2
REMARK VINA RESULT:      -7.2      0.836      1.727
REMARK  Name = 
REMARK  11 active torsions:
REMARK  status: ('A' for Active; 'I' for Inactive)
REMARK    1  A    between atoms: C_1  and  N_2
REMARK    2  A    between atoms: N_2  and  C_3
REMARK    3  A    between atoms: C_3  and  C_4
REMARK    4  A    between atoms: C_3  and  C_8
REMARK    5  A    between atoms: C_4  and  C_5
REMARK    6  A    between atoms: C_5  and  C_6
REMARK    7  A    between atoms: C_5  and  C_7
REMARK    8  A    between atoms: N_10  and  C_11
REMARK    9  A    between atoms: N_16  and  S_17
REMARK   10  A    between atoms: S_17  and  C_20
REMARK   11  A    between atoms: C_24  and  C_25
REMARK                            x       y       z     vdW  Elec       q    Type
REMARK                         _______ _______ _______ _____ _____    ______ ____
ROOT
ATOM      1  C   UNL     1       2.805   6.294  17.957  0.00  0.00    +0.000 C 
ATOM      2  C   UNL     1       1.792   5.174  17.719  0.00  0.00    +0.000 C 
ATOM      3  C   UNL     1       2.679   4.042  17.220  0.00  0.00    +0.000 C 
ATOM      4  C   UNL     1       3.905   4.107  18.135  0.00  0.00    +0.000 C 
ATOM      5  C   UNL     1       5.224   3.820  17.422  0.00  0.00    +0.000 C 
ATOM      6  N   UNL     1       5.703   5.160  17.012  0.00  0.00    +0.000 NA
ATOM      7  C   UNL     1       5.344   6.084  18.120  0.00  0.00    +0.000 C 
ATOM      8  C   UNL     1       3.992   5.571  18.614  0.00  0.00    +0.000 C 
ENDROOT
BRANCH   1  11
ATOM      9  C   UNL     1       2.040   8.640  18.210  0.00  0.00    +0.000 C 
ATOM     10  O   UNL     1       2.318   8.926  17.052  0.00  0.00    +0.000 OA
ATOM     11  N   UNL     1       2.282   7.388  18.757  0.00  0.00    +0.000 N 
ATOM     12  H   UNL     1       1.807   7.214  19.640  0.00  0.00    +0.000 HD
BRANCH   9  13
ATOM     13  C   UNL     1       1.415   9.664  19.192  0.00  0.00    +0.000 C 
BRANCH  13  15
ATOM     14  C   UNL     1       0.854  12.029  18.749  0.00  0.00    +0.000 C 
ATOM     15  N   UNL     1       0.622  10.638  18.374  0.00  0.00    +0.000 NA
ATOM     16  H   UNL     1       0.928  10.527  17.403  0.00  0.00    +0.000 HD
ENDBRANCH  13  15
BRANCH  13  17
ATOM     17  C   UNL     1       0.561   8.941  20.255  0.00  0.00    +0.000 C 
BRANCH  17  18
ATOM     18  C   UNL     1       0.595   9.506  21.698  0.00  0.00    +0.000 C 
ATOM     19  C   UNL     1      -0.625   9.134  22.546  0.00  0.00    +0.000 C 
ATOM     20  C   UNL     1       1.864   9.000  22.399  0.00  0.00    +0.000 C 
ENDBRANCH  17  18
ENDBRANCH  13  17
ENDBRANCH   9  13
ENDBRANCH   1  11
BRANCH   6  21
ATOM     21  S   UNL     1       7.319   5.269  16.493  0.00  0.00    +0.000 S 
ATOM     22  O   UNL     1       7.772   6.626  16.695  0.00  0.00    +0.000 OA
ATOM     23  O   UNL     1       8.038   4.146  17.058  0.00  0.00    +0.000 OA
BRANCH  21  24
ATOM     24  C   UNL     1       7.173   5.015  14.740  0.00  0.00    +0.000 A 
ATOM     25  C   UNL     1       8.117   5.602  13.892  0.00  0.00    +0.000 A 
ATOM     26  C   UNL     1       8.011   5.418  12.515  0.00  0.00    +0.000 A 
ATOM     27  C   UNL     1       6.972   4.646  11.989  0.00  0.00    +0.000 A 
ATOM     28  C   UNL     1       6.028   4.039  12.835  0.00  0.00    +0.000 A 
ATOM     29  C   UNL     1       6.140   4.227  14.223  0.00  0.00    +0.000 A 
BRANCH  28  30
ATOM     30  C   UNL     1       4.911   3.191  12.274  0.00  0.00    +0.000 C 
ATOM     31  F   UNL     1       4.329   3.721  11.162  0.00  0.00    +0.000 F 
ATOM     32  F   UNL     1       5.328   1.945  11.920  0.00  0.00    +0.000 F 
ATOM     33  F   UNL     1       3.902   3.010  13.170  0.00  0.00    +0.000 F 
ENDBRANCH  28  30
ENDBRANCH  21  24
ENDBRANCH   6  21
TORSDOF 8
ENDMDL
MODEL 3
REMARK VINA RESULT:      -6.9      5.229     10.187
REMARK  Name = 
REMARK  11 active torsions:
REMARK  status: ('A' for Active; 'I' for Inactive)
REMARK    1  A    between atoms: C_1  and  N_2
REMARK    2  A    between atoms: N_2  and  C_3
REMARK    3  A    between atoms: C_3  and  C_4
REMARK    4  A    between atoms: C_3  and  C_8
REMARK    5  A    between atoms: C_4  and  C_5
REMARK    6  A    between atoms: C_5  and  C_6
REMARK    7  A    between atoms: C_5  and  C_7
REMARK    8  A    between atoms: N_10  and  C_11
REMARK    9  A    between atoms: N_16  and  S_17
REMARK   10  A    between atoms: S_17  and  C_20
REMARK   11  A    between atoms: C_24  and  C_25
REMARK                            x       y       z     vdW  Elec       q    Type
REMARK                         _______ _______ _______ _____ _____    ______ ____
ROOT
ATOM      1  C   UNL     1       1.275  10.092  18.973  0.00  0.00    +0.000 C 
ATOM      2  C   UNL     1       2.314  10.862  18.159  0.00  0.00    +0.000 C 
ATOM      3  C   UNL     1       1.848  12.302  18.325  0.00  0.00    +0.000 C 
ATOM      4  C   UNL     1       1.464  12.394  19.805  0.00  0.00    +0.000 C 
ATOM      5  C   UNL     1       0.227  13.249  20.070  0.00  0.00    +0.000 C 
ATOM      6  N   UNL     1      -0.888  12.273  20.044  0.00  0.00    +0.000 NA
ATOM      7  C   UNL     1      -0.370  11.035  20.684  0.00  0.00    +0.000 C 
ATOM      8  C   UNL     1       1.087  10.959  20.230  0.00  0.00    +0.000 C 
ENDROOT
BRANCH   1  11
ATOM      9  C   UNL     1       2.421   7.975  18.380  0.00  0.00    +0.000 C 
ATOM     10  O   UNL     1       2.739   8.379  17.269  0.00  0.00    +0.000 OA
ATOM     11  N   UNL     1       1.667   8.725  19.270  0.00  0.00    +0.000 N 
ATOM     12  H   UNL     1       1.665   8.373  20.224  0.00  0.00    +0.000 HD
BRANCH   9  13
ATOM     13  C   UNL     1       2.808   6.564  18.893  0.00  0.00    +0.000 C 
BRANCH  13  15
ATOM     14  C   UNL     1       1.731   5.235  20.676  0.00  0.00    +0.000 C 
ATOM     15  N   UNL     1       2.400   6.486  20.332  0.00  0.00    +0.000 NA
ATOM     16  H   UNL     1       3.259   6.537  20.887  0.00  0.00    +0.000 HD
ENDBRANCH  13  15
BRANCH  13  17
ATOM     17  C   UNL     1       2.149   5.473  18.023  0.00  0.00    +0.000 C 
BRANCH  17  18
ATOM     18  C   UNL     1       3.084   4.424  17.368  0.00  0.00    +0.000 C 
ATOM     19  C   UNL     1       4.543   4.511  17.828  0.00  0.00    +0.000 C 
ATOM     20  C   UNL     1       2.545   3.020  17.676  0.00  0.00    +0.000 C 
ENDBRANCH  17  18
ENDBRANCH  13  17
ENDBRANCH   9  13
ENDBRANCH   1  11
BRANCH   6  21
ATOM     21  S   UNL     1      -2.387  12.809  20.644  0.00  0.00    +0.000 S 
ATOM     22  O   UNL     1      -2.683  12.072  21.852  0.00  0.00    +0.000 OA
ATOM     23  O   UNL     1      -2.371  14.256  20.633  0.00  0.00    +0.000 OA
BRANCH  21  24
ATOM     24  C   UNL     1      -3.519  12.252  19.392  0.00  0.00    +0.000 A 
ATOM     25  C   UNL     1      -4.889  12.451  19.585  0.00  0.00    +0.000 A 
ATOM     26  C   UNL     1      -5.789  12.012  18.615  0.00  0.00    +0.000 A 
ATOM     27  C   UNL     1      -5.321  11.387  17.457  0.00  0.00    +0.000 A 
ATOM     28  C   UNL     1      -3.945  11.197  17.248  0.00  0.00    +0.000 A 
ATOM     29  C   UNL     1      -3.041  11.641  18.228  0.00  0.00    +0.000 A 
BRANCH  28  30
ATOM     30  C   UNL     1      -3.432  10.534  15.991  0.00  0.00    +0.000 C 
ATOM     31  F   UNL     1      -4.398  10.312  15.057  0.00  0.00    +0.000 F 
ATOM     32  F   UNL     1      -2.471  11.269  15.367  0.00  0.00    +0.000 F 
ATOM     33  F   UNL     1      -2.871   9.319  16.241  0.00  0.00    +0.000 F 
ENDBRANCH  28  30
ENDBRANCH  21  24
ENDBRANCH   6  21
TORSDOF 8
ENDMDL
MODEL 4
REMARK VINA RESULT:      -6.9      1.089      2.029
REMARK  Name = 
REMARK  11 active torsions:
REMARK  status: ('A' for Active; 'I' for Inactive)
REMARK    1  A    between atoms: C_1  and  N_2
REMARK    2  A    between atoms: N_2  and  C_3
REMARK    3  A    between atoms: C_3  and  C_4
REMARK    4  A    between atoms: C_3  and  C_8
REMARK    5  A    between atoms: C_4  and  C_5
REMARK    6  A    between atoms: C_5  and  C_6
REMARK    7  A    between atoms: C_5  and  C_7
REMARK    8  A    between atoms: N_10  and  C_11
REMARK    9  A    between atoms: N_16  and  S_17
REMARK   10  A    between atoms: S_17  and  C_20
REMARK   11  A    between atoms: C_24  and  C_25
REMARK                            x       y       z     vdW  Elec       q    Type
REMARK                         _______ _______ _______ _____ _____    ______ ____
ROOT
ATOM      1  C   UNL     1       2.767   6.293  17.671  0.00  0.00    +0.000 C 
ATOM      2  C   UNL     1       1.821   5.093  17.643  0.00  0.00    +0.000 C 
ATOM      3  C   UNL     1       2.775   3.940  17.361  0.00  0.00    +0.000 C 
ATOM      4  C   UNL     1       3.986   4.242  18.249  0.00  0.00    +0.000 C 
ATOM      5  C   UNL     1       5.327   3.903  17.602  0.00  0.00    +0.000 C 
ATOM      6  N   UNL     1       5.734   5.170  16.951  0.00  0.00    +0.000 NA
ATOM      7  C   UNL     1       5.313   6.261  17.870  0.00  0.00    +0.000 C 
ATOM      8  C   UNL     1       3.986   5.772  18.450  0.00  0.00    +0.000 C 
ENDROOT
BRANCH   1  11
ATOM      9  C   UNL     1       1.832   7.543  19.598  0.00  0.00    +0.000 C 
ATOM     10  O   UNL     1       1.931   6.585  20.354  0.00  0.00    +0.000 OA
ATOM     11  N   UNL     1       2.176   7.484  18.255  0.00  0.00    +0.000 N 
ATOM     12  H   UNL     1       2.260   8.390  17.800  0.00  0.00    +0.000 HD
BRANCH   9  13
ATOM     13  C   UNL     1       1.282   8.916  20.063  0.00  0.00    +0.000 C 
BRANCH  13  15
ATOM     14  C   UNL     1       0.999  11.155  19.057  0.00  0.00    +0.000 C 
ATOM     15  N   UNL     1       0.976   9.713  18.832  0.00  0.00    +0.000 NA
ATOM     16  H   UNL     1       1.709   9.497  18.150  0.00  0.00    +0.000 HD
ENDBRANCH  13  15
BRANCH  13  17
ATOM     17  C   UNL     1       0.051   8.724  20.973  0.00  0.00    +0.000 C 
BRANCH  17  18
ATOM     18  C   UNL     1       0.237   8.995  22.488  0.00  0.00    +0.000 C 
ATOM     19  C   UNL     1       1.664   9.386  22.884  0.00  0.00    +0.000 C 
ATOM     20  C   UNL     1      -0.724  10.114  22.913  0.00  0.00    +0.000 C 
ENDBRANCH  17  18
ENDBRANCH  13  17
ENDBRANCH   9  13
ENDBRANCH   1  11
BRANCH   6  21
ATOM     21  S   UNL     1       7.347   5.273  16.421  0.00  0.00    +0.000 S 
ATOM     22  O   UNL     1       7.804   6.631  16.612  0.00  0.00    +0.000 OA
ATOM     23  O   UNL     1       8.067   4.153  16.988  0.00  0.00    +0.000 OA
BRANCH  21  24
ATOM     24  C   UNL     1       7.189   5.009  14.671  0.00  0.00    +0.000 A 
ATOM     25  C   UNL     1       8.137   5.577  13.814  0.00  0.00    +0.000 A 
ATOM     26  C   UNL     1       8.021   5.384  12.439  0.00  0.00    +0.000 A 
ATOM     27  C   UNL     1       6.970   4.621  11.924  0.00  0.00    +0.000 A 
ATOM     28  C   UNL     1       6.023   4.033  12.778  0.00  0.00    +0.000 A 
ATOM     29  C   UNL     1       6.143   4.230  14.165  0.00  0.00    +0.000 A 
BRANCH  28  30
ATOM     30  C   UNL     1       4.892   3.196  12.229  0.00  0.00    +0.000 C 
ATOM     31  F   UNL     1       5.275   1.946  11.844  0.00  0.00    +0.000 F 
ATOM     32  F   UNL     1       3.888   3.017  13.131  0.00  0.00    +0.000 F 
ATOM     33  F   UNL     1       4.316   3.762  11.133  0.00  0.00    +0.000 F 
ENDBRANCH  28  30
ENDBRANCH  21  24
ENDBRANCH   6  21
TORSDOF 8
ENDMDL
MODEL 5
REMARK VINA RESULT:      -6.9      5.984     10.398
REMARK  Name = 
REMARK  11 active torsions:
REMARK  status: ('A' for Active; 'I' for Inactive)
REMARK    1  A    between atoms: C_1  and  N_2
REMARK    2  A    between atoms: N_2  and  C_3
REMARK    3  A    between atoms: C_3  and  C_4
REMARK    4  A    between atoms: C_3  and  C_8
REMARK    5  A    between atoms: C_4  and  C_5
REMARK    6  A    between atoms: C_5  and  C_6
REMARK    7  A    between atoms: C_5  and  C_7
REMARK    8  A    between atoms: N_10  and  C_11
REMARK    9  A    between atoms: N_16  and  S_17
REMARK   10  A    between atoms: S_17  and  C_20
REMARK   11  A    between atoms: C_24  and  C_25
REMARK                            x       y       z     vdW  Elec       q    Type
REMARK                         _______ _______ _______ _____ _____    ______ ____
ROOT
ATOM      1  C   UNL     1       1.377   8.887  20.550  0.00  0.00    +0.000 C 
ATOM      2  C   UNL     1       1.580   8.729  22.056  0.00  0.00    +0.000 C 
ATOM      3  C   UNL     1       0.714   9.848  22.615  0.00  0.00    +0.000 C 
ATOM      4  C   UNL     1      -0.557   9.788  21.762  0.00  0.00    +0.000 C 
ATOM      5  C   UNL     1      -1.141  11.158  21.425  0.00  0.00    +0.000 C 
ATOM      6  N   UNL     1      -0.519  11.495  20.124  0.00  0.00    +0.000 NA
ATOM      7  C   UNL     1      -0.445  10.222  19.359  0.00  0.00    +0.000 C 
ATOM      8  C   UNL     1      -0.129   9.166  20.417  0.00  0.00    +0.000 C 
ENDROOT
BRANCH   1  11
ATOM      9  C   UNL     1       2.381   7.877  18.519  0.00  0.00    +0.000 C 
ATOM     10  O   UNL     1       2.470   8.954  17.945  0.00  0.00    +0.000 OA
ATOM     11  N   UNL     1       1.820   7.737  19.780  0.00  0.00    +0.000 N 
ATOM     12  H   UNL     1       2.009   6.845  20.230  0.00  0.00    +0.000 HD
BRANCH   9  13
ATOM     13  C   UNL     1       2.862   6.550  17.877  0.00  0.00    +0.000 C 
BRANCH  13  15
ATOM     14  C   UNL     1       4.887   6.418  16.465  0.00  0.00    +0.000 C 
ATOM     15  N   UNL     1       4.359   6.604  17.813  0.00  0.00    +0.000 NA
ATOM     16  H   UNL     1       4.635   7.539  18.125  0.00  0.00    +0.000 HD
ENDBRANCH  13  15
BRANCH  13  17
ATOM     17  C   UNL     1       2.340   5.340  18.679  0.00  0.00    +0.000 C 
BRANCH  17  18
ATOM     18  C   UNL     1       1.948   4.072  17.878  0.00  0.00    +0.000 C 
ATOM     19  C   UNL     1       3.140   3.216  17.438  0.00  0.00    +0.000 C 
ATOM     20  C   UNL     1       1.007   3.215  18.736  0.00  0.00    +0.000 C 
ENDBRANCH  17  18
ENDBRANCH  13  17
ENDBRANCH   9  13
ENDBRANCH   1  11
BRANCH   6  21
ATOM     21  S   UNL     1      -1.198  12.799  19.268  0.00  0.00    +0.000 S 
ATOM     22  O   UNL     1      -1.773  13.720  20.223  0.00  0.00    +0.000 OA
ATOM     23  O   UNL     1      -0.221  13.241  18.295  0.00  0.00    +0.000 OA
BRANCH  21  24
ATOM     24  C   UNL     1      -2.543  12.026  18.401  0.00  0.00    +0.000 A 
ATOM     25  C   UNL     1      -2.296  11.446  17.154  0.00  0.00    +0.000 A 
ATOM     26  C   UNL     1      -3.343  10.842  16.459  0.00  0.00    +0.000 A 
ATOM     27  C   UNL     1      -4.626  10.812  17.012  0.00  0.00    +0.000 A 
ATOM     28  C   UNL     1      -4.879  11.378  18.273  0.00  0.00    +0.000 A 
ATOM     29  C   UNL     1      -3.820  11.986  18.970  0.00  0.00    +0.000 A 
BRANCH  28  30
ATOM     30  C   UNL     1      -6.260  11.337  18.882  0.00  0.00    +0.000 C 
ATOM     31  F   UNL     1      -6.268  10.958  20.191  0.00  0.00    +0.000 F 
ATOM     32  F   UNL     1      -6.887  12.544  18.839  0.00  0.00    +0.000 F 
ATOM     33  F   UNL     1      -7.082  10.463  18.239  0.00  0.00    +0.000 F 
ENDBRANCH  28  30
ENDBRANCH  21  24
ENDBRANCH   6  21
TORSDOF 8
ENDMDL
MODEL 6
REMARK VINA RESULT:      -6.8      4.671      8.983
REMARK  Name = 
REMARK  11 active torsions:
REMARK  status: ('A' for Active; 'I' for Inactive)
REMARK    1  A    between atoms: C_1  and  N_2
REMARK    2  A    between atoms: N_2  and  C_3
REMARK    3  A    between atoms: C_3  and  C_4
REMARK    4  A    between atoms: C_3  and  C_8
REMARK    5  A    between atoms: C_4  and  C_5
REMARK    6  A    between atoms: C_5  and  C_6
REMARK    7  A    between atoms: C_5  and  C_7
REMARK    8  A    between atoms: N_10  and  C_11
REMARK    9  A    between atoms: N_16  and  S_17
REMARK   10  A    between atoms: S_17  and  C_20
REMARK   11  A    between atoms: C_24  and  C_25
REMARK                            x       y       z     vdW  Elec       q    Type
REMARK                         _______ _______ _______ _____ _____    ______ ____
ROOT
ATOM      1  C   UNL     1       5.753   5.572  15.693  0.00  0.00    +0.000 C 
ATOM      2  C   UNL     1       7.161   5.983  16.122  0.00  0.00    +0.000 C 
ATOM      3  C   UNL     1       7.054   5.953  17.640  0.00  0.00    +0.000 C 
ATOM      4  C   UNL     1       6.250   4.681  17.925  0.00  0.00    +0.000 C 
ATOM      5  C   UNL     1       5.259   4.822  19.078  0.00  0.00    +0.000 C 
ATOM      6  N   UNL     1       4.001   5.233  18.412  0.00  0.00    +0.000 NA
ATOM      7  C   UNL     1       3.947   4.481  17.130  0.00  0.00    +0.000 C 
ATOM      8  C   UNL     1       5.400   4.431  16.662  0.00  0.00    +0.000 C 
ENDROOT
BRANCH   1  11
ATOM      9  C   UNL     1       5.983   3.908  13.868  0.00  0.00    +0.000 C 
ATOM     10  O   UNL     1       6.431   3.049  14.616  0.00  0.00    +0.000 OA
ATOM     11  N   UNL     1       5.662   5.188  14.294  0.00  0.00    +0.000 N 
ATOM     12  H   UNL     1       5.098   5.723  13.638  0.00  0.00    +0.000 HD
BRANCH   9  13
ATOM     13  C   UNL     1       5.757   3.656  12.355  0.00  0.00    +0.000 C 
BRANCH  13  15
ATOM     14  C   UNL     1       7.294   2.124  11.173  0.00  0.00    +0.000 C 
ATOM     15  N   UNL     1       6.153   2.238  12.075  0.00  0.00    +0.000 NA
ATOM     16  H   UNL     1       6.428   1.826  12.972  0.00  0.00    +0.000 HD
ENDBRANCH  13  15
BRANCH  13  17
ATOM     17  C   UNL     1       4.293   3.956  11.969  0.00  0.00    +0.000 C 
BRANCH  17  18
ATOM     18  C   UNL     1       3.754   3.310  10.667  0.00  0.00    +0.000 C 
ATOM     19  C   UNL     1       2.738   2.187  10.898  0.00  0.00    +0.000 C 
ATOM     20  C   UNL     1       3.106   4.402   9.804  0.00  0.00    +0.000 C 
ENDBRANCH  17  18
ENDBRANCH  13  17
ENDBRANCH   9  13
ENDBRANCH   1  11
BRANCH   6  21
ATOM     21  S   UNL     1       2.580   5.150  19.344  0.00  0.00    +0.000 S 
ATOM     22  O   UNL     1       1.584   4.421  18.592  0.00  0.00    +0.000 OA
ATOM     23  O   UNL     1       2.956   4.743  20.681  0.00  0.00    +0.000 OA
BRANCH  21  24
ATOM     24  C   UNL     1       2.063   6.849  19.401  0.00  0.00    +0.000 A 
ATOM     25  C   UNL     1       2.276   7.657  18.280  0.00  0.00    +0.000 A 
ATOM     26  C   UNL     1       1.883   8.993  18.312  0.00  0.00    +0.000 A 
ATOM     27  C   UNL     1       1.272   9.516  19.454  0.00  0.00    +0.000 A 
ATOM     28  C   UNL     1       1.039   8.707  20.579  0.00  0.00    +0.000 A 
ATOM     29  C   UNL     1       1.437   7.360  20.542  0.00  0.00    +0.000 A 
BRANCH  28  30
ATOM     30  C   UNL     1       0.367   9.263  21.812  0.00  0.00    +0.000 C 
ATOM     31  F   UNL     1      -0.129  10.521  21.645  0.00  0.00    +0.000 F 
ATOM     32  F   UNL     1      -0.683   8.501  22.224  0.00  0.00    +0.000 F 
ATOM     33  F   UNL     1       1.216   9.338  22.874  0.00  0.00    +0.000 F 
ENDBRANCH  28  30
ENDBRANCH  21  24
ENDBRANCH   6  21
TORSDOF 8
ENDMDL
MODEL 7
REMARK VINA RESULT:      -6.8      5.207     10.155
REMARK  Name = 
REMARK  11 active torsions:
REMARK  status: ('A' for Active; 'I' for Inactive)
REMARK    1  A    between atoms: C_1  and  N_2
REMARK    2  A    between atoms: N_2  and  C_3
REMARK    3  A    between atoms: C_3  and  C_4
REMARK    4  A    between atoms: C_3  and  C_8
REMARK    5  A    between atoms: C_4  and  C_5
REMARK    6  A    between atoms: C_5  and  C_6
REMARK    7  A    between atoms: C_5  and  C_7
REMARK    8  A    between atoms: N_10  and  C_11
REMARK    9  A    between atoms: N_16  and  S_17
REMARK   10  A    between atoms: S_17  and  C_20
REMARK   11  A    between atoms: C_24  and  C_25
REMARK                            x       y       z     vdW  Elec       q    Type
REMARK                         _______ _______ _______ _____ _____    ______ ____
ROOT
ATOM      1  C   UNL     1       1.210  10.037  18.964  0.00  0.00    +0.000 C 
ATOM      2  C   UNL     1       2.323  10.808  18.256  0.00  0.00    +0.000 C 
ATOM      3  C   UNL     1       1.912  12.254  18.494  0.00  0.00    +0.000 C 
ATOM      4  C   UNL     1       1.454  12.269  19.955  0.00  0.00    +0.000 C 
ATOM      5  C   UNL     1       0.243  13.163  20.215  0.00  0.00    +0.000 C 
ATOM      6  N   UNL     1      -0.910  12.244  20.068  0.00  0.00    +0.000 NA
ATOM      7  C   UNL     1      -0.480  10.945  20.650  0.00  0.00    +0.000 C 
ATOM      8  C   UNL     1       0.994  10.830  20.264  0.00  0.00    +0.000 C 
ENDROOT
BRANCH   1  11
ATOM      9  C   UNL     1       2.252   7.897  18.267  0.00  0.00    +0.000 C 
ATOM     10  O   UNL     1       2.604   8.345  17.183  0.00  0.00    +0.000 OA
ATOM     11  N   UNL     1       1.526   8.637  19.189  0.00  0.00    +0.000 N 
ATOM     12  H   UNL     1       1.492   8.234  20.122  0.00  0.00    +0.000 HD
BRANCH   9  13
ATOM     13  C   UNL     1       2.557   6.442  18.704  0.00  0.00    +0.000 C 
BRANCH  13  15
ATOM     14  C   UNL     1       4.408   5.115  17.744  0.00  0.00    +0.000 C 
ATOM     15  N   UNL     1       4.039   6.245  18.591  0.00  0.00    +0.000 NA
ATOM     16  H   UNL     1       4.417   7.091  18.156  0.00  0.00    +0.000 HD
ENDBRANCH  13  15
BRANCH  13  17
ATOM     17  C   UNL     1       2.026   6.183  20.130  0.00  0.00    +0.000 C 
BRANCH  17  18
ATOM     18  C   UNL     1       1.430   4.782  20.423  0.00  0.00    +0.000 C 
ATOM     19  C   UNL     1       1.259   3.901  19.182  0.00  0.00    +0.000 C 
ATOM     20  C   UNL     1       2.336   4.059  21.429  0.00  0.00    +0.000 C 
ENDBRANCH  17  18
ENDBRANCH  13  17
ENDBRANCH   9  13
ENDBRANCH   1  11
BRANCH   6  21
ATOM     21  S   UNL     1      -2.414  12.810  20.627  0.00  0.00    +0.000 S 
ATOM     22  O   UNL     1      -2.750  12.091  21.835  0.00  0.00    +0.000 OA
ATOM     23  O   UNL     1      -2.375  14.257  20.601  0.00  0.00    +0.000 OA
BRANCH  21  24
ATOM     24  C   UNL     1      -3.524  12.257  19.355  0.00  0.00    +0.000 A 
ATOM     25  C   UNL     1      -4.896  12.468  19.519  0.00  0.00    +0.000 A 
ATOM     26  C   UNL     1      -5.780  12.033  18.533  0.00  0.00    +0.000 A 
ATOM     27  C   UNL     1      -5.295  11.399  17.386  0.00  0.00    +0.000 A 
ATOM     28  C   UNL     1      -3.916  11.198  17.206  0.00  0.00    +0.000 A 
ATOM     29  C   UNL     1      -3.028  11.638  18.203  0.00  0.00    +0.000 A 
BRANCH  28  30
ATOM     30  C   UNL     1      -3.383  10.525  15.963  0.00  0.00    +0.000 C 
ATOM     31  F   UNL     1      -2.769   9.334  16.207  0.00  0.00    +0.000 F 
ATOM     32  F   UNL     1      -4.359  10.263  15.051  0.00  0.00    +0.000 F 
ATOM     33  F   UNL     1      -2.461  11.291  15.317  0.00  0.00    +0.000 F 
ENDBRANCH  28  30
ENDBRANCH  21  24
ENDBRANCH   6  21
TORSDOF 8
ENDMDL
MODEL 8
REMARK VINA RESULT:      -6.7      6.568     10.182
REMARK  Name = 
REMARK  11 active torsions:
REMARK  status: ('A' for Active; 'I' for Inactive)
REMARK    1  A    between atoms: C_1  and  N_2
REMARK    2  A    between atoms: N_2  and  C_3
REMARK    3  A    between atoms: C_3  and  C_4
REMARK    4  A    between atoms: C_3  and  C_8
REMARK    5  A    between atoms: C_4  and  C_5
REMARK    6  A    between atoms: C_5  and  C_6
REMARK    7  A    between atoms: C_5  and  C_7
REMARK    8  A    between atoms: N_10  and  C_11
REMARK    9  A    between atoms: N_16  and  S_17
REMARK   10  A    between atoms: S_17  and  C_20
REMARK   11  A    between atoms: C_24  and  C_25
REMARK                            x       y       z     vdW  Elec       q    Type
REMARK                         _______ _______ _______ _____ _____    ______ ____
ROOT
ATOM      1  C   UNL     1       1.158   8.762  21.263  0.00  0.00    +0.000 C 
ATOM      2  C   UNL     1       1.237   8.882  22.785  0.00  0.00    +0.000 C 
ATOM      3  C   UNL     1       0.450  10.158  23.046  0.00  0.00    +0.000 C 
ATOM      4  C   UNL     1      -0.757  10.043  22.111  0.00  0.00    +0.000 C 
ATOM      5  C   UNL     1      -1.174  11.366  21.474  0.00  0.00    +0.000 C 
ATOM      6  N   UNL     1      -0.432  11.391  20.193  0.00  0.00    +0.000 NA
ATOM      7  C   UNL     1      -0.432   9.992  19.688  0.00  0.00    +0.000 C 
ATOM      8  C   UNL     1      -0.300   9.137  20.948  0.00  0.00    +0.000 C 
ENDROOT
BRANCH   1  11
ATOM      9  C   UNL     1       2.188   7.294  19.550  0.00  0.00    +0.000 C 
ATOM     10  O   UNL     1       2.419   8.228  18.792  0.00  0.00    +0.000 OA
ATOM     11  N   UNL     1       1.535   7.451  20.764  0.00  0.00    +0.000 N 
ATOM     12  H   UNL     1       1.606   6.651  21.388  0.00  0.00    +0.000 HD
BRANCH   9  13
ATOM     13  C   UNL     1       2.579   5.833  19.211  0.00  0.00    +0.000 C 
BRANCH  13  15
ATOM     14  C   UNL     1       4.859   4.888  19.325  0.00  0.00    +0.000 C 
ATOM     15  N   UNL     1       3.980   5.858  18.680  0.00  0.00    +0.000 NA
ATOM     16  H   UNL     1       3.924   5.611  17.688  0.00  0.00    +0.000 HD
ENDBRANCH  13  15
BRANCH  13  17
ATOM     17  C   UNL     1       2.425   4.931  20.454  0.00  0.00    +0.000 C 
BRANCH  17  18
ATOM     18  C   UNL     1       1.268   3.899  20.445  0.00  0.00    +0.000 C 
ATOM     19  C   UNL     1       1.106   3.150  19.119  0.00  0.00    +0.000 C 
ATOM     20  C   UNL     1       1.503   2.881  21.570  0.00  0.00    +0.000 C 
ENDBRANCH  17  18
ENDBRANCH  13  17
ENDBRANCH   9  13
ENDBRANCH   1  11
BRANCH   6  21
ATOM     21  S   UNL     1      -0.913  12.557  19.052  0.00  0.00    +0.000 S 
ATOM     22  O   UNL     1      -1.287  11.875  17.834  0.00  0.00    +0.000 OA
ATOM     23  O   UNL     1      -1.825  13.466  19.713  0.00  0.00    +0.000 OA
BRANCH  21  24
ATOM     24  C   UNL     1       0.605  13.423  18.730  0.00  0.00    +0.000 A 
ATOM     25  C   UNL     1       1.760  12.682  18.464  0.00  0.00    +0.000 A 
ATOM     26  C   UNL     1       2.960  13.347  18.217  0.00  0.00    +0.000 A 
ATOM     27  C   UNL     1       3.002  14.743  18.226  0.00  0.00    +0.000 A 
ATOM     28  C   UNL     1       1.842  15.495  18.476  0.00  0.00    +0.000 A 
ATOM     29  C   UNL     1       0.635  14.821  18.725  0.00  0.00    +0.000 A 
BRANCH  28  30
ATOM     30  C   UNL     1       1.878  17.005  18.474  0.00  0.00    +0.000 C 
ATOM     31  F   UNL     1       2.001  17.547  17.230  0.00  0.00    +0.000 F 
ATOM     32  F   UNL     1       0.754  17.555  19.010  0.00  0.00    +0.000 F 
ATOM     33  F   UNL     1       2.920  17.498  19.198  0.00  0.00    +0.000 F 
ENDBRANCH  28  30
ENDBRANCH  21  24
ENDBRANCH   6  21
TORSDOF 8
ENDMDL
MODEL 9
REMARK VINA RESULT:      -6.7      5.045     10.152
REMARK  Name = 
REMARK  11 active torsions:
REMARK  status: ('A' for Active; 'I' for Inactive)
REMARK    1  A    between atoms: C_1  and  N_2
REMARK    2  A    between atoms: N_2  and  C_3
REMARK    3  A    between atoms: C_3  and  C_4
REMARK    4  A    between atoms: C_3  and  C_8
REMARK    5  A    between atoms: C_4  and  C_5
REMARK    6  A    between atoms: C_5  and  C_6
REMARK    7  A    between atoms: C_5  and  C_7
REMARK    8  A    between atoms: N_10  and  C_11
REMARK    9  A    between atoms: N_16  and  S_17
REMARK   10  A    between atoms: S_17  and  C_20
REMARK   11  A    between atoms: C_24  and  C_25
REMARK                            x       y       z     vdW  Elec       q    Type
REMARK                         _______ _______ _______ _____ _____    ______ ____
ROOT
ATOM      1  C   UNL     1       1.230   9.869  19.167  0.00  0.00    +0.000 C 
ATOM      2  C   UNL     1       2.262  10.547  18.267  0.00  0.00    +0.000 C 
ATOM      3  C   UNL     1       1.804  11.998  18.291  0.00  0.00    +0.000 C 
ATOM      4  C   UNL     1       1.440  12.242  19.759  0.00  0.00    +0.000 C 
ATOM      5  C   UNL     1       0.210  13.126  19.951  0.00  0.00    +0.000 C 
ATOM      6  N   UNL     1      -0.909  12.159  20.038  0.00  0.00    +0.000 NA
ATOM      7  C   UNL     1      -0.387  10.990  20.794  0.00  0.00    +0.000 C 
ATOM      8  C   UNL     1       1.063  10.860  20.332  0.00  0.00    +0.000 C 
ENDROOT
BRANCH   1  11
ATOM      9  C   UNL     1       2.418   7.722  18.807  0.00  0.00    +0.000 C 
ATOM     10  O   UNL     1       2.779   8.034  17.679  0.00  0.00    +0.000 OA
ATOM     11  N   UNL     1       1.620   8.537  19.596  0.00  0.00    +0.000 N 
ATOM     12  H   UNL     1       1.580   8.267  20.577  0.00  0.00    +0.000 HD
BRANCH   9  13
ATOM     13  C   UNL     1       2.794   6.364  19.454  0.00  0.00    +0.000 C 
BRANCH  13  15
ATOM     14  C   UNL     1       1.475   4.748  20.779  0.00  0.00    +0.000 C 
ATOM     15  N   UNL     1       1.858   6.145  20.604  0.00  0.00    +0.000 NA
ATOM     16  H   UNL     1       2.356   6.436  21.450  0.00  0.00    +0.000 HD
ENDBRANCH  13  15
BRANCH  13  17
ATOM     17  C   UNL     1       2.733   5.231  18.409  0.00  0.00    +0.000 C 
BRANCH  17  18
ATOM     18  C   UNL     1       4.050   4.469  18.108  0.00  0.00    +0.000 C 
ATOM     19  C   UNL     1       4.556   4.635  16.672  0.00  0.00    +0.000 C 
ATOM     20  C   UNL     1       5.135   4.953  19.080  0.00  0.00    +0.000 C 
ENDBRANCH  17  18
ENDBRANCH  13  17
ENDBRANCH   9  13
ENDBRANCH   1  11
BRANCH   6  21
ATOM     21  S   UNL     1      -2.397  12.762  20.600  0.00  0.00    +0.000 S 
ATOM     22  O   UNL     1      -2.743  12.059  21.814  0.00  0.00    +0.000 OA
ATOM     23  O   UNL     1      -2.327  14.207  20.563  0.00  0.00    +0.000 OA
BRANCH  21  24
ATOM     24  C   UNL     1      -3.526  12.224  19.337  0.00  0.00    +0.000 A 
ATOM     25  C   UNL     1      -4.895  12.439  19.519  0.00  0.00    +0.000 A 
ATOM     26  C   UNL     1      -5.792  12.016  18.540  0.00  0.00    +0.000 A 
ATOM     27  C   UNL     1      -5.324  11.389  17.383  0.00  0.00    +0.000 A 
ATOM     28  C   UNL     1      -3.948  11.183  17.185  0.00  0.00    +0.000 A 
ATOM     29  C   UNL     1      -3.046  11.612  18.174  0.00  0.00    +0.000 A 
BRANCH  28  30
ATOM     30  C   UNL     1      -3.433  10.519  15.930  0.00  0.00    +0.000 C 
ATOM     31  F   UNL     1      -2.888   9.289  16.147  0.00  0.00    +0.000 F 
ATOM     32  F   UNL     1      -4.407  10.336  14.998  0.00  0.00    +0.000 F 
ATOM     33  F   UNL     1      -2.462  11.252  15.319  0.00  0.00    +0.000 F 
ENDBRANCH  28  30
ENDBRANCH  21  24
ENDBRANCH   6  21
TORSDOF 8
ENDMDL
