MODEL 1
REMARK VINA RESULT:      -6.1      0.000      0.000
REMARK  Name = 
REMARK  4 active torsions:
REMARK  status: ('A' for Active; 'I' for Inactive)
REMARK    1  A    between atoms: N_4  and  C_5
REMARK    2  A    between atoms: C_5  and  C_6
REMARK    3  A    between atoms: C_6  and  C_7
REMARK    4  A    between atoms: C_7  and  N_8
REMARK                            x       y       z     vdW  Elec       q    Type
REMARK                         _______ _______ _______ _____ _____    ______ ____
ROOT
ATOM      1  C   UNL     1       3.698   3.631  17.017  0.00  0.00    +0.000 C 
ENDROOT
BRANCH   1   2
ATOM      2  C   UNL     1       3.434   2.277  17.692  0.00  0.00    +0.000 C 
BRANCH   2   6
ATOM      3  C   UNL     1       1.704   3.695  21.383  0.00  0.00    +0.000 C 
ATOM      4  C   UNL     1       2.774   2.611  21.403  0.00  0.00    +0.000 C 
ATOM      5  C   UNL     1       3.549   2.570  20.086  0.00  0.00    +0.000 C 
ATOM      6  N   UNL     1       2.643   2.395  18.934  0.00  0.00    +0.000 NA
ATOM      7  C   UNL     1       1.657   3.481  18.878  0.00  0.00    +0.000 C 
ATOM      8  C   UNL     1       0.824   3.547  20.155  0.00  0.00    +0.000 C 
ENDBRANCH   2   6
ENDBRANCH   1   2
BRANCH   1   9
ATOM      9  C   UNL     1       5.179   3.868  16.699  0.00  0.00    +0.000 C 
BRANCH   9  10
ATOM     10  N   UNL     1       5.784   5.004  17.405  0.00  0.00    +0.000 NA
ATOM     11  C   UNL     1       7.128   4.688  17.909  0.00  0.00    +0.000 C 
ATOM     12  C   UNL     1       7.705   5.861  18.701  0.00  0.00    +0.000 C 
ATOM     13  C   UNL     1       7.732   7.133  17.865  0.00  0.00    +0.000 C 
ATOM     14  C   UNL     1       6.355   7.407  17.269  0.00  0.00    +0.000 C 
ATOM     15  C   UNL     1       5.817   6.184  16.526  0.00  0.00    +0.000 C 
ENDBRANCH   9  10
ENDBRANCH   1   9
TORSDOF 4
ENDMDL
MODEL 2
REMARK VINA RESULT:      -6.1      1.055      1.657
REMARK  Name = 
REMARK  4 active torsions:
REMARK  status: ('A' for Active; 'I' for Inactive)
REMARK    1  A    between atoms: N_4  and  C_5
REMARK    2  A    between atoms: C_5  and  C_6
REMARK    3  A    between atoms: C_6  and  C_7
REMARK    4  A    between atoms: C_7  and  N_8
REMARK                            x       y       z     vdW  Elec       q    Type
REMARK                         _______ _______ _______ _____ _____    ______ ____
ROOT
ATOM      1  C   UNL     1       4.154   3.536  17.256  0.00  0.00    +0.000 C 
ENDROOT
BRANCH   1   2
ATOM      2  C   UNL     1       2.620   3.467  17.244  0.00  0.00    +0.000 C 
BRANCH   2   6
ATOM      3  C   UNL     1       2.043   3.738  21.512  0.00  0.00    +0.000 C 
ATOM      4  C   UNL     1       1.627   2.481  20.759  0.00  0.00    +0.000 C 
ATOM      5  C   UNL     1       2.299   2.405  19.388  0.00  0.00    +0.000 C 
ATOM      6  N   UNL     1       2.025   3.615  18.588  0.00  0.00    +0.000 NA
ATOM      7  C   UNL     1       2.492   4.818  19.286  0.00  0.00    +0.000 C 
ATOM      8  C   UNL     1       1.824   4.968  20.650  0.00  0.00    +0.000 C 
ENDBRANCH   2   6
ENDBRANCH   1   2
BRANCH   1   9
ATOM      9  C   UNL     1       4.715   4.631  16.340  0.00  0.00    +0.000 C 
BRANCH   9  10
ATOM     10  N   UNL     1       5.996   5.199  16.778  0.00  0.00    +0.000 NA
ATOM     11  C   UNL     1       5.924   6.658  16.946  0.00  0.00    +0.000 C 
ATOM     12  C   UNL     1       7.287   7.233  17.331  0.00  0.00    +0.000 C 
ATOM     13  C   UNL     1       7.828   6.574  18.593  0.00  0.00    +0.000 C 
ATOM     14  C   UNL     1       7.816   5.057  18.447  0.00  0.00    +0.000 C 
ATOM     15  C   UNL     1       6.438   4.548  18.022  0.00  0.00    +0.000 C 
ENDBRANCH   9  10
ENDBRANCH   1   9
TORSDOF 4
ENDMDL
MODEL 3
REMARK VINA RESULT:      -6.1      0.770      5.947
REMARK  Name = 
REMARK  4 active torsions:
REMARK  status: ('A' for Active; 'I' for Inactive)
REMARK    1  A    between atoms: N_4  and  C_5
REMARK    2  A    between atoms: C_5  and  C_6
REMARK    3  A    between atoms: C_6  and  C_7
REMARK    4  A    between atoms: C_7  and  N_8
REMARK                            x       y       z     vdW  Elec       q    Type
REMARK                         _______ _______ _______ _____ _____    ______ ____
ROOT
ATOM      1  C   UNL     1       4.446   3.556  17.031  0.00  0.00    +0.000 C 
ENDROOT
BRANCH   1   2
ATOM      2  C   UNL     1       4.771   4.978  16.551  0.00  0.00    +0.000 C 
BRANCH   2   6
ATOM      3  C   UNL     1       8.031   6.787  18.725  0.00  0.00    +0.000 C 
ATOM      4  C   UNL     1       7.502   7.437  17.453  0.00  0.00    +0.000 C 
ATOM      5  C   UNL     1       6.112   6.910  17.096  0.00  0.00    +0.000 C 
ATOM      6  N   UNL     1       6.109   5.439  16.978  0.00  0.00    +0.000 NA
ATOM      7  C   UNL     1       6.551   4.815  18.231  0.00  0.00    +0.000 C 
ATOM      8  C   UNL     1       7.953   5.275  18.619  0.00  0.00    +0.000 C 
ENDBRANCH   2   6
ENDBRANCH   1   2
BRANCH   1   9
ATOM      9  C   UNL     1       2.961   3.355  17.360  0.00  0.00    +0.000 C 
BRANCH   9  10
ATOM     10  N   UNL     1       2.614   3.555  18.772  0.00  0.00    +0.000 NA
ATOM     11  C   UNL     1       1.162   3.655  18.974  0.00  0.00    +0.000 C 
ATOM     12  C   UNL     1       0.831   3.936  20.440  0.00  0.00    +0.000 C 
ATOM     13  C   UNL     1       1.427   2.874  21.354  0.00  0.00    +0.000 C 
ATOM     14  C   UNL     1       2.917   2.711  21.077  0.00  0.00    +0.000 C 
ATOM     15  C   UNL     1       3.185   2.473  19.590  0.00  0.00    +0.000 C 
ENDBRANCH   9  10
ENDBRANCH   1   9
TORSDOF 4
ENDMDL
MODEL 4
REMARK VINA RESULT:      -6.0      1.160      5.697
REMARK  Name = 
REMARK  4 active torsions:
REMARK  status: ('A' for Active; 'I' for Inactive)
REMARK    1  A    between atoms: N_4  and  C_5
REMARK    2  A    between atoms: C_5  and  C_6
REMARK    3  A    between atoms: C_6  and  C_7
REMARK    4  A    between atoms: C_7  and  N_8
REMARK                            x       y       z     vdW  Elec       q    Type
REMARK                         _______ _______ _______ _____ _____    ______ ____
ROOT
ATOM      1  C   UNL     1       3.885   3.867  16.983  0.00  0.00    +0.000 C 
ENDROOT
BRANCH   1   2
ATOM      2  C   UNL     1       5.279   4.287  16.493  0.00  0.00    +0.000 C 
BRANCH   2   6
ATOM      3  C   UNL     1       8.131   6.701  18.652  0.00  0.00    +0.000 C 
ATOM      4  C   UNL     1       7.267   5.688  19.391  0.00  0.00    +0.000 C 
ATOM      5  C   UNL     1       6.670   4.659  18.430  0.00  0.00    +0.000 C 
ATOM      6  N   UNL     1       5.908   5.314  17.349  0.00  0.00    +0.000 NA
ATOM      7  C   UNL     1       6.763   6.237  16.594  0.00  0.00    +0.000 C 
ATOM      8  C   UNL     1       7.358   7.313  17.497  0.00  0.00    +0.000 C 
ENDBRANCH   2   6
ENDBRANCH   1   2
BRANCH   1   9
ATOM      9  C   UNL     1       3.109   5.012  17.645  0.00  0.00    +0.000 C 
BRANCH   9  10
ATOM     10  N   UNL     1       2.250   4.604  18.764  0.00  0.00    +0.000 NA
ATOM     11  C   UNL     1       1.650   3.280  18.544  0.00  0.00    +0.000 C 
ATOM     12  C   UNL     1       0.705   2.910  19.687  0.00  0.00    +0.000 C 
ATOM     13  C   UNL     1       1.418   2.958  21.031  0.00  0.00    +0.000 C 
ATOM     14  C   UNL     1       2.115   4.302  21.215  0.00  0.00    +0.000 C 
ATOM     15  C   UNL     1       3.013   4.632  20.022  0.00  0.00    +0.000 C 
ENDBRANCH   9  10
ENDBRANCH   1   9
TORSDOF 4
ENDMDL
MODEL 5
REMARK VINA RESULT:      -6.0      0.727      5.463
REMARK  Name = 
REMARK  4 active torsions:
REMARK  status: ('A' for Active; 'I' for Inactive)
REMARK    1  A    between atoms: N_4  and  C_5
REMARK    2  A    between atoms: C_5  and  C_6
REMARK    3  A    between atoms: C_6  and  C_7
REMARK    4  A    between atoms: C_7  and  N_8
REMARK                            x       y       z     vdW  Elec       q    Type
REMARK                         _______ _______ _______ _____ _____    ______ ____
ROOT
ATOM      1  C   UNL     1       4.355   3.231  17.273  0.00  0.00    +0.000 C 
ENDROOT
BRANCH   1   2
ATOM      2  C   UNL     1       4.746   4.527  16.549  0.00  0.00    +0.000 C 
BRANCH   2   6
ATOM      3  C   UNL     1       7.981   6.485  18.630  0.00  0.00    +0.000 C 
ATOM      4  C   UNL     1       7.009   5.592  19.389  0.00  0.00    +0.000 C 
ATOM      5  C   UNL     1       6.241   4.672  18.439  0.00  0.00    +0.000 C 
ATOM      6  N   UNL     1       5.542   5.443  17.393  0.00  0.00    +0.000 NA
ATOM      7  C   UNL     1       6.492   6.249  16.617  0.00  0.00    +0.000 C 
ATOM      8  C   UNL     1       7.263   7.217  17.510  0.00  0.00    +0.000 C 
ENDBRANCH   2   6
ENDBRANCH   1   2
BRANCH   1   9
ATOM      9  C   UNL     1       2.838   3.039  17.390  0.00  0.00    +0.000 C 
BRANCH   9  10
ATOM     10  N   UNL     1       2.332   2.974  18.766  0.00  0.00    +0.000 NA
ATOM     11  C   UNL     1       3.402   2.699  19.735  0.00  0.00    +0.000 C 
ATOM     12  C   UNL     1       2.839   2.564  21.150  0.00  0.00    +0.000 C 
ATOM     13  C   UNL     1       2.058   3.807  21.554  0.00  0.00    +0.000 C 
ATOM     14  C   UNL     1       1.008   4.141  20.500  0.00  0.00    +0.000 C 
ATOM     15  C   UNL     1       1.627   4.221  19.104  0.00  0.00    +0.000 C 
ENDBRANCH   9  10
ENDBRANCH   1   9
TORSDOF 4
ENDMDL
MODEL 6
REMARK VINA RESULT:      -5.9      0.503      1.363
REMARK  Name = 
REMARK  4 active torsions:
REMARK  status: ('A' for Active; 'I' for Inactive)
REMARK    1  A    between atoms: N_4  and  C_5
REMARK    2  A    between atoms: C_5  and  C_6
REMARK    3  A    between atoms: C_6  and  C_7
REMARK    4  A    between atoms: C_7  and  N_8
REMARK                            x       y       z     vdW  Elec       q    Type
REMARK                         _______ _______ _______ _____ _____    ______ ____
ROOT
ATOM      1  C   UNL     1       3.822   3.843  16.790  0.00  0.00    +0.000 C 
ENDROOT
BRANCH   1   2
ATOM      2  C   UNL     1       3.831   2.772  17.891  0.00  0.00    +0.000 C 
BRANCH   2   6
ATOM      3  C   UNL     1       1.188   2.929  21.299  0.00  0.00    +0.000 C 
ATOM      4  C   UNL     1       0.895   3.766  20.061  0.00  0.00    +0.000 C 
ATOM      5  C   UNL     1       1.665   3.251  18.846  0.00  0.00    +0.000 C 
ATOM      6  N   UNL     1       3.116   3.194  19.113  0.00  0.00    +0.000 NA
ATOM      7  C   UNL     1       3.399   2.329  20.264  0.00  0.00    +0.000 C 
ATOM      8  C   UNL     1       2.686   2.818  21.521  0.00  0.00    +0.000 C 
ENDBRANCH   2   6
ENDBRANCH   1   2
BRANCH   1   9
ATOM      9  C   UNL     1       5.228   4.290  16.372  0.00  0.00    +0.000 C 
BRANCH   9  10
ATOM     10  N   UNL     1       5.857   5.261  17.276  0.00  0.00    +0.000 NA
ATOM     11  C   UNL     1       7.032   4.699  17.958  0.00  0.00    +0.000 C 
ATOM     12  C   UNL     1       7.625   5.704  18.946  0.00  0.00    +0.000 C 
ATOM     13  C   UNL     1       7.981   7.013  18.255  0.00  0.00    +0.000 C 
ATOM     14  C   UNL     1       6.784   7.545  17.474  0.00  0.00    +0.000 C 
ATOM     15  C   UNL     1       6.214   6.482  16.536  0.00  0.00    +0.000 C 
ENDBRANCH   9  10
ENDBRANCH   1   9
TORSDOF 4
ENDMDL
MODEL 7
REMARK VINA RESULT:      -5.9      1.037      5.696
REMARK  Name = 
REMARK  4 active torsions:
REMARK  status: ('A' for Active; 'I' for Inactive)
REMARK    1  A    between atoms: N_4  and  C_5
REMARK    2  A    between atoms: C_5  and  C_6
REMARK    3  A    between atoms: C_6  and  C_7
REMARK    4  A    between atoms: C_7  and  N_8
REMARK                            x       y       z     vdW  Elec       q    Type
REMARK                         _______ _______ _______ _____ _____    ______ ____
ROOT
ATOM      1  C   UNL     1       3.857   4.636  17.080  0.00  0.00    +0.000 C 
ENDROOT
BRANCH   1   2
ATOM      2  C   UNL     1       5.179   4.042  16.571  0.00  0.00    +0.000 C 
BRANCH   2   6
ATOM      3  C   UNL     1       7.788   6.916  18.457  0.00  0.00    +0.000 C 
ATOM      4  C   UNL     1       7.445   7.044  16.979  0.00  0.00    +0.000 C 
ATOM      5  C   UNL     1       6.203   6.228  16.623  0.00  0.00    +0.000 C 
ATOM      6  N   UNL     1       6.363   4.812  17.006  0.00  0.00    +0.000 NA
ATOM      7  C   UNL     1       6.623   4.688  18.446  0.00  0.00    +0.000 C 
ATOM      8  C   UNL     1       7.878   5.453  18.855  0.00  0.00    +0.000 C 
ENDBRANCH   2   6
ENDBRANCH   1   2
BRANCH   1   9
ATOM      9  C   UNL     1       2.781   3.575  17.342  0.00  0.00    +0.000 C 
BRANCH   9  10
ATOM     10  N   UNL     1       2.147   3.659  18.664  0.00  0.00    +0.000 NA
ATOM     11  C   UNL     1       2.234   2.389  19.399  0.00  0.00    +0.000 C 
ATOM     12  C   UNL     1       1.505   2.481  20.739  0.00  0.00    +0.000 C 
ATOM     13  C   UNL     1       2.044   3.627  21.584  0.00  0.00    +0.000 C 
ATOM     14  C   UNL     1       2.036   4.926  20.785  0.00  0.00    +0.000 C 
ATOM     15  C   UNL     1       2.744   4.757  19.441  0.00  0.00    +0.000 C 
ENDBRANCH   9  10
ENDBRANCH   1   9
TORSDOF 4
ENDMDL
MODEL 8
REMARK VINA RESULT:      -5.9      1.249      1.528
REMARK  Name = 
REMARK  4 active torsions:
REMARK  status: ('A' for Active; 'I' for Inactive)
REMARK    1  A    between atoms: N_4  and  C_5
REMARK    2  A    between atoms: C_5  and  C_6
REMARK    3  A    between atoms: C_6  and  C_7
REMARK    4  A    between atoms: C_7  and  N_8
REMARK                            x       y       z     vdW  Elec       q    Type
REMARK                         _______ _______ _______ _____ _____    ______ ____
ROOT
ATOM      1  C   UNL     1       4.210   3.747  16.964  0.00  0.00    +0.000 C 
ENDROOT
BRANCH   1   2
ATOM      2  C   UNL     1       3.297   4.883  17.451  0.00  0.00    +0.000 C 
BRANCH   2   6
ATOM      3  C   UNL     1       0.943   2.944  20.504  0.00  0.00    +0.000 C 
ATOM      4  C   UNL     1       0.964   2.393  19.085  0.00  0.00    +0.000 C 
ATOM      5  C   UNL     1       2.159   2.929  18.297  0.00  0.00    +0.000 C 
ATOM      6  N   UNL     1       2.179   4.405  18.290  0.00  0.00    +0.000 NA
ATOM      7  C   UNL     1       2.231   4.931  19.659  0.00  0.00    +0.000 C 
ATOM      8  C   UNL     1       1.038   4.459  20.485  0.00  0.00    +0.000 C 
ENDBRANCH   2   6
ENDBRANCH   1   2
BRANCH   1   9
ATOM      9  C   UNL     1       5.610   4.228  16.565  0.00  0.00    +0.000 C 
BRANCH   9  10
ATOM     10  N   UNL     1       6.163   5.284  17.423  0.00  0.00    +0.000 NA
ATOM     11  C   UNL     1       7.190   4.768  18.340  0.00  0.00    +0.000 C 
ATOM     12  C   UNL     1       7.697   5.871  19.269  0.00  0.00    +0.000 C 
ATOM     13  C   UNL     1       8.232   7.057  18.479  0.00  0.00    +0.000 C 
ATOM     14  C   UNL     1       7.196   7.531  17.466  0.00  0.00    +0.000 C 
ATOM     15  C   UNL     1       6.700   6.376  16.595  0.00  0.00    +0.000 C 
ENDBRANCH   9  10
ENDBRANCH   1   9
TORSDOF 4
ENDMDL
MODEL 9
REMARK VINA RESULT:      -5.8      0.953      1.903
REMARK  Name = 
REMARK  4 active torsions:
REMARK  status: ('A' for Active; 'I' for Inactive)
REMARK    1  A    between atoms: N_4  and  C_5
REMARK    2  A    between atoms: C_5  and  C_6
REMARK    3  A    between atoms: C_6  and  C_7
REMARK    4  A    between atoms: C_7  and  N_8
REMARK                            x       y       z     vdW  Elec       q    Type
REMARK                         _______ _______ _______ _____ _____    ______ ____
ROOT
ATOM      1  C   UNL     1       4.394   3.649  16.757  0.00  0.00    +0.000 C 
ENDROOT
BRANCH   1   2
ATOM      2  C   UNL     1       3.002   3.466  17.381  0.00  0.00    +0.000 C 
BRANCH   2   6
ATOM      3  C   UNL     1       1.815   3.691  21.524  0.00  0.00    +0.000 C 
ATOM      4  C   UNL     1       2.074   4.963  20.730  0.00  0.00    +0.000 C 
ATOM      5  C   UNL     1       2.045   4.696  19.225  0.00  0.00    +0.000 C 
ATOM      6  N   UNL     1       3.001   3.636  18.849  0.00  0.00    +0.000 NA
ATOM      7  C   UNL     1       2.703   2.389  19.564  0.00  0.00    +0.000 C 
ATOM      8  C   UNL     1       2.756   2.586  21.076  0.00  0.00    +0.000 C 
ENDBRANCH   2   6
ENDBRANCH   1   2
BRANCH   1   9
ATOM      9  C   UNL     1       4.735   5.116  16.465  0.00  0.00    +0.000 C 
BRANCH   9  10
ATOM     10  N   UNL     1       6.070   5.535  16.909  0.00  0.00    +0.000 NA
ATOM     11  C   UNL     1       6.153   6.988  17.113  0.00  0.00    +0.000 C 
ATOM     12  C   UNL     1       7.571   7.406  17.504  0.00  0.00    +0.000 C 
ATOM     13  C   UNL     1       8.042   6.663  18.747  0.00  0.00    +0.000 C 
ATOM     14  C   UNL     1       7.869   5.159  18.565  0.00  0.00    +0.000 C 
ATOM     15  C   UNL     1       6.444   4.810  18.135  0.00  0.00    +0.000 C 
ENDBRANCH   9  10
ENDBRANCH   1   9
TORSDOF 4
ENDMDL
