MODEL 1
REMARK VINA RESULT:      -7.9      0.000      0.000
REMARK  Name = 
REMARK  9 active torsions:
REMARK  status: ('A' for Active; 'I' for Inactive)
REMARK    1  A    between atoms: C_1  and  N_2
REMARK    2  A    between atoms: N_2  and  C_9
REMARK    3  A    between atoms: C_3  and  C_5
REMARK    4  A    between atoms: C_5  and  C_6
REMARK    5  A    between atoms: C_5  and  C_7
REMARK    6  A    between atoms: C_5  and  C_8
REMARK    7  A    between atoms: C_12  and  O_13
REMARK    8  A    between atoms: O_13  and  C_14
REMARK    9  A    between atoms: C_14  and  C_15
REMARK                            x       y       z     vdW  Elec       q    Type
REMARK                         _______ _______ _______ _____ _____    ______ ____
ROOT
ATOM      1  C   UNL     1       3.352   6.238  18.955  0.00  0.00    +0.000 A 
ATOM      2  C   UNL     1       2.586   6.770  19.993  0.00  0.00    +0.000 A 
ATOM      3  C   UNL     1       1.815   7.904  19.777  0.00  0.00    +0.000 A 
ATOM      4  C   UNL     1       1.852   8.549  18.543  0.00  0.00    +0.000 A 
ATOM      5  C   UNL     1       2.726   8.092  17.538  0.00  0.00    +0.000 A 
ATOM      6  C   UNL     1       3.494   6.946  17.751  0.00  0.00    +0.000 A 
ENDROOT
BRANCH   1   8
ATOM      7  C   UNL     1       5.469   5.164  19.382  0.00  0.00    +0.000 C 
ATOM      8  N   UNL     1       4.032   5.029  19.133  0.00  0.00    +0.000 N 
ATOM      9  C   UNL     1       3.440   3.758  19.131  0.00  0.00    +0.000 C 
ATOM     10  O   UNL     1       4.158   2.762  19.303  0.00  0.00    +0.000 OA
BRANCH   9  11
ATOM     11  C   UNL     1       1.899   3.558  18.918  0.00  0.00    +0.000 C 
ATOM     12  C   UNL     1       1.368   4.228  17.641  0.00  0.00    +0.000 C 
ATOM     13  C   UNL     1       1.640   2.036  18.745  0.00  0.00    +0.000 C 
ATOM     14  C   UNL     1       1.061   3.982  20.132  0.00  0.00    +0.000 C 
ENDBRANCH   9  11
ENDBRANCH   1   8
BRANCH   4  15
ATOM     15  O   UNL     1       0.966   9.596  18.430  0.00  0.00    +0.000 OA
BRANCH  15  16
ATOM     16  C   UNL     1       1.098  10.503  19.483  0.00  0.00    +0.000 C 
BRANCH  16  17
ATOM     17  C   UNL     1      -0.079  10.961  20.324  0.00  0.00    +0.000 C 
ATOM     18  O   UNL     1       0.173  11.020  21.542  0.00  0.00    +0.000 OA
ATOM     19  N   UNL     1      -1.287  11.460  19.841  0.00  0.00    +0.000 N 
ATOM     20  C   UNL     1      -2.009  12.111  20.922  0.00  0.00    +0.000 C 
ATOM     21  C   UNL     1      -3.075  13.086  20.524  0.00  0.00    +0.000 C 
ATOM     22  C   UNL     1      -4.016  12.480  19.547  0.00  0.00    +0.000 A 
ATOM     23  C   UNL     1      -5.347  12.938  19.589  0.00  0.00    +0.000 A 
ATOM     24  C   UNL     1      -6.291  12.414  18.733  0.00  0.00    +0.000 A 
ATOM     25  C   UNL     1      -5.890  11.465  17.797  0.00  0.00    +0.000 A 
ATOM     26  C   UNL     1      -4.537  11.036  17.724  0.00  0.00    +0.000 A 
ATOM     27  C   UNL     1      -3.563  11.526  18.619  0.00  0.00    +0.000 A 
ATOM     28  C   UNL     1      -2.064  11.118  18.592  0.00  0.00    +0.000 C 
ENDBRANCH  16  17
ENDBRANCH  15  16
ENDBRANCH   4  15
TORSDOF 5
ENDMDL
MODEL 2
REMARK VINA RESULT:      -7.8      2.573      9.362
REMARK  Name = 
REMARK  9 active torsions:
REMARK  status: ('A' for Active; 'I' for Inactive)
REMARK    1  A    between atoms: C_1  and  N_2
REMARK    2  A    between atoms: N_2  and  C_9
REMARK    3  A    between atoms: C_3  and  C_5
REMARK    4  A    between atoms: C_5  and  C_6
REMARK    5  A    between atoms: C_5  and  C_7
REMARK    6  A    between atoms: C_5  and  C_8
REMARK    7  A    between atoms: C_12  and  O_13
REMARK    8  A    between atoms: O_13  and  C_14
REMARK    9  A    between atoms: C_14  and  C_15
REMARK                            x       y       z     vdW  Elec       q    Type
REMARK                         _______ _______ _______ _____ _____    ______ ____
ROOT
ATOM      1  C   UNL     1       0.023  10.799  19.254  0.00  0.00    +0.000 A 
ATOM      2  C   UNL     1      -0.253  10.385  20.558  0.00  0.00    +0.000 A 
ATOM      3  C   UNL     1       0.410   9.290  21.095  0.00  0.00    +0.000 A 
ATOM      4  C   UNL     1       1.305   8.564  20.313  0.00  0.00    +0.000 A 
ATOM      5  C   UNL     1       1.485   8.898  18.957  0.00  0.00    +0.000 A 
ATOM      6  C   UNL     1       0.826  10.006  18.420  0.00  0.00    +0.000 A 
ENDROOT
BRANCH   1   8
ATOM      7  C   UNL     1      -1.947  11.841  18.334  0.00  0.00    +0.000 C 
ATOM      8  N   UNL     1      -0.551  11.972  18.754  0.00  0.00    +0.000 N 
ATOM      9  C   UNL     1       0.089  13.217  18.673  0.00  0.00    +0.000 C 
ATOM     10  O   UNL     1      -0.534  14.183  18.209  0.00  0.00    +0.000 OA
BRANCH   9  11
ATOM     11  C   UNL     1       1.568  13.425  19.153  0.00  0.00    +0.000 C 
ATOM     12  C   UNL     1       2.604  12.738  18.250  0.00  0.00    +0.000 C 
ATOM     13  C   UNL     1       1.877  14.945  19.082  0.00  0.00    +0.000 C 
ATOM     14  C   UNL     1       1.790  13.028  20.618  0.00  0.00    +0.000 C 
ENDBRANCH   9  11
ENDBRANCH   1   8
BRANCH   4  15
ATOM     15  O   UNL     1       1.967   7.569  20.995  0.00  0.00    +0.000 OA
BRANCH  15  16
ATOM     16  C   UNL     1       1.490   6.302  20.657  0.00  0.00    +0.000 C 
BRANCH  16  17
ATOM     17  C   UNL     1       2.406   5.160  20.255  0.00  0.00    +0.000 C 
ATOM     18  O   UNL     1       2.484   4.260  21.112  0.00  0.00    +0.000 OA
ATOM     19  N   UNL     1       2.985   4.976  19.001  0.00  0.00    +0.000 N 
ATOM     20  C   UNL     1       3.492   3.617  18.897  0.00  0.00    +0.000 C 
ATOM     21  C   UNL     1       3.722   3.093  17.512  0.00  0.00    +0.000 C 
ATOM     22  C   UNL     1       4.554   4.032  16.716  0.00  0.00    +0.000 A 
ATOM     23  C   UNL     1       5.388   3.459  15.738  0.00  0.00    +0.000 A 
ATOM     24  C   UNL     1       6.209   4.255  14.969  0.00  0.00    +0.000 A 
ATOM     25  C   UNL     1       6.156   5.635  15.145  0.00  0.00    +0.000 A 
ATOM     26  C   UNL     1       5.281   6.217  16.102  0.00  0.00    +0.000 A 
ATOM     27  C   UNL     1       4.465   5.419  16.930  0.00  0.00    +0.000 A 
ATOM     28  C   UNL     1       3.472   5.981  17.985  0.00  0.00    +0.000 C 
ENDBRANCH  16  17
ENDBRANCH  15  16
ENDBRANCH   4  15
TORSDOF 5
ENDMDL
MODEL 3
REMARK VINA RESULT:      -7.8      5.521      8.859
REMARK  Name = 
REMARK  9 active torsions:
REMARK  status: ('A' for Active; 'I' for Inactive)
REMARK    1  A    between atoms: C_1  and  N_2
REMARK    2  A    between atoms: N_2  and  C_9
REMARK    3  A    between atoms: C_3  and  C_5
REMARK    4  A    between atoms: C_5  and  C_6
REMARK    5  A    between atoms: C_5  and  C_7
REMARK    6  A    between atoms: C_5  and  C_8
REMARK    7  A    between atoms: C_12  and  O_13
REMARK    8  A    between atoms: O_13  and  C_14
REMARK    9  A    between atoms: C_14  and  C_15
REMARK                            x       y       z     vdW  Elec       q    Type
REMARK                         _______ _______ _______ _____ _____    ______ ____
ROOT
ATOM      1  C   UNL     1       3.747   5.758  18.902  0.00  0.00    +0.000 A 
ATOM      2  C   UNL     1       4.958   5.235  19.359  0.00  0.00    +0.000 A 
ATOM      3  C   UNL     1       6.144   5.566  18.719  0.00  0.00    +0.000 A 
ATOM      4  C   UNL     1       6.122   6.369  17.581  0.00  0.00    +0.000 A 
ATOM      5  C   UNL     1       4.892   6.787  17.040  0.00  0.00    +0.000 A 
ATOM      6  C   UNL     1       3.699   6.463  17.690  0.00  0.00    +0.000 A 
ENDROOT
BRANCH   1   8
ATOM      7  C   UNL     1       2.074   6.675  20.377  0.00  0.00    +0.000 C 
ATOM      8  N   UNL     1       2.568   5.526  19.617  0.00  0.00    +0.000 N 
ATOM      9  C   UNL     1       1.842   4.326  19.615  0.00  0.00    +0.000 C 
ATOM     10  O   UNL     1       0.806   4.251  20.293  0.00  0.00    +0.000 OA
BRANCH   9  11
ATOM     11  C   UNL     1       2.297   3.079  18.780  0.00  0.00    +0.000 C 
ATOM     12  C   UNL     1       3.502   2.346  19.389  0.00  0.00    +0.000 C 
ATOM     13  C   UNL     1       1.127   2.057  18.782  0.00  0.00    +0.000 C 
ATOM     14  C   UNL     1       2.558   3.402  17.303  0.00  0.00    +0.000 C 
ENDBRANCH   9  11
ENDBRANCH   1   8
BRANCH   4  15
ATOM     15  O   UNL     1       7.370   6.703  17.106  0.00  0.00    +0.000 OA
BRANCH  15  16
ATOM     16  C   UNL     1       7.576   8.084  17.118  0.00  0.00    +0.000 C 
BRANCH  16  17
ATOM     17  C   UNL     1       8.343   8.790  18.220  0.00  0.00    +0.000 C 
ATOM     18  O   UNL     1       8.718   8.029  19.132  0.00  0.00    +0.000 OA
ATOM     19  N   UNL     1       8.782  10.112  18.197  0.00  0.00    +0.000 N 
ATOM     20  C   UNL     1       9.765  10.315  19.250  0.00  0.00    +0.000 C 
ATOM     21  C   UNL     1      10.672  11.498  19.100  0.00  0.00    +0.000 C 
ATOM     22  C   UNL     1       9.896  12.740  18.853  0.00  0.00    +0.000 A 
ATOM     23  C   UNL     1      10.452  13.937  19.342  0.00  0.00    +0.000 A 
ATOM     24  C   UNL     1       9.788  15.133  19.176  0.00  0.00    +0.000 A 
ATOM     25  C   UNL     1       8.587  15.137  18.472  0.00  0.00    +0.000 A 
ATOM     26  C   UNL     1       8.047  13.935  17.939  0.00  0.00    +0.000 A 
ATOM     27  C   UNL     1       8.688  12.694  18.135  0.00  0.00    +0.000 A 
ATOM     28  C   UNL     1       8.170  11.342  17.570  0.00  0.00    +0.000 C 
ENDBRANCH  16  17
ENDBRANCH  15  16
ENDBRANCH   4  15
TORSDOF 5
ENDMDL
MODEL 4
REMARK VINA RESULT:      -7.7      0.821      1.248
REMARK  Name = 
REMARK  9 active torsions:
REMARK  status: ('A' for Active; 'I' for Inactive)
REMARK    1  A    between atoms: C_1  and  N_2
REMARK    2  A    between atoms: N_2  and  C_9
REMARK    3  A    between atoms: C_3  and  C_5
REMARK    4  A    between atoms: C_5  and  C_6
REMARK    5  A    between atoms: C_5  and  C_7
REMARK    6  A    between atoms: C_5  and  C_8
REMARK    7  A    between atoms: C_12  and  O_13
REMARK    8  A    between atoms: O_13  and  C_14
REMARK    9  A    between atoms: C_14  and  C_15
REMARK                            x       y       z     vdW  Elec       q    Type
REMARK                         _______ _______ _______ _____ _____    ______ ____
ROOT
ATOM      1  C   UNL     1       3.751   6.021  18.719  0.00  0.00    +0.000 A 
ATOM      2  C   UNL     1       3.841   6.537  17.425  0.00  0.00    +0.000 A 
ATOM      3  C   UNL     1       3.118   7.670  17.077  0.00  0.00    +0.000 A 
ATOM      4  C   UNL     1       2.253   8.256  17.997  0.00  0.00    +0.000 A 
ATOM      5  C   UNL     1       2.058   7.659  19.257  0.00  0.00    +0.000 A 
ATOM      6  C   UNL     1       2.793   6.526  19.612  0.00  0.00    +0.000 A 
ENDROOT
BRANCH   1   8
ATOM      7  C   UNL     1       5.939   5.333  19.462  0.00  0.00    +0.000 C 
ATOM      8  N   UNL     1       4.570   4.956  19.109  0.00  0.00    +0.000 N 
ATOM      9  C   UNL     1       4.163   3.619  19.216  0.00  0.00    +0.000 C 
ATOM     10  O   UNL     1       4.990   2.768  19.576  0.00  0.00    +0.000 OA
BRANCH   9  11
ATOM     11  C   UNL     1       2.695   3.166  18.897  0.00  0.00    +0.000 C 
ATOM     12  C   UNL     1       2.152   3.745  17.582  0.00  0.00    +0.000 C 
ATOM     13  C   UNL     1       2.706   1.624  18.717  0.00  0.00    +0.000 C 
ATOM     14  C   UNL     1       1.716   3.439  20.047  0.00  0.00    +0.000 C 
ENDBRANCH   9  11
ENDBRANCH   1   8
BRANCH   4  15
ATOM     15  O   UNL     1       1.677   9.426  17.559  0.00  0.00    +0.000 OA
BRANCH  15  16
ATOM     16  C   UNL     1       1.800  10.449  18.502  0.00  0.00    +0.000 C 
BRANCH  16  17
ATOM     17  C   UNL     1       0.714  10.770  19.512  0.00  0.00    +0.000 C 
ATOM     18  O   UNL     1       1.110  10.748  20.693  0.00  0.00    +0.000 OA
ATOM     19  N   UNL     1      -0.567  11.231  19.220  0.00  0.00    +0.000 N 
ATOM     20  C   UNL     1      -1.183  11.752  20.430  0.00  0.00    +0.000 C 
ATOM     21  C   UNL     1      -2.336  12.690  20.245  0.00  0.00    +0.000 C 
ATOM     22  C   UNL     1      -3.359  12.107  19.339  0.00  0.00    +0.000 A 
ATOM     23  C   UNL     1      -4.696  12.480  19.577  0.00  0.00    +0.000 A 
ATOM     24  C   UNL     1      -5.711  11.970  18.798  0.00  0.00    +0.000 A 
ATOM     25  C   UNL     1      -5.381  11.122  17.744  0.00  0.00    +0.000 A 
ATOM     26  C   UNL     1      -4.028  10.781  17.475  0.00  0.00    +0.000 A 
ATOM     27  C   UNL     1      -2.977  11.257  18.287  0.00  0.00    +0.000 A 
ATOM     28  C   UNL     1      -1.474  10.942  18.047  0.00  0.00    +0.000 C 
ENDBRANCH  16  17
ENDBRANCH  15  16
ENDBRANCH   4  15
TORSDOF 5
ENDMDL
MODEL 5
REMARK VINA RESULT:      -7.6      2.879      3.773
REMARK  Name = 
REMARK  9 active torsions:
REMARK  status: ('A' for Active; 'I' for Inactive)
REMARK    1  A    between atoms: C_1  and  N_2
REMARK    2  A    between atoms: N_2  and  C_9
REMARK    3  A    between atoms: C_3  and  C_5
REMARK    4  A    between atoms: C_5  and  C_6
REMARK    5  A    between atoms: C_5  and  C_7
REMARK    6  A    between atoms: C_5  and  C_8
REMARK    7  A    between atoms: C_12  and  O_13
REMARK    8  A    between atoms: O_13  and  C_14
REMARK    9  A    between atoms: C_14  and  C_15
REMARK                            x       y       z     vdW  Elec       q    Type
REMARK                         _______ _______ _______ _____ _____    ______ ____
ROOT
ATOM      1  C   UNL     1       3.285   6.282  18.980  0.00  0.00    +0.000 A 
ATOM      2  C   UNL     1       2.516   6.793  20.027  0.00  0.00    +0.000 A 
ATOM      3  C   UNL     1       1.747   7.933  19.833  0.00  0.00    +0.000 A 
ATOM      4  C   UNL     1       1.790   8.604  18.614  0.00  0.00    +0.000 A 
ATOM      5  C   UNL     1       2.666   8.168  17.602  0.00  0.00    +0.000 A 
ATOM      6  C   UNL     1       3.432   7.016  17.793  0.00  0.00    +0.000 A 
ENDROOT
BRANCH   1   8
ATOM      7  C   UNL     1       5.398   5.196  19.394  0.00  0.00    +0.000 C 
ATOM      8  N   UNL     1       3.963   5.069  19.135  0.00  0.00    +0.000 N 
ATOM      9  C   UNL     1       3.369   3.799  19.100  0.00  0.00    +0.000 C 
ATOM     10  O   UNL     1       4.085   2.798  19.254  0.00  0.00    +0.000 OA
BRANCH   9  11
ATOM     11  C   UNL     1       1.829   3.606  18.875  0.00  0.00    +0.000 C 
ATOM     12  C   UNL     1       1.299   4.337  17.632  0.00  0.00    +0.000 C 
ATOM     13  C   UNL     1       1.575   2.094  18.627  0.00  0.00    +0.000 C 
ATOM     14  C   UNL     1       0.988   3.967  20.107  0.00  0.00    +0.000 C 
ENDBRANCH   9  11
ENDBRANCH   1   8
BRANCH   4  15
ATOM     15  O   UNL     1       0.906   9.654  18.520  0.00  0.00    +0.000 OA
BRANCH  15  16
ATOM     16  C   UNL     1       0.399  10.018  19.769  0.00  0.00    +0.000 C 
BRANCH  16  17
ATOM     17  C   UNL     1       0.921  11.209  20.552  0.00  0.00    +0.000 C 
ATOM     18  O   UNL     1       1.343  10.913  21.685  0.00  0.00    +0.000 OA
ATOM     19  N   UNL     1       1.113  12.496  20.055  0.00  0.00    +0.000 N 
ATOM     20  C   UNL     1       1.942  13.253  20.980  0.00  0.00    +0.000 C 
ATOM     21  C   UNL     1       2.630  14.464  20.426  0.00  0.00    +0.000 C 
ATOM     22  C   UNL     1       1.667  15.353  19.727  0.00  0.00    +0.000 A 
ATOM     23  C   UNL     1       1.949  16.732  19.756  0.00  0.00    +0.000 A 
ATOM     24  C   UNL     1       1.098  17.631  19.151  0.00  0.00    +0.000 A 
ATOM     25  C   UNL     1      -0.015  17.142  18.472  0.00  0.00    +0.000 A 
ATOM     26  C   UNL     1      -0.276  15.747  18.404  0.00  0.00    +0.000 A 
ATOM     27  C   UNL     1       0.558  14.813  19.053  0.00  0.00    +0.000 A 
ATOM     28  C   UNL     1       0.348  13.273  19.011  0.00  0.00    +0.000 C 
ENDBRANCH  16  17
ENDBRANCH  15  16
ENDBRANCH   4  15
TORSDOF 5
ENDMDL
MODEL 6
REMARK VINA RESULT:      -7.6      6.925     10.954
REMARK  Name = 
REMARK  9 active torsions:
REMARK  status: ('A' for Active; 'I' for Inactive)
REMARK    1  A    between atoms: C_1  and  N_2
REMARK    2  A    between atoms: N_2  and  C_9
REMARK    3  A    between atoms: C_3  and  C_5
REMARK    4  A    between atoms: C_5  and  C_6
REMARK    5  A    between atoms: C_5  and  C_7
REMARK    6  A    between atoms: C_5  and  C_8
REMARK    7  A    between atoms: C_12  and  O_13
REMARK    8  A    between atoms: O_13  and  C_14
REMARK    9  A    between atoms: C_14  and  C_15
REMARK                            x       y       z     vdW  Elec       q    Type
REMARK                         _______ _______ _______ _____ _____    ______ ____
ROOT
ATOM      1  C   UNL     1       9.970  12.903  18.282  0.00  0.00    +0.000 A 
ATOM      2  C   UNL     1      10.592  11.945  19.085  0.00  0.00    +0.000 A 
ATOM      3  C   UNL     1      10.097  10.649  19.130  0.00  0.00    +0.000 A 
ATOM      4  C   UNL     1       8.942  10.318  18.426  0.00  0.00    +0.000 A 
ATOM      5  C   UNL     1       8.237  11.314  17.724  0.00  0.00    +0.000 A 
ATOM      6  C   UNL     1       8.741  12.615  17.670  0.00  0.00    +0.000 A 
ENDROOT
BRANCH   1   8
ATOM      7  C   UNL     1      11.448  14.313  17.001  0.00  0.00    +0.000 C 
ATOM      8  N   UNL     1      10.537  14.173  18.139  0.00  0.00    +0.000 N 
ATOM      9  C   UNL     1      10.264  15.279  18.956  0.00  0.00    +0.000 C 
ATOM     10  O   UNL     1      10.834  16.354  18.719  0.00  0.00    +0.000 OA
BRANCH   9  11
ATOM     11  C   UNL     1       9.260  15.199  20.158  0.00  0.00    +0.000 C 
ATOM     12  C   UNL     1       9.642  14.137  21.201  0.00  0.00    +0.000 C 
ATOM     13  C   UNL     1       9.300  16.563  20.898  0.00  0.00    +0.000 C 
ATOM     14  C   UNL     1       7.802  15.014  19.716  0.00  0.00    +0.000 C 
ENDBRANCH   9  11
ENDBRANCH   1   8
BRANCH   4  15
ATOM     15  O   UNL     1       8.619   8.981  18.475  0.00  0.00    +0.000 OA
BRANCH  15  16
ATOM     16  C   UNL     1       7.470   8.697  17.734  0.00  0.00    +0.000 C 
BRANCH  16  17
ATOM     17  C   UNL     1       7.188   7.325  17.150  0.00  0.00    +0.000 C 
ATOM     18  O   UNL     1       8.081   6.917  16.384  0.00  0.00    +0.000 OA
ATOM     19  N   UNL     1       6.154   6.471  17.527  0.00  0.00    +0.000 N 
ATOM     20  C   UNL     1       6.416   5.137  17.011  0.00  0.00    +0.000 C 
ATOM     21  C   UNL     1       5.691   4.007  17.676  0.00  0.00    +0.000 C 
ATOM     22  C   UNL     1       4.231   4.273  17.742  0.00  0.00    +0.000 A 
ATOM     23  C   UNL     1       3.384   3.150  17.688  0.00  0.00    +0.000 A 
ATOM     24  C   UNL     1       2.015   3.306  17.721  0.00  0.00    +0.000 A 
ATOM     25  C   UNL     1       1.494   4.590  17.859  0.00  0.00    +0.000 A 
ATOM     26  C   UNL     1       2.350   5.720  17.959  0.00  0.00    +0.000 A 
ATOM     27  C   UNL     1       3.752   5.587  17.883  0.00  0.00    +0.000 A 
ATOM     28  C   UNL     1       4.752   6.771  18.000  0.00  0.00    +0.000 C 
ENDBRANCH  16  17
ENDBRANCH  15  16
ENDBRANCH   4  15
TORSDOF 5
ENDMDL
MODEL 7
REMARK VINA RESULT:      -7.5      2.347      2.665
REMARK  Name = 
REMARK  9 active torsions:
REMARK  status: ('A' for Active; 'I' for Inactive)
REMARK    1  A    between atoms: C_1  and  N_2
REMARK    2  A    between atoms: N_2  and  C_9
REMARK    3  A    between atoms: C_3  and  C_5
REMARK    4  A    between atoms: C_5  and  C_6
REMARK    5  A    between atoms: C_5  and  C_7
REMARK    6  A    between atoms: C_5  and  C_8
REMARK    7  A    between atoms: C_12  and  O_13
REMARK    8  A    between atoms: O_13  and  C_14
REMARK    9  A    between atoms: C_14  and  C_15
REMARK                            x       y       z     vdW  Elec       q    Type
REMARK                         _______ _______ _______ _____ _____    ______ ____
ROOT
ATOM      1  C   UNL     1       3.665   5.852  18.688  0.00  0.00    +0.000 A 
ATOM      2  C   UNL     1       2.821   6.571  19.535  0.00  0.00    +0.000 A 
ATOM      3  C   UNL     1       2.267   7.771  19.109  0.00  0.00    +0.000 A 
ATOM      4  C   UNL     1       2.603   8.291  17.862  0.00  0.00    +0.000 A 
ATOM      5  C   UNL     1       3.558   7.635  17.061  0.00  0.00    +0.000 A 
ATOM      6  C   UNL     1       4.107   6.423  17.485  0.00  0.00    +0.000 A 
ENDROOT
BRANCH   1   8
ATOM      7  C   UNL     1       5.558   4.516  19.357  0.00  0.00    +0.000 C 
ATOM      8  N   UNL     1       4.125   4.586  19.065  0.00  0.00    +0.000 N 
ATOM      9  C   UNL     1       3.325   3.444  19.215  0.00  0.00    +0.000 C 
ATOM     10  O   UNL     1       3.859   2.379  19.558  0.00  0.00    +0.000 OA
BRANCH   9  11
ATOM     11  C   UNL     1       1.777   3.474  18.963  0.00  0.00    +0.000 C 
ATOM     12  C   UNL     1       1.387   4.177  17.654  0.00  0.00    +0.000 C 
ATOM     13  C   UNL     1       1.294   2.004  18.822  0.00  0.00    +0.000 C 
ATOM     14  C   UNL     1       0.984   4.056  20.140  0.00  0.00    +0.000 C 
ENDBRANCH   9  11
ENDBRANCH   1   8
BRANCH   4  15
ATOM     15  O   UNL     1       1.908   9.429  17.523  0.00  0.00    +0.000 OA
BRANCH  15  16
ATOM     16  C   UNL     1       1.064   9.848  18.553  0.00  0.00    +0.000 C 
BRANCH  16  17
ATOM     17  C   UNL     1       0.999  11.289  19.027  0.00  0.00    +0.000 C 
ATOM     18  O   UNL     1       1.907  12.005  18.564  0.00  0.00    +0.000 OA
ATOM     19  N   UNL     1      -0.040  11.867  19.751  0.00  0.00    +0.000 N 
ATOM     20  C   UNL     1       0.089  13.316  19.710  0.00  0.00    +0.000 C 
ATOM     21  C   UNL     1      -1.145  14.106  20.021  0.00  0.00    +0.000 C 
ATOM     22  C   UNL     1      -1.756  13.664  21.301  0.00  0.00    +0.000 A 
ATOM     23  C   UNL     1      -2.436  14.647  22.045  0.00  0.00    +0.000 A 
ATOM     24  C   UNL     1      -3.013  14.329  23.256  0.00  0.00    +0.000 A 
ATOM     25  C   UNL     1      -2.954  13.010  23.697  0.00  0.00    +0.000 A 
ATOM     26  C   UNL     1      -2.306  12.008  22.924  0.00  0.00    +0.000 A 
ATOM     27  C   UNL     1      -1.671  12.320  21.704  0.00  0.00    +0.000 A 
ATOM     28  C   UNL     1      -0.958  11.279  20.796  0.00  0.00    +0.000 C 
ENDBRANCH  16  17
ENDBRANCH  15  16
ENDBRANCH   4  15
TORSDOF 5
ENDMDL
MODEL 8
REMARK VINA RESULT:      -7.4      2.298      3.023
REMARK  Name = 
REMARK  9 active torsions:
REMARK  status: ('A' for Active; 'I' for Inactive)
REMARK    1  A    between atoms: C_1  and  N_2
REMARK    2  A    between atoms: N_2  and  C_9
REMARK    3  A    between atoms: C_3  and  C_5
REMARK    4  A    between atoms: C_5  and  C_6
REMARK    5  A    between atoms: C_5  and  C_7
REMARK    6  A    between atoms: C_5  and  C_8
REMARK    7  A    between atoms: C_12  and  O_13
REMARK    8  A    between atoms: O_13  and  C_14
REMARK    9  A    between atoms: C_14  and  C_15
REMARK                            x       y       z     vdW  Elec       q    Type
REMARK                         _______ _______ _______ _____ _____    ______ ____
ROOT
ATOM      1  C   UNL     1       3.109   6.309  19.126  0.00  0.00    +0.000 A 
ATOM      2  C   UNL     1       3.014   7.056  17.951  0.00  0.00    +0.000 A 
ATOM      3  C   UNL     1       2.353   8.277  17.954  0.00  0.00    +0.000 A 
ATOM      4  C   UNL     1       1.729   8.729  19.114  0.00  0.00    +0.000 A 
ATOM      5  C   UNL     1       1.709   7.916  20.263  0.00  0.00    +0.000 A 
ATOM      6  C   UNL     1       2.382   6.693  20.263  0.00  0.00    +0.000 A 
ENDROOT
BRANCH   1   8
ATOM      7  C   UNL     1       5.310   5.354  19.372  0.00  0.00    +0.000 C 
ATOM      8  N   UNL     1       3.878   5.141  19.155  0.00  0.00    +0.000 N 
ATOM      9  C   UNL     1       3.376   3.838  19.037  0.00  0.00    +0.000 C 
ATOM     10  O   UNL     1       4.167   2.884  19.081  0.00  0.00    +0.000 OA
BRANCH   9  11
ATOM     11  C   UNL     1       1.845   3.549  18.852  0.00  0.00    +0.000 C 
ATOM     12  C   UNL     1       1.241   4.237  17.619  0.00  0.00    +0.000 C 
ATOM     13  C   UNL     1       1.679   2.022  18.618  0.00  0.00    +0.000 C 
ATOM     14  C   UNL     1       1.015   3.866  20.103  0.00  0.00    +0.000 C 
ENDBRANCH   9  11
ENDBRANCH   1   8
BRANCH   4  15
ATOM     15  O   UNL     1       1.200   9.995  19.009  0.00  0.00    +0.000 OA
BRANCH  15  16
ATOM     16  C   UNL     1       0.321  10.278  20.057  0.00  0.00    +0.000 C 
BRANCH  16  17
ATOM     17  C   UNL     1       0.473  11.496  20.950  0.00  0.00    +0.000 C 
ATOM     18  O   UNL     1       1.657  11.850  21.109  0.00  0.00    +0.000 OA
ATOM     19  N   UNL     1      -0.561  12.298  21.426  0.00  0.00    +0.000 N 
ATOM     20  C   UNL     1      -0.012  13.543  21.939  0.00  0.00    +0.000 C 
ATOM     21  C   UNL     1      -0.962  14.694  22.061  0.00  0.00    +0.000 C 
ATOM     22  C   UNL     1      -2.183  14.303  22.813  0.00  0.00    +0.000 A 
ATOM     23  C   UNL     1      -2.805  15.313  23.570  0.00  0.00    +0.000 A 
ATOM     24  C   UNL     1      -3.930  15.033  24.316  0.00  0.00    +0.000 A 
ATOM     25  C   UNL     1      -4.463  13.748  24.261  0.00  0.00    +0.000 A 
ATOM     26  C   UNL     1      -3.860  12.739  23.461  0.00  0.00    +0.000 A 
ATOM     27  C   UNL     1      -2.684  12.993  22.725  0.00  0.00    +0.000 A 
ATOM     28  C   UNL     1      -1.977  11.949  21.816  0.00  0.00    +0.000 C 
ENDBRANCH  16  17
ENDBRANCH  15  16
ENDBRANCH   4  15
TORSDOF 5
ENDMDL
MODEL 9
REMARK VINA RESULT:      -7.4      1.317      2.030
REMARK  Name = 
REMARK  9 active torsions:
REMARK  status: ('A' for Active; 'I' for Inactive)
REMARK    1  A    between atoms: C_1  and  N_2
REMARK    2  A    between atoms: N_2  and  C_9
REMARK    3  A    between atoms: C_3  and  C_5
REMARK    4  A    between atoms: C_5  and  C_6
REMARK    5  A    between atoms: C_5  and  C_7
REMARK    6  A    between atoms: C_5  and  C_8
REMARK    7  A    between atoms: C_12  and  O_13
REMARK    8  A    between atoms: O_13  and  C_14
REMARK    9  A    between atoms: C_14  and  C_15
REMARK                            x       y       z     vdW  Elec       q    Type
REMARK                         _______ _______ _______ _____ _____    ______ ____
ROOT
ATOM      1  C   UNL     1       3.229   6.268  19.084  0.00  0.00    +0.000 A 
ATOM      2  C   UNL     1       2.546   6.681  20.228  0.00  0.00    +0.000 A 
ATOM      3  C   UNL     1       1.724   7.799  20.182  0.00  0.00    +0.000 A 
ATOM      4  C   UNL     1       1.629   8.547  19.011  0.00  0.00    +0.000 A 
ATOM      5  C   UNL     1       2.420   8.211  17.896  0.00  0.00    +0.000 A 
ATOM      6  C   UNL     1       3.239   7.080  17.939  0.00  0.00    +0.000 A 
ENDROOT
BRANCH   1   8
ATOM      7  C   UNL     1       5.407   5.243  19.231  0.00  0.00    +0.000 C 
ATOM      8  N   UNL     1       3.959   5.075  19.094  0.00  0.00    +0.000 N 
ATOM      9  C   UNL     1       3.409   3.788  19.027  0.00  0.00    +0.000 C 
ATOM     10  O   UNL     1       4.169   2.809  19.048  0.00  0.00    +0.000 OA
BRANCH   9  11
ATOM     11  C   UNL     1       1.862   3.548  18.929  0.00  0.00    +0.000 C 
ATOM     12  C   UNL     1       1.083   4.099  20.133  0.00  0.00    +0.000 C 
ATOM     13  C   UNL     1       1.342   4.324  17.688  0.00  0.00    +0.000 C 
ATOM     14  C   UNL     1       1.492   2.079  18.680  0.00  0.00    +0.000 C 
ENDBRANCH   9  11
ENDBRANCH   1   8
BRANCH   4  15
ATOM     15  O   UNL     1       0.705   9.565  19.069  0.00  0.00    +0.000 OA
BRANCH  15  16
ATOM     16  C   UNL     1       1.074  10.548  19.989  0.00  0.00    +0.000 C 
BRANCH  16  17
ATOM     17  C   UNL     1       0.295  10.812  21.265  0.00  0.00    +0.000 C 
ATOM     18  O   UNL     1       0.807  10.295  22.276  0.00  0.00    +0.000 OA
ATOM     19  N   UNL     1      -0.782  11.685  21.403  0.00  0.00    +0.000 N 
ATOM     20  C   UNL     1      -1.027  11.932  22.815  0.00  0.00    +0.000 C 
ATOM     21  C   UNL     1      -1.812  13.163  23.153  0.00  0.00    +0.000 C 
ATOM     22  C   UNL     1      -3.077  13.221  22.376  0.00  0.00    +0.000 A 
ATOM     23  C   UNL     1      -4.168  13.855  22.999  0.00  0.00    +0.000 A 
ATOM     24  C   UNL     1      -5.386  13.935  22.359  0.00  0.00    +0.000 A 
ATOM     25  C   UNL     1      -5.497  13.423  21.070  0.00  0.00    +0.000 A 
ATOM     26  C   UNL     1      -4.383  12.822  20.423  0.00  0.00    +0.000 A 
ATOM     27  C   UNL     1      -3.140  12.691  21.076  0.00  0.00    +0.000 A 
ATOM     28  C   UNL     1      -1.873  12.063  20.430  0.00  0.00    +0.000 C 
ENDBRANCH  16  17
ENDBRANCH  15  16
ENDBRANCH   4  15
TORSDOF 5
ENDMDL
