MODEL 1
REMARK VINA RESULT:      -7.5      0.000      0.000
REMARK  Name = 
REMARK  6 active torsions:
REMARK  status: ('A' for Active; 'I' for Inactive)
REMARK    1  A    between atoms: C_1  and  O_2
REMARK    2  A    between atoms: O_2  and  C_3
REMARK    3  A    between atoms: C_3  and  C_5
REMARK    4  A    between atoms: C_6  and  C_7
REMARK    5  A    between atoms: C_18  and  O_19
REMARK    6  A    between atoms: N_21  and  C_22
REMARK                            x       y       z     vdW  Elec       q    Type
REMARK                         _______ _______ _______ _____ _____    ______ ____
ROOT
ATOM      1  C   UNL     1       2.879   4.514  20.375  0.00  0.00    +0.000 C 
ATOM      2  C   UNL     1       1.986   5.350  19.359  0.00  0.00    +0.000 C 
ATOM      3  C   UNL     1       2.153   4.896  17.849  0.00  0.00    +0.000 C 
ATOM      4  C   UNL     1       3.478   4.209  17.462  0.00  0.00    +0.000 C 
ATOM      5  C   UNL     1       4.854   4.907  17.602  0.00  0.00    +0.000 C 
ATOM      6  C   UNL     1       5.450   4.337  18.915  0.00  0.00    +0.000 C 
ATOM      7  C   UNL     1       4.155   3.923  19.670  0.00  0.00    +0.000 C 
ATOM      8  N   UNL     1       3.494   3.223  18.525  0.00  0.00    +0.000 NA
ATOM      9  C   UNL     1       3.976   1.927  18.091  0.00  0.00    +0.000 C 
ENDROOT
BRANCH   2  10
ATOM     10  C   UNL     1       2.190   6.880  19.275  0.00  0.00    +0.000 A 
ATOM     11  C   UNL     1       2.466   7.557  18.083  0.00  0.00    +0.000 A 
ATOM     12  C   UNL     1       2.101   8.900  17.932  0.00  0.00    +0.000 A 
ATOM     13  C   UNL     1       1.522   9.602  18.990  0.00  0.00    +0.000 A 
ATOM     14 CL   UNL     1       0.932  11.195  18.673  0.00  0.00    +0.000 Cl
ATOM     15  C   UNL     1       1.390   8.986  20.235  0.00  0.00    +0.000 A 
ATOM     16 CL   UNL     1       0.689   9.785  21.597  0.00  0.00    +0.000 Cl
ATOM     17  C   UNL     1       1.744   7.640  20.379  0.00  0.00    +0.000 A 
ENDBRANCH   2  10
BRANCH   1  18
ATOM     18  C   UNL     1       2.193   3.366  21.116  0.00  0.00    +0.000 C 
ATOM     19  O   UNL     1       2.736   2.581  21.887  0.00  0.00    +0.000 OA
BRANCH  18  21
ATOM     20  C   UNL     1       0.656   2.209  19.734  0.00  0.00    +0.000 C 
ATOM     21  O   UNL     1       0.899   3.265  20.664  0.00  0.00    +0.000 OA
ENDBRANCH  18  21
ENDBRANCH   1  18
BRANCH   6  22
ATOM     22  O   UNL     1       6.228   5.314  19.616  0.00  0.00    +0.000 OA
ATOM     23  H   UNL     1       6.820   5.738  18.972  0.00  0.00    +0.000 HD
ENDBRANCH   6  22
TORSDOF 4
ENDMDL
MODEL 2
REMARK VINA RESULT:      -7.2      3.390      5.063
REMARK  Name = 
REMARK  6 active torsions:
REMARK  status: ('A' for Active; 'I' for Inactive)
REMARK    1  A    between atoms: C_1  and  O_2
REMARK    2  A    between atoms: O_2  and  C_3
REMARK    3  A    between atoms: C_3  and  C_5
REMARK    4  A    between atoms: C_6  and  C_7
REMARK    5  A    between atoms: C_18  and  O_19
REMARK    6  A    between atoms: N_21  and  C_22
REMARK                            x       y       z     vdW  Elec       q    Type
REMARK                         _______ _______ _______ _____ _____    ______ ____
ROOT
ATOM      1  C   UNL     1       3.414   4.852  19.253  0.00  0.00    +0.000 C 
ATOM      2  C   UNL     1       3.407   4.781  17.665  0.00  0.00    +0.000 C 
ATOM      3  C   UNL     1       2.549   3.578  17.090  0.00  0.00    +0.000 C 
ATOM      4  C   UNL     1       2.352   2.353  18.004  0.00  0.00    +0.000 C 
ATOM      5  C   UNL     1       3.536   1.504  18.531  0.00  0.00    +0.000 C 
ATOM      6  C   UNL     1       3.757   2.002  19.983  0.00  0.00    +0.000 C 
ATOM      7  C   UNL     1       3.166   3.437  19.895  0.00  0.00    +0.000 C 
ATOM      8  N   UNL     1       1.903   3.069  19.182  0.00  0.00    +0.000 NA
ATOM      9  C   UNL     1       0.841   2.385  19.893  0.00  0.00    +0.000 C 
ENDROOT
BRANCH   2  10
ATOM     10  C   UNL     1       4.752   4.621  16.921  0.00  0.00    +0.000 A 
ATOM     11  C   UNL     1       4.915   3.823  15.784  0.00  0.00    +0.000 A 
ATOM     12  C   UNL     1       5.915   4.118  14.851  0.00  0.00    +0.000 A 
ATOM     13  C   UNL     1       6.808   5.167  15.073  0.00  0.00    +0.000 A 
ATOM     14 CL   UNL     1       7.894   5.587  13.797  0.00  0.00    +0.000 Cl
ATOM     15  C   UNL     1       6.759   5.868  16.279  0.00  0.00    +0.000 A 
ATOM     16 CL   UNL     1       7.830   7.176  16.637  0.00  0.00    +0.000 Cl
ATOM     17  C   UNL     1       5.751   5.578  17.205  0.00  0.00    +0.000 A 
ENDBRANCH   2  10
BRANCH   1  18
ATOM     18  C   UNL     1       2.437   5.828  19.906  0.00  0.00    +0.000 C 
ATOM     19  O   UNL     1       1.791   5.623  20.930  0.00  0.00    +0.000 OA
BRANCH  18  21
ATOM     20  C   UNL     1       1.835   8.111  19.719  0.00  0.00    +0.000 C 
ATOM     21  O   UNL     1       2.287   6.917  19.081  0.00  0.00    +0.000 OA
ENDBRANCH  18  21
ENDBRANCH   1  18
BRANCH   6  22
ATOM     22  O   UNL     1       5.142   1.980  20.349  0.00  0.00    +0.000 OA
ATOM     23  H   UNL     1       5.196   2.106  21.311  0.00  0.00    +0.000 HD
ENDBRANCH   6  22
TORSDOF 4
ENDMDL
MODEL 3
REMARK VINA RESULT:      -7.2      1.748      3.601
REMARK  Name = 
REMARK  6 active torsions:
REMARK  status: ('A' for Active; 'I' for Inactive)
REMARK    1  A    between atoms: C_1  and  O_2
REMARK    2  A    between atoms: O_2  and  C_3
REMARK    3  A    between atoms: C_3  and  C_5
REMARK    4  A    between atoms: C_6  and  C_7
REMARK    5  A    between atoms: C_18  and  O_19
REMARK    6  A    between atoms: N_21  and  C_22
REMARK                            x       y       z     vdW  Elec       q    Type
REMARK                         _______ _______ _______ _____ _____    ______ ____
ROOT
ATOM      1  C   UNL     1       4.019   5.203  18.771  0.00  0.00    +0.000 C 
ATOM      2  C   UNL     1       3.352   5.734  20.114  0.00  0.00    +0.000 C 
ATOM      3  C   UNL     1       2.704   4.587  20.994  0.00  0.00    +0.000 C 
ATOM      4  C   UNL     1       2.257   3.305  20.265  0.00  0.00    +0.000 C 
ATOM      5  C   UNL     1       1.186   3.311  19.145  0.00  0.00    +0.000 C 
ATOM      6  C   UNL     1       2.000   3.253  17.826  0.00  0.00    +0.000 C 
ATOM      7  C   UNL     1       3.353   3.861  18.289  0.00  0.00    +0.000 C 
ATOM      8  N   UNL     1       3.492   3.060  19.545  0.00  0.00    +0.000 NA
ATOM      9  C   UNL     1       3.840   1.655  19.475  0.00  0.00    +0.000 C 
ENDROOT
BRANCH   2  10
ATOM     10  C   UNL     1       2.211   6.771  20.017  0.00  0.00    +0.000 A 
ATOM     11  C   UNL     1       1.343   7.063  21.074  0.00  0.00    +0.000 A 
ATOM     12  C   UNL     1       0.731   8.320  21.161  0.00  0.00    +0.000 A 
ATOM     13  C   UNL     1       0.922   9.272  20.160  0.00  0.00    +0.000 A 
ATOM     14 CL   UNL     1       0.287  10.857  20.424  0.00  0.00    +0.000 Cl
ATOM     15  C   UNL     1       1.653   8.937  19.020  0.00  0.00    +0.000 A 
ATOM     16 CL   UNL     1       1.931  10.055  17.732  0.00  0.00    +0.000 Cl
ATOM     17  C   UNL     1       2.273   7.685  18.942  0.00  0.00    +0.000 A 
ENDBRANCH   2  10
BRANCH   1  18
ATOM     18  C   UNL     1       5.531   4.983  18.790  0.00  0.00    +0.000 C 
ATOM     19  O   UNL     1       6.280   5.213  19.735  0.00  0.00    +0.000 OA
BRANCH  18  21
ATOM     20  C   UNL     1       7.350   4.611  17.319  0.00  0.00    +0.000 C 
ATOM     21  O   UNL     1       5.938   4.623  17.527  0.00  0.00    +0.000 OA
ENDBRANCH  18  21
ENDBRANCH   1  18
BRANCH   6  22
ATOM     22  O   UNL     1       1.370   4.000  16.778  0.00  0.00    +0.000 OA
ATOM     23  H   UNL     1       0.630   3.469  16.440  0.00  0.00    +0.000 HD
ENDBRANCH   6  22
TORSDOF 4
ENDMDL
MODEL 4
REMARK VINA RESULT:      -6.9      3.040      4.164
REMARK  Name = 
REMARK  6 active torsions:
REMARK  status: ('A' for Active; 'I' for Inactive)
REMARK    1  A    between atoms: C_1  and  O_2
REMARK    2  A    between atoms: O_2  and  C_3
REMARK    3  A    between atoms: C_3  and  C_5
REMARK    4  A    between atoms: C_6  and  C_7
REMARK    5  A    between atoms: C_18  and  O_19
REMARK    6  A    between atoms: N_21  and  C_22
REMARK                            x       y       z     vdW  Elec       q    Type
REMARK                         _______ _______ _______ _____ _____    ______ ____
ROOT
ATOM      1  C   UNL     1       2.855   4.623  19.773  0.00  0.00    +0.000 C 
ATOM      2  C   UNL     1       2.992   5.159  18.283  0.00  0.00    +0.000 C 
ATOM      3  C   UNL     1       2.484   4.128  17.191  0.00  0.00    +0.000 C 
ATOM      4  C   UNL     1       2.501   2.634  17.571  0.00  0.00    +0.000 C 
ATOM      5  C   UNL     1       3.803   1.883  17.947  0.00  0.00    +0.000 C 
ATOM      6  C   UNL     1       3.786   1.826  19.497  0.00  0.00    +0.000 C 
ATOM      7  C   UNL     1       2.889   3.051  19.827  0.00  0.00    +0.000 C 
ATOM      8  N   UNL     1       1.807   2.754  18.838  0.00  0.00    +0.000 NA
ATOM      9  C   UNL     1       0.877   1.669  19.082  0.00  0.00    +0.000 C 
ENDROOT
BRANCH   2  10
ATOM     10  C   UNL     1       4.393   5.544  17.756  0.00  0.00    +0.000 A 
ATOM     11  C   UNL     1       4.601   6.434  16.698  0.00  0.00    +0.000 A 
ATOM     12  C   UNL     1       5.791   7.167  16.615  0.00  0.00    +0.000 A 
ATOM     13  C   UNL     1       6.813   6.970  17.543  0.00  0.00    +0.000 A 
ATOM     14 CL   UNL     1       8.172   8.036  17.486  0.00  0.00    +0.000 Cl
ATOM     15  C   UNL     1       6.684   5.969  18.507  0.00  0.00    +0.000 A 
ATOM     16 CL   UNL     1       7.904   5.655  19.689  0.00  0.00    +0.000 Cl
ATOM     17  C   UNL     1       5.489   5.246  18.595  0.00  0.00    +0.000 A 
ENDBRANCH   2  10
BRANCH   1  18
ATOM     18  C   UNL     1       1.630   5.082  20.563  0.00  0.00    +0.000 C 
ATOM     19  O   UNL     1       0.509   4.583  20.506  0.00  0.00    +0.000 OA
BRANCH  18  21
ATOM     20  C   UNL     1       1.490   7.445  20.634  0.00  0.00    +0.000 C 
ATOM     21  O   UNL     1       1.949   6.236  21.238  0.00  0.00    +0.000 OA
ENDBRANCH  18  21
ENDBRANCH   1  18
BRANCH   6  22
ATOM     22  O   UNL     1       5.106   1.922  20.048  0.00  0.00    +0.000 OA
ATOM     23  H   UNL     1       5.024   1.906  21.016  0.00  0.00    +0.000 HD
ENDBRANCH   6  22
TORSDOF 4
ENDMDL
MODEL 5
REMARK VINA RESULT:      -6.9      1.626      3.803
REMARK  Name = 
REMARK  6 active torsions:
REMARK  status: ('A' for Active; 'I' for Inactive)
REMARK    1  A    between atoms: C_1  and  O_2
REMARK    2  A    between atoms: O_2  and  C_3
REMARK    3  A    between atoms: C_3  and  C_5
REMARK    4  A    between atoms: C_6  and  C_7
REMARK    5  A    between atoms: C_18  and  O_19
REMARK    6  A    between atoms: N_21  and  C_22
REMARK                            x       y       z     vdW  Elec       q    Type
REMARK                         _______ _______ _______ _____ _____    ______ ____
ROOT
ATOM      1  C   UNL     1       3.430   4.902  17.654  0.00  0.00    +0.000 C 
ATOM      2  C   UNL     1       3.547   5.765  18.985  0.00  0.00    +0.000 C 
ATOM      3  C   UNL     1       3.655   4.887  20.300  0.00  0.00    +0.000 C 
ATOM      4  C   UNL     1       3.062   3.465  20.249  0.00  0.00    +0.000 C 
ATOM      5  C   UNL     1       1.563   3.194  19.965  0.00  0.00    +0.000 C 
ATOM      6  C   UNL     1       1.515   2.794  18.468  0.00  0.00    +0.000 C 
ATOM      7  C   UNL     1       2.801   3.488  17.937  0.00  0.00    +0.000 C 
ATOM      8  N   UNL     1       3.716   3.033  19.029  0.00  0.00    +0.000 NA
ATOM      9  C   UNL     1       4.158   1.653  19.079  0.00  0.00    +0.000 C 
ENDROOT
BRANCH   2  10
ATOM     10  C   UNL     1       2.411   6.754  19.332  0.00  0.00    +0.000 A 
ATOM     11  C   UNL     1       1.785   6.801  20.582  0.00  0.00    +0.000 A 
ATOM     12  C   UNL     1       1.206   7.992  21.038  0.00  0.00    +0.000 A 
ATOM     13  C   UNL     1       1.182   9.126  20.226  0.00  0.00    +0.000 A 
ATOM     14 CL   UNL     1       0.618  10.603  20.922  0.00  0.00    +0.000 Cl
ATOM     15  C   UNL     1       1.656   9.045  18.916  0.00  0.00    +0.000 A 
ATOM     16 CL   UNL     1       1.657  10.400  17.844  0.00  0.00    +0.000 Cl
ATOM     17  C   UNL     1       2.245   7.858  18.468  0.00  0.00    +0.000 A 
ENDBRANCH   2  10
BRANCH   1  18
ATOM     18  C   UNL     1       4.716   4.680  16.859  0.00  0.00    +0.000 C 
ATOM     19  O   UNL     1       4.850   3.918  15.906  0.00  0.00    +0.000 OA
BRANCH  18  21
ATOM     20  C   UNL     1       6.994   4.685  17.507  0.00  0.00    +0.000 C 
ATOM     21  O   UNL     1       5.737   5.361  17.477  0.00  0.00    +0.000 OA
ENDBRANCH  18  21
ENDBRANCH   1  18
BRANCH   6  22
ATOM     22  O   UNL     1       0.317   3.255  17.831  0.00  0.00    +0.000 OA
ATOM     23  H   UNL     1      -0.422   3.098  18.442  0.00  0.00    +0.000 HD
ENDBRANCH   6  22
TORSDOF 4
ENDMDL
MODEL 6
REMARK VINA RESULT:      -6.7      3.390      4.048
REMARK  Name = 
REMARK  6 active torsions:
REMARK  status: ('A' for Active; 'I' for Inactive)
REMARK    1  A    between atoms: C_1  and  O_2
REMARK    2  A    between atoms: O_2  and  C_3
REMARK    3  A    between atoms: C_3  and  C_5
REMARK    4  A    between atoms: C_6  and  C_7
REMARK    5  A    between atoms: C_18  and  O_19
REMARK    6  A    between atoms: N_21  and  C_22
REMARK                            x       y       z     vdW  Elec       q    Type
REMARK                         _______ _______ _______ _____ _____    ______ ____
ROOT
ATOM      1  C   UNL     1       3.095   4.233  19.991  0.00  0.00    +0.000 C 
ATOM      2  C   UNL     1       3.118   5.122  18.673  0.00  0.00    +0.000 C 
ATOM      3  C   UNL     1       2.371   4.454  17.445  0.00  0.00    +0.000 C 
ATOM      4  C   UNL     1       2.260   2.916  17.440  0.00  0.00    +0.000 C 
ATOM      5  C   UNL     1       3.500   1.989  17.433  0.00  0.00    +0.000 C 
ATOM      6  C   UNL     1       3.657   1.535  18.907  0.00  0.00    +0.000 C 
ATOM      7  C   UNL     1       2.952   2.703  19.652  0.00  0.00    +0.000 C 
ATOM      8  N   UNL     1       1.735   2.762  18.784  0.00  0.00    +0.000 NA
ATOM      9  C   UNL     1       0.721   1.731  18.883  0.00  0.00    +0.000 C 
ENDROOT
BRANCH   2  10
ATOM     10  C   UNL     1       4.484   5.513  18.064  0.00  0.00    +0.000 A 
ATOM     11  C   UNL     1       4.624   6.396  16.988  0.00  0.00    +0.000 A 
ATOM     12  C   UNL     1       5.801   7.137  16.830  0.00  0.00    +0.000 A 
ATOM     13  C   UNL     1       6.876   6.956  17.701  0.00  0.00    +0.000 A 
ATOM     14 CL   UNL     1       8.220   8.032  17.557  0.00  0.00    +0.000 Cl
ATOM     15  C   UNL     1       6.810   5.963  18.679  0.00  0.00    +0.000 A 
ATOM     16 CL   UNL     1       8.099   5.669  19.792  0.00  0.00    +0.000 Cl
ATOM     17  C   UNL     1       5.629   5.232  18.841  0.00  0.00    +0.000 A 
ENDBRANCH   2  10
BRANCH   1  18
ATOM     18  C   UNL     1       2.031   4.571  21.034  0.00  0.00    +0.000 C 
ATOM     19  O   UNL     1       1.242   5.510  20.980  0.00  0.00    +0.000 OA
BRANCH  18  21
ATOM     20  C   UNL     1       1.251   2.676  22.222  0.00  0.00    +0.000 C 
ATOM     21  O   UNL     1       2.197   3.739  22.116  0.00  0.00    +0.000 OA
ENDBRANCH  18  21
ENDBRANCH   1  18
BRANCH   6  22
ATOM     22  O   UNL     1       5.034   1.376  19.273  0.00  0.00    +0.000 OA
ATOM     23  H   UNL     1       5.571   1.539  18.480  0.00  0.00    +0.000 HD
ENDBRANCH   6  22
TORSDOF 4
ENDMDL
MODEL 7
REMARK VINA RESULT:      -6.7      2.081      2.737
REMARK  Name = 
REMARK  6 active torsions:
REMARK  status: ('A' for Active; 'I' for Inactive)
REMARK    1  A    between atoms: C_1  and  O_2
REMARK    2  A    between atoms: O_2  and  C_3
REMARK    3  A    between atoms: C_3  and  C_5
REMARK    4  A    between atoms: C_6  and  C_7
REMARK    5  A    between atoms: C_18  and  O_19
REMARK    6  A    between atoms: N_21  and  C_22
REMARK                            x       y       z     vdW  Elec       q    Type
REMARK                         _______ _______ _______ _____ _____    ______ ____
ROOT
ATOM      1  C   UNL     1       3.868   4.668  17.971  0.00  0.00    +0.000 C 
ATOM      2  C   UNL     1       3.365   5.992  17.250  0.00  0.00    +0.000 C 
ATOM      3  C   UNL     1       4.404   6.576  16.204  0.00  0.00    +0.000 C 
ATOM      4  C   UNL     1       5.890   6.226  16.417  0.00  0.00    +0.000 C 
ATOM      5  C   UNL     1       6.667   6.625  17.696  0.00  0.00    +0.000 C 
ATOM      6  C   UNL     1       6.694   5.334  18.555  0.00  0.00    +0.000 C 
ATOM      7  C   UNL     1       5.439   4.594  18.013  0.00  0.00    +0.000 C 
ATOM      8  N   UNL     1       5.727   4.792  16.558  0.00  0.00    +0.000 NA
ATOM      9  C   UNL     1       6.782   4.034  15.917  0.00  0.00    +0.000 C 
ENDROOT
BRANCH   2  10
ATOM     10  C   UNL     1       3.027   7.228  18.114  0.00  0.00    +0.000 A 
ATOM     11  C   UNL     1       2.879   8.517  17.593  0.00  0.00    +0.000 A 
ATOM     12  C   UNL     1       2.066   9.454  18.242  0.00  0.00    +0.000 A 
ATOM     13  C   UNL     1       1.448   9.140  19.452  0.00  0.00    +0.000 A 
ATOM     14 CL   UNL     1       0.318  10.275  20.099  0.00  0.00    +0.000 Cl
ATOM     15  C   UNL     1       1.718   7.915  20.066  0.00  0.00    +0.000 A 
ATOM     16 CL   UNL     1       1.000   7.451  21.567  0.00  0.00    +0.000 Cl
ATOM     17  C   UNL     1       2.521   6.977  19.409  0.00  0.00    +0.000 A 
ENDBRANCH   2  10
BRANCH   1  18
ATOM     18  C   UNL     1       3.362   3.340  17.409  0.00  0.00    +0.000 C 
ATOM     19  O   UNL     1       2.350   3.183  16.732  0.00  0.00    +0.000 OA
BRANCH  18  21
ATOM     20  C   UNL     1       3.469   1.387  18.745  0.00  0.00    +0.000 C 
ATOM     21  O   UNL     1       4.145   2.326  17.909  0.00  0.00    +0.000 OA
ENDBRANCH  18  21
ENDBRANCH   1  18
BRANCH   6  22
ATOM     22  O   UNL     1       6.621   5.625  19.956  0.00  0.00    +0.000 OA
ATOM     23  H   UNL     1       6.400   4.799  20.419  0.00  0.00    +0.000 HD
ENDBRANCH   6  22
TORSDOF 4
ENDMDL
MODEL 8
REMARK VINA RESULT:      -6.6      0.499      1.015
REMARK  Name = 
REMARK  6 active torsions:
REMARK  status: ('A' for Active; 'I' for Inactive)
REMARK    1  A    between atoms: C_1  and  O_2
REMARK    2  A    between atoms: O_2  and  C_3
REMARK    3  A    between atoms: C_3  and  C_5
REMARK    4  A    between atoms: C_6  and  C_7
REMARK    5  A    between atoms: C_18  and  O_19
REMARK    6  A    between atoms: N_21  and  C_22
REMARK                            x       y       z     vdW  Elec       q    Type
REMARK                         _______ _______ _______ _____ _____    ______ ____
ROOT
ATOM      1  C   UNL     1       2.693   4.540  20.317  0.00  0.00    +0.000 C 
ATOM      2  C   UNL     1       1.854   5.416  19.290  0.00  0.00    +0.000 C 
ATOM      3  C   UNL     1       2.036   4.969  17.780  0.00  0.00    +0.000 C 
ATOM      4  C   UNL     1       3.342   4.236  17.415  0.00  0.00    +0.000 C 
ATOM      5  C   UNL     1       4.739   4.882  17.590  0.00  0.00    +0.000 C 
ATOM      6  C   UNL     1       5.286   4.279  18.910  0.00  0.00    +0.000 C 
ATOM      7  C   UNL     1       3.961   3.908  19.634  0.00  0.00    +0.000 C 
ATOM      8  N   UNL     1       3.300   3.241  18.469  0.00  0.00    +0.000 NA
ATOM      9  C   UNL     1       3.743   1.932  18.033  0.00  0.00    +0.000 C 
ENDROOT
BRANCH   2  10
ATOM     10  C   UNL     1       2.115   6.938  19.224  0.00  0.00    +0.000 A 
ATOM     11  C   UNL     1       2.413   7.619  18.039  0.00  0.00    +0.000 A 
ATOM     12  C   UNL     1       2.099   8.977  17.905  0.00  0.00    +0.000 A 
ATOM     13  C   UNL     1       1.550   9.687  18.973  0.00  0.00    +0.000 A 
ATOM     14 CL   UNL     1       1.021  11.305  18.678  0.00  0.00    +0.000 Cl
ATOM     15  C   UNL     1       1.399   9.061  20.211  0.00  0.00    +0.000 A 
ATOM     16 CL   UNL     1       0.733   9.870  21.585  0.00  0.00    +0.000 Cl
ATOM     17  C   UNL     1       1.702   7.702  20.338  0.00  0.00    +0.000 A 
ENDBRANCH   2  10
BRANCH   1  18
ATOM     18  C   UNL     1       1.949   3.413  21.033  0.00  0.00    +0.000 C 
ATOM     19  O   UNL     1       0.780   3.088  20.843  0.00  0.00    +0.000 OA
BRANCH  18  21
ATOM     20  C   UNL     1       3.313   1.627  21.779  0.00  0.00    +0.000 C 
ATOM     21  O   UNL     1       2.757   2.917  22.028  0.00  0.00    +0.000 OA
ENDBRANCH  18  21
ENDBRANCH   1  18
BRANCH   6  22
ATOM     22  O   UNL     1       6.085   5.222  19.636  0.00  0.00    +0.000 OA
ATOM     23  H   UNL     1       5.599   6.062  19.664  0.00  0.00    +0.000 HD
ENDBRANCH   6  22
TORSDOF 4
ENDMDL
MODEL 9
REMARK VINA RESULT:      -6.6      1.961      3.739
REMARK  Name = 
REMARK  6 active torsions:
REMARK  status: ('A' for Active; 'I' for Inactive)
REMARK    1  A    between atoms: C_1  and  O_2
REMARK    2  A    between atoms: O_2  and  C_3
REMARK    3  A    between atoms: C_3  and  C_5
REMARK    4  A    between atoms: C_6  and  C_7
REMARK    5  A    between atoms: C_18  and  O_19
REMARK    6  A    between atoms: N_21  and  C_22
REMARK                            x       y       z     vdW  Elec       q    Type
REMARK                         _______ _______ _______ _____ _____    ______ ____
ROOT
ATOM      1  C   UNL     1       4.111   4.959  17.099  0.00  0.00    +0.000 C 
ATOM      2  C   UNL     1       4.355   5.813  18.418  0.00  0.00    +0.000 C 
ATOM      3  C   UNL     1       4.044   5.017  19.753  0.00  0.00    +0.000 C 
ATOM      4  C   UNL     1       3.041   3.850  19.661  0.00  0.00    +0.000 C 
ATOM      5  C   UNL     1       1.572   4.045  19.211  0.00  0.00    +0.000 C 
ATOM      6  C   UNL     1       1.555   3.600  17.726  0.00  0.00    +0.000 C 
ATOM      7  C   UNL     1       3.042   3.829  17.334  0.00  0.00    +0.000 C 
ATOM      8  N   UNL     1       3.648   3.171  18.533  0.00  0.00    +0.000 NA
ATOM      9  C   UNL     1       3.624   1.727  18.659  0.00  0.00    +0.000 C 
ENDROOT
BRANCH   2  10
ATOM     10  C   UNL     1       3.560   7.124  18.614  0.00  0.00    +0.000 A 
ATOM     11  C   UNL     1       3.286   8.022  17.577  0.00  0.00    +0.000 A 
ATOM     12  C   UNL     1       2.158   8.849  17.638  0.00  0.00    +0.000 A 
ATOM     13  C   UNL     1       1.331   8.841  18.761  0.00  0.00    +0.000 A 
ATOM     14 CL   UNL     1      -0.137   9.748  18.688  0.00  0.00    +0.000 Cl
ATOM     15  C   UNL     1       1.683   8.069  19.869  0.00  0.00    +0.000 A 
ATOM     16 CL   UNL     1       0.718   8.007  21.301  0.00  0.00    +0.000 Cl
ATOM     17  C   UNL     1       2.803   7.235  19.801  0.00  0.00    +0.000 A 
ENDBRANCH   2  10
BRANCH   1  18
ATOM     18  C   UNL     1       5.336   4.305  16.461  0.00  0.00    +0.000 C 
ATOM     19  O   UNL     1       6.423   4.131  17.004  0.00  0.00    +0.000 OA
BRANCH  18  21
ATOM     20  C   UNL     1       6.212   4.038  14.277  0.00  0.00    +0.000 C 
ATOM     21  O   UNL     1       5.069   4.077  15.132  0.00  0.00    +0.000 OA
ENDBRANCH  18  21
ENDBRANCH   1  18
BRANCH   6  22
ATOM     22  O   UNL     1       0.636   4.375  16.947  0.00  0.00    +0.000 OA
ATOM     23  H   UNL     1       0.884   5.310  17.041  0.00  0.00    +0.000 HD
ENDBRANCH   6  22
TORSDOF 4
ENDMDL
