MODEL 1
REMARK VINA RESULT:      -7.6      0.000      0.000
REMARK  Name = 
REMARK  6 active torsions:
REMARK  status: ('A' for Active; 'I' for Inactive)
REMARK    1  A    between atoms: C_1  and  N_2
REMARK    2  A    between atoms: C_3  and  C_5
REMARK    3  A    between atoms: C_11  and  C_12
REMARK    4  A    between atoms: C_12  and  C_13
REMARK    5  A    between atoms: C_13  and  C_14
REMARK    6  A    between atoms: C_13  and  C_15
REMARK                            x       y       z     vdW  Elec       q    Type
REMARK                         _______ _______ _______ _____ _____    ______ ____
ROOT
ATOM      1  C   UNL     1       6.421   4.718  15.722  0.00  0.00    +0.000 A 
ATOM      2  C   UNL     1       7.437   4.760  16.683  0.00  0.00    +0.000 A 
ATOM      3  C   UNL     1       7.136   4.915  18.042  0.00  0.00    +0.000 A 
ATOM      4  C   UNL     1       5.782   4.981  18.392  0.00  0.00    +0.000 A 
ATOM      5  N   UNL     1       5.162   5.105  19.607  0.00  0.00    +0.000 N 
ATOM      6  N   UNL     1       3.822   5.052  19.552  0.00  0.00    +0.000 NA
ATOM      7  C   UNL     1       3.556   4.923  18.245  0.00  0.00    +0.000 A 
ATOM      8  C   UNL     1       4.748   4.924  17.465  0.00  0.00    +0.000 A 
ATOM      9  C   UNL     1       5.071   4.835  16.099  0.00  0.00    +0.000 A 
ATOM     10  H   UNL     1       5.599   5.203  20.516  0.00  0.00    +0.000 HD
ENDROOT
BRANCH   1  13
ATOM     11  C   UNL     1       6.189   3.334  12.216  0.00  0.00    +0.000 C 
ATOM     12  N   UNL     1       6.080   3.482  13.648  0.00  0.00    +0.000 N 
ATOM     13  C   UNL     1       6.711   4.535  14.276  0.00  0.00    +0.000 C 
ATOM     14  O   UNL     1       7.435   5.335  13.689  0.00  0.00    +0.000 OA
ATOM     15  H   UNL     1       5.326   3.007  14.122  0.00  0.00    +0.000 HD
ENDBRANCH   1  13
BRANCH   7  16
ATOM     16  C   UNL     1       2.131   4.747  17.795  0.00  0.00    +0.000 C 
BRANCH  16  17
ATOM     17  C   UNL     1       1.552   3.342  18.064  0.00  0.00    +0.000 C 
ATOM     18  C   UNL     1       2.575   2.224  17.836  0.00  0.00    +0.000 C 
ATOM     19  C   UNL     1       1.011   3.242  19.493  0.00  0.00    +0.000 C 
ENDBRANCH  16  17
ENDBRANCH   7  16
TORSDOF 3
ENDMDL
MODEL 2
REMARK VINA RESULT:      -7.6      0.776      1.262
REMARK  Name = 
REMARK  6 active torsions:
REMARK  status: ('A' for Active; 'I' for Inactive)
REMARK    1  A    between atoms: C_1  and  N_2
REMARK    2  A    between atoms: C_3  and  C_5
REMARK    3  A    between atoms: C_11  and  C_12
REMARK    4  A    between atoms: C_12  and  C_13
REMARK    5  A    between atoms: C_13  and  C_14
REMARK    6  A    between atoms: C_13  and  C_15
REMARK                            x       y       z     vdW  Elec       q    Type
REMARK                         _______ _______ _______ _____ _____    ______ ____
ROOT
ATOM      1  C   UNL     1       6.469   4.475  15.731  0.00  0.00    +0.000 A 
ATOM      2  C   UNL     1       7.365   5.034  16.649  0.00  0.00    +0.000 A 
ATOM      3  C   UNL     1       7.088   5.025  18.022  0.00  0.00    +0.000 A 
ATOM      4  C   UNL     1       5.903   4.400  18.430  0.00  0.00    +0.000 A 
ATOM      5  N   UNL     1       5.361   4.202  19.671  0.00  0.00    +0.000 N 
ATOM      6  N   UNL     1       4.231   3.478  19.672  0.00  0.00    +0.000 NA
ATOM      7  C   UNL     1       4.008   3.221  18.375  0.00  0.00    +0.000 A 
ATOM      8  C   UNL     1       5.001   3.820  17.546  0.00  0.00    +0.000 A 
ATOM      9  C   UNL     1       5.263   3.896  16.167  0.00  0.00    +0.000 A 
ATOM     10  H   UNL     1       5.728   4.515  20.563  0.00  0.00    +0.000 HD
ENDROOT
BRANCH   1  13
ATOM     11  C   UNL     1       6.298   3.404  12.114  0.00  0.00    +0.000 C 
ATOM     12  N   UNL     1       6.203   3.409  13.555  0.00  0.00    +0.000 N 
ATOM     13  C   UNL     1       6.748   4.453  14.271  0.00  0.00    +0.000 C 
ATOM     14  O   UNL     1       7.385   5.366  13.754  0.00  0.00    +0.000 OA
ATOM     15  H   UNL     1       5.504   2.825  13.990  0.00  0.00    +0.000 HD
ENDBRANCH   1  13
BRANCH   7  16
ATOM     16  C   UNL     1       2.851   2.345  17.983  0.00  0.00    +0.000 C 
BRANCH  16  17
ATOM     17  C   UNL     1       1.469   3.011  18.145  0.00  0.00    +0.000 C 
ATOM     18  C   UNL     1       0.936   2.932  19.580  0.00  0.00    +0.000 C 
ATOM     19  C   UNL     1       1.518   4.478  17.710  0.00  0.00    +0.000 C 
ENDBRANCH  16  17
ENDBRANCH   7  16
TORSDOF 3
ENDMDL
MODEL 3
REMARK VINA RESULT:      -7.3      2.307      5.737
REMARK  Name = 
REMARK  6 active torsions:
REMARK  status: ('A' for Active; 'I' for Inactive)
REMARK    1  A    between atoms: C_1  and  N_2
REMARK    2  A    between atoms: C_3  and  C_5
REMARK    3  A    between atoms: C_11  and  C_12
REMARK    4  A    between atoms: C_12  and  C_13
REMARK    5  A    between atoms: C_13  and  C_14
REMARK    6  A    between atoms: C_13  and  C_15
REMARK                            x       y       z     vdW  Elec       q    Type
REMARK                         _______ _______ _______ _____ _____    ______ ____
ROOT
ATOM      1  C   UNL     1       3.882   3.979  18.098  0.00  0.00    +0.000 A 
ATOM      2  C   UNL     1       4.867   4.343  19.023  0.00  0.00    +0.000 A 
ATOM      3  C   UNL     1       6.172   4.638  18.607  0.00  0.00    +0.000 A 
ATOM      4  C   UNL     1       6.428   4.594  17.232  0.00  0.00    +0.000 A 
ATOM      5  N   UNL     1       7.565   4.845  16.511  0.00  0.00    +0.000 N 
ATOM      6  N   UNL     1       7.402   4.776  15.180  0.00  0.00    +0.000 NA
ATOM      7  C   UNL     1       6.116   4.431  15.028  0.00  0.00    +0.000 A 
ATOM      8  C   UNL     1       5.469   4.254  16.285  0.00  0.00    +0.000 A 
ATOM      9  C   UNL     1       4.183   3.896  16.726  0.00  0.00    +0.000 A 
ATOM     10  H   UNL     1       8.480   5.096  16.867  0.00  0.00    +0.000 HD
ENDROOT
BRANCH   1  13
ATOM     11  C   UNL     1       0.879   3.515  20.339  0.00  0.00    +0.000 C 
ATOM     12  N   UNL     1       2.236   3.644  19.865  0.00  0.00    +0.000 N 
ATOM     13  C   UNL     1       2.486   3.680  18.509  0.00  0.00    +0.000 C 
ATOM     14  O   UNL     1       1.612   3.537  17.658  0.00  0.00    +0.000 OA
ATOM     15  H   UNL     1       2.935   3.995  20.503  0.00  0.00    +0.000 HD
ENDBRANCH   1  13
BRANCH   7  16
ATOM     16  C   UNL     1       5.535   4.337  13.644  0.00  0.00    +0.000 C 
BRANCH  16  17
ATOM     17  C   UNL     1       6.340   3.441  12.679  0.00  0.00    +0.000 C 
ATOM     18  C   UNL     1       5.444   2.582  11.778  0.00  0.00    +0.000 C 
ATOM     19  C   UNL     1       7.270   4.284  11.802  0.00  0.00    +0.000 C 
ENDBRANCH  16  17
ENDBRANCH   7  16
TORSDOF 3
ENDMDL
MODEL 4
REMARK VINA RESULT:      -7.3      2.299      5.711
REMARK  Name = 
REMARK  6 active torsions:
REMARK  status: ('A' for Active; 'I' for Inactive)
REMARK    1  A    between atoms: C_1  and  N_2
REMARK    2  A    between atoms: C_3  and  C_5
REMARK    3  A    between atoms: C_11  and  C_12
REMARK    4  A    between atoms: C_12  and  C_13
REMARK    5  A    between atoms: C_13  and  C_14
REMARK    6  A    between atoms: C_13  and  C_15
REMARK                            x       y       z     vdW  Elec       q    Type
REMARK                         _______ _______ _______ _____ _____    ______ ____
ROOT
ATOM      1  C   UNL     1       3.659   4.738  17.686  0.00  0.00    +0.000 A 
ATOM      2  C   UNL     1       4.223   5.889  18.248  0.00  0.00    +0.000 A 
ATOM      3  C   UNL     1       5.431   6.408  17.765  0.00  0.00    +0.000 A 
ATOM      4  C   UNL     1       6.018   5.751  16.677  0.00  0.00    +0.000 A 
ATOM      5  N   UNL     1       7.160   6.010  15.968  0.00  0.00    +0.000 N 
ATOM      6  N   UNL     1       7.359   5.192  14.923  0.00  0.00    +0.000 NA
ATOM      7  C   UNL     1       6.322   4.343  14.972  0.00  0.00    +0.000 A 
ATOM      8  C   UNL     1       5.475   4.617  16.085  0.00  0.00    +0.000 A 
ATOM      9  C   UNL     1       4.297   4.072  16.625  0.00  0.00    +0.000 A 
ATOM     10  H   UNL     1       7.835   6.749  16.131  0.00  0.00    +0.000 HD
ENDROOT
BRANCH   1  13
ATOM     11  C   UNL     1       0.902   3.748  20.069  0.00  0.00    +0.000 C 
ATOM     12  N   UNL     1       2.186   4.132  19.532  0.00  0.00    +0.000 N 
ATOM     13  C   UNL     1       2.369   4.178  18.167  0.00  0.00    +0.000 C 
ATOM     14  O   UNL     1       1.509   3.838  17.359  0.00  0.00    +0.000 OA
ATOM     15  H   UNL     1       2.825   4.635  20.131  0.00  0.00    +0.000 HD
ENDBRANCH   1  13
BRANCH   7  16
ATOM     16  C   UNL     1       6.158   3.313  13.889  0.00  0.00    +0.000 C 
BRANCH  16  17
ATOM     17  C   UNL     1       5.907   3.903  12.486  0.00  0.00    +0.000 C 
ATOM     18  C   UNL     1       7.161   3.894  11.604  0.00  0.00    +0.000 C 
ATOM     19  C   UNL     1       4.787   3.144  11.770  0.00  0.00    +0.000 C 
ENDBRANCH  16  17
ENDBRANCH   7  16
TORSDOF 3
ENDMDL
MODEL 5
REMARK VINA RESULT:      -7.2      0.704      1.037
REMARK  Name = 
REMARK  6 active torsions:
REMARK  status: ('A' for Active; 'I' for Inactive)
REMARK    1  A    between atoms: C_1  and  N_2
REMARK    2  A    between atoms: C_3  and  C_5
REMARK    3  A    between atoms: C_11  and  C_12
REMARK    4  A    between atoms: C_12  and  C_13
REMARK    5  A    between atoms: C_13  and  C_14
REMARK    6  A    between atoms: C_13  and  C_15
REMARK                            x       y       z     vdW  Elec       q    Type
REMARK                         _______ _______ _______ _____ _____    ______ ____
ROOT
ATOM      1  C   UNL     1       6.508   4.543  15.619  0.00  0.00    +0.000 A 
ATOM      2  C   UNL     1       7.606   4.684  16.475  0.00  0.00    +0.000 A 
ATOM      3  C   UNL     1       7.431   4.782  17.861  0.00  0.00    +0.000 A 
ATOM      4  C   UNL     1       6.122   4.688  18.347  0.00  0.00    +0.000 A 
ATOM      5  N   UNL     1       5.620   4.721  19.621  0.00  0.00    +0.000 N 
ATOM      6  N   UNL     1       4.296   4.517  19.699  0.00  0.00    +0.000 NA
ATOM      7  C   UNL     1       3.912   4.381  18.422  0.00  0.00    +0.000 A 
ATOM      8  C   UNL     1       5.011   4.530  17.526  0.00  0.00    +0.000 A 
ATOM      9  C   UNL     1       5.199   4.501  16.134  0.00  0.00    +0.000 A 
ATOM     10  H   UNL     1       6.135   4.852  20.484  0.00  0.00    +0.000 HD
ENDROOT
BRANCH   1  13
ATOM     11  C   UNL     1       6.005   3.256  12.105  0.00  0.00    +0.000 C 
ATOM     12  N   UNL     1       6.026   3.355  13.545  0.00  0.00    +0.000 N 
ATOM     13  C   UNL     1       6.667   4.418  14.147  0.00  0.00    +0.000 C 
ATOM     14  O   UNL     1       7.293   5.269  13.523  0.00  0.00    +0.000 OA
ATOM     15  H   UNL     1       5.344   2.830  14.072  0.00  0.00    +0.000 HD
ENDBRANCH   1  13
BRANCH   7  16
ATOM     16  C   UNL     1       2.478   4.051  18.113  0.00  0.00    +0.000 C 
BRANCH  16  17
ATOM     17  C   UNL     1       1.744   3.297  19.241  0.00  0.00    +0.000 C 
ATOM     18  C   UNL     1       0.965   4.233  20.173  0.00  0.00    +0.000 C 
ATOM     19  C   UNL     1       0.782   2.255  18.662  0.00  0.00    +0.000 C 
ENDBRANCH  16  17
ENDBRANCH   7  16
TORSDOF 3
ENDMDL
MODEL 6
REMARK VINA RESULT:      -7.2      1.277      1.654
REMARK  Name = 
REMARK  6 active torsions:
REMARK  status: ('A' for Active; 'I' for Inactive)
REMARK    1  A    between atoms: C_1  and  N_2
REMARK    2  A    between atoms: C_3  and  C_5
REMARK    3  A    between atoms: C_11  and  C_12
REMARK    4  A    between atoms: C_12  and  C_13
REMARK    5  A    between atoms: C_13  and  C_14
REMARK    6  A    between atoms: C_13  and  C_15
REMARK                            x       y       z     vdW  Elec       q    Type
REMARK                         _______ _______ _______ _____ _____    ______ ____
ROOT
ATOM      1  C   UNL     1       6.392   4.566  15.766  0.00  0.00    +0.000 A 
ATOM      2  C   UNL     1       7.312   5.056  16.700  0.00  0.00    +0.000 A 
ATOM      3  C   UNL     1       7.060   4.965  18.074  0.00  0.00    +0.000 A 
ATOM      4  C   UNL     1       5.877   4.327  18.466  0.00  0.00    +0.000 A 
ATOM      5  N   UNL     1       5.356   4.058  19.703  0.00  0.00    +0.000 N 
ATOM      6  N   UNL     1       4.218   3.346  19.680  0.00  0.00    +0.000 NA
ATOM      7  C   UNL     1       3.968   3.174  18.374  0.00  0.00    +0.000 A 
ATOM      8  C   UNL     1       4.951   3.813  17.565  0.00  0.00    +0.000 A 
ATOM      9  C   UNL     1       5.188   3.973  16.189  0.00  0.00    +0.000 A 
ATOM     10  H   UNL     1       5.743   4.310  20.605  0.00  0.00    +0.000 HD
ENDROOT
BRANCH   1  13
ATOM     11  C   UNL     1       8.060   5.472  12.502  0.00  0.00    +0.000 C 
ATOM     12  N   UNL     1       7.655   5.471  13.887  0.00  0.00    +0.000 N 
ATOM     13  C   UNL     1       6.643   4.632  14.303  0.00  0.00    +0.000 C 
ATOM     14  O   UNL     1       6.002   3.917  13.537  0.00  0.00    +0.000 OA
ATOM     15  H   UNL     1       8.292   5.851  14.573  0.00  0.00    +0.000 HD
ENDBRANCH   1  13
BRANCH   7  16
ATOM     16  C   UNL     1       2.793   2.336  17.952  0.00  0.00    +0.000 C 
BRANCH  16  17
ATOM     17  C   UNL     1       1.425   3.028  18.125  0.00  0.00    +0.000 C 
ATOM     18  C   UNL     1       0.883   2.922  19.556  0.00  0.00    +0.000 C 
ATOM     19  C   UNL     1       1.510   4.505  17.732  0.00  0.00    +0.000 C 
ENDBRANCH  16  17
ENDBRANCH   7  16
TORSDOF 3
ENDMDL
MODEL 7
REMARK VINA RESULT:      -7.0      1.146      1.146
REMARK  Name = 
REMARK  6 active torsions:
REMARK  status: ('A' for Active; 'I' for Inactive)
REMARK    1  A    between atoms: C_1  and  N_2
REMARK    2  A    between atoms: C_3  and  C_5
REMARK    3  A    between atoms: C_11  and  C_12
REMARK    4  A    between atoms: C_12  and  C_13
REMARK    5  A    between atoms: C_13  and  C_14
REMARK    6  A    between atoms: C_13  and  C_15
REMARK                            x       y       z     vdW  Elec       q    Type
REMARK                         _______ _______ _______ _____ _____    ______ ____
ROOT
ATOM      1  C   UNL     1       6.144   4.940  16.018  0.00  0.00    +0.000 A 
ATOM      2  C   UNL     1       7.067   5.256  17.022  0.00  0.00    +0.000 A 
ATOM      3  C   UNL     1       6.647   5.505  18.334  0.00  0.00    +0.000 A 
ATOM      4  C   UNL     1       5.278   5.381  18.600  0.00  0.00    +0.000 A 
ATOM      5  N   UNL     1       4.559   5.530  19.756  0.00  0.00    +0.000 N 
ATOM      6  N   UNL     1       3.253   5.248  19.635  0.00  0.00    +0.000 NA
ATOM      7  C   UNL     1       3.106   4.936  18.339  0.00  0.00    +0.000 A 
ATOM      8  C   UNL     1       4.337   5.052  17.631  0.00  0.00    +0.000 A 
ATOM      9  C   UNL     1       4.769   4.871  16.305  0.00  0.00    +0.000 A 
ATOM     10  H   UNL     1       4.907   5.797  20.670  0.00  0.00    +0.000 HD
ENDROOT
BRANCH   1  13
ATOM     11  C   UNL     1       8.091   5.179  12.792  0.00  0.00    +0.000 C 
ATOM     12  N   UNL     1       7.520   5.487  14.081  0.00  0.00    +0.000 N 
ATOM     13  C   UNL     1       6.565   4.653  14.622  0.00  0.00    +0.000 C 
ATOM     14  O   UNL     1       6.109   3.677  14.032  0.00  0.00    +0.000 OA
ATOM     15  H   UNL     1       8.020   6.121  14.687  0.00  0.00    +0.000 HD
ENDBRANCH   1  13
BRANCH   7  16
ATOM     16  C   UNL     1       1.765   4.476  17.837  0.00  0.00    +0.000 C 
BRANCH  16  17
ATOM     17  C   UNL     1       1.430   3.009  18.179  0.00  0.00    +0.000 C 
ATOM     18  C   UNL     1       2.648   2.083  18.081  0.00  0.00    +0.000 C 
ATOM     19  C   UNL     1       0.832   2.901  19.584  0.00  0.00    +0.000 C 
ENDBRANCH  16  17
ENDBRANCH   7  16
TORSDOF 3
ENDMDL
MODEL 8
REMARK VINA RESULT:      -7.0      2.457      5.569
REMARK  Name = 
REMARK  6 active torsions:
REMARK  status: ('A' for Active; 'I' for Inactive)
REMARK    1  A    between atoms: C_1  and  N_2
REMARK    2  A    between atoms: C_3  and  C_5
REMARK    3  A    between atoms: C_11  and  C_12
REMARK    4  A    between atoms: C_12  and  C_13
REMARK    5  A    between atoms: C_13  and  C_14
REMARK    6  A    between atoms: C_13  and  C_15
REMARK                            x       y       z     vdW  Elec       q    Type
REMARK                         _______ _______ _______ _____ _____    ______ ____
ROOT
ATOM      1  C   UNL     1       5.278   4.760  18.118  0.00  0.00    +0.000 A 
ATOM      2  C   UNL     1       6.339   5.645  18.336  0.00  0.00    +0.000 A 
ATOM      3  C   UNL     1       7.229   5.971  17.305  0.00  0.00    +0.000 A 
ATOM      4  C   UNL     1       6.982   5.407  16.047  0.00  0.00    +0.000 A 
ATOM      5  N   UNL     1       7.632   5.537  14.850  0.00  0.00    +0.000 N 
ATOM      6  N   UNL     1       7.044   4.893  13.829  0.00  0.00    +0.000 NA
ATOM      7  C   UNL     1       5.986   4.291  14.390  0.00  0.00    +0.000 A 
ATOM      8  C   UNL     1       5.927   4.538  15.793  0.00  0.00    +0.000 A 
ATOM      9  C   UNL     1       5.084   4.170  16.855  0.00  0.00    +0.000 A 
ATOM     10  H   UNL     1       8.470   6.073  14.656  0.00  0.00    +0.000 HD
ENDROOT
BRANCH   1  13
ATOM     11  C   UNL     1       3.314   2.658  20.565  0.00  0.00    +0.000 C 
ATOM     12  N   UNL     1       4.119   3.069  19.439  0.00  0.00    +0.000 N 
ATOM     13  C   UNL     1       4.308   4.412  19.189  0.00  0.00    +0.000 C 
ATOM     14  O   UNL     1       3.766   5.302  19.839  0.00  0.00    +0.000 OA
ATOM     15  H   UNL     1       4.758   2.399  19.037  0.00  0.00    +0.000 HD
ENDBRANCH   1  13
BRANCH   7  16
ATOM     16  C   UNL     1       5.024   3.527  13.522  0.00  0.00    +0.000 C 
BRANCH  16  17
ATOM     17  C   UNL     1       5.425   3.468  12.033  0.00  0.00    +0.000 C 
ATOM     18  C   UNL     1       6.300   2.253  11.702  0.00  0.00    +0.000 C 
ATOM     19  C   UNL     1       4.183   3.448  11.137  0.00  0.00    +0.000 C 
ENDBRANCH  16  17
ENDBRANCH   7  16
TORSDOF 3
ENDMDL
MODEL 9
REMARK VINA RESULT:      -7.0      1.487      2.088
REMARK  Name = 
REMARK  6 active torsions:
REMARK  status: ('A' for Active; 'I' for Inactive)
REMARK    1  A    between atoms: C_1  and  N_2
REMARK    2  A    between atoms: C_3  and  C_5
REMARK    3  A    between atoms: C_11  and  C_12
REMARK    4  A    between atoms: C_12  and  C_13
REMARK    5  A    between atoms: C_13  and  C_14
REMARK    6  A    between atoms: C_13  and  C_15
REMARK                            x       y       z     vdW  Elec       q    Type
REMARK                         _______ _______ _______ _____ _____    ______ ____
ROOT
ATOM      1  C   UNL     1       5.301   5.223  16.056  0.00  0.00    +0.000 A 
ATOM      2  C   UNL     1       5.077   6.601  16.157  0.00  0.00    +0.000 A 
ATOM      3  C   UNL     1       4.269   7.126  17.174  0.00  0.00    +0.000 A 
ATOM      4  C   UNL     1       3.738   6.220  18.100  0.00  0.00    +0.000 A 
ATOM      5  N   UNL     1       2.946   6.405  19.201  0.00  0.00    +0.000 N 
ATOM      6  N   UNL     1       2.701   5.285  19.900  0.00  0.00    +0.000 NA
ATOM      7  C   UNL     1       3.330   4.325  19.207  0.00  0.00    +0.000 A 
ATOM      8  C   UNL     1       3.956   4.848  18.038  0.00  0.00    +0.000 A 
ATOM      9  C   UNL     1       4.714   4.332  16.973  0.00  0.00    +0.000 A 
ATOM     10  H   UNL     1       2.562   7.276  19.546  0.00  0.00    +0.000 HD
ENDROOT
BRANCH   1  13
ATOM     11  C   UNL     1       6.296   3.584  12.804  0.00  0.00    +0.000 C 
ATOM     12  N   UNL     1       5.529   4.033  13.941  0.00  0.00    +0.000 N 
ATOM     13  C   UNL     1       6.169   4.641  14.999  0.00  0.00    +0.000 C 
ATOM     14  O   UNL     1       7.388   4.768  15.068  0.00  0.00    +0.000 OA
ATOM     15  H   UNL     1       4.534   4.163  13.826  0.00  0.00    +0.000 HD
ENDBRANCH   1  13
BRANCH   7  16
ATOM     16  C   UNL     1       3.347   2.919  19.740  0.00  0.00    +0.000 C 
BRANCH  16  17
ATOM     17  C   UNL     1       1.947   2.297  19.932  0.00  0.00    +0.000 C 
ATOM     18  C   UNL     1       1.258   2.770  21.218  0.00  0.00    +0.000 C 
ATOM     19  C   UNL     1       1.044   2.613  18.736  0.00  0.00    +0.000 C 
ENDBRANCH  16  17
ENDBRANCH   7  16
TORSDOF 3
ENDMDL
