MODEL 1
REMARK VINA RESULT:      -7.7      0.000      0.000
REMARK  Name = 
REMARK  8 active torsions:
REMARK  status: ('A' for Active; 'I' for Inactive)
REMARK    1  A    between atoms: C_1  and  O_2
REMARK    2  A    between atoms: O_2  and  C_3
REMARK    3  A    between atoms: C_3  and  C_4
REMARK    4  A    between atoms: C_4  and  N_5
REMARK    5  A    between atoms: N_5  and  C_6
REMARK    6  A    between atoms: C_9  and  N_10
REMARK    7  A    between atoms: N_10  and  C_11
REMARK    8  A    between atoms: C_17  and  C_18
REMARK                            x       y       z     vdW  Elec       q    Type
REMARK                         _______ _______ _______ _____ _____    ______ ____
ROOT
ATOM      1  C   UNL     1       4.336   4.575  19.486  0.00  0.00    +0.000 A 
ATOM      2  C   UNL     1       4.764   3.198  19.725  0.00  0.00    +0.000 A 
ATOM      3  C   UNL     1       3.926   2.262  20.199  0.00  0.00    +0.000 A 
ATOM      4  N   UNL     1       2.651   2.603  20.524  0.00  0.00    +0.000 N 
ATOM      5  C   UNL     1       2.135   3.854  20.399  0.00  0.00    +0.000 A 
ATOM      6  O   UNL     1       0.991   4.096  20.801  0.00  0.00    +0.000 OA
ATOM      7  C   UNL     1       3.046   4.891  19.759  0.00  0.00    +0.000 A 
ATOM      8  H   UNL     1       2.024   1.899  20.914  0.00  0.00    +0.000 HD
ENDROOT
BRANCH   7   9
ATOM      9  C   UNL     1       2.468   6.168  19.441  0.00  0.00    +0.000 A 
ATOM     10  N   UNL     1       2.464   6.903  18.339  0.00  0.00    +0.000 NA
ATOM     11  C   UNL     1       1.959   8.125  18.707  0.00  0.00    +0.000 A 
ATOM     12  C   UNL     1       1.915   9.320  17.992  0.00  0.00    +0.000 A 
ATOM     13  C   UNL     1       1.521  10.489  18.659  0.00  0.00    +0.000 A 
ATOM     14  C   UNL     1       1.129  10.450  20.003  0.00  0.00    +0.000 A 
ATOM     15  C   UNL     1       1.102   9.246  20.712  0.00  0.00    +0.000 A 
ATOM     16  C   UNL     1       1.538   8.120  20.032  0.00  0.00    +0.000 A 
ATOM     17  N   UNL     1       1.755   6.832  20.421  0.00  0.00    +0.000 N 
ATOM     18  H   UNL     1       1.620   6.478  21.370  0.00  0.00    +0.000 HD
ENDBRANCH   7   9
BRANCH   1  19
ATOM     19  N   UNL     1       5.381   5.414  19.043  0.00  0.00    +0.000 N 
ATOM     20  H   UNL     1       4.998   6.347  18.862  0.00  0.00    +0.000 HD
BRANCH  19  24
ATOM     21  C   UNL     1       7.693   7.663  17.446  0.00  0.00    +0.000 C 
ATOM     22  C   UNL     1       7.989   6.752  18.644  0.00  0.00    +0.000 C 
ATOM     23  C   UNL     1       7.748   5.274  18.361  0.00  0.00    +0.000 C 
ATOM     24  C   UNL     1       6.295   5.037  17.941  0.00  0.00    +0.000 C 
ATOM     25  C   UNL     1       6.063   5.870  16.668  0.00  0.00    +0.000 C 
ATOM     26  C   UNL     1       6.298   7.375  16.868  0.00  0.00    +0.000 C 
BRANCH  21  27
ATOM     27  N   UNL     1       7.789   9.075  17.863  0.00  0.00    +0.000 NA
ATOM     28  H   UNL     1       7.953   9.670  17.048  0.00  0.00    +0.000 HD
BRANCH  27  29
ATOM     29  C   UNL     1       8.877   9.319  18.831  0.00  0.00    +0.000 C 
BRANCH  29  30
ATOM     30  C   UNL     1       9.245  10.799  18.987  0.00  0.00    +0.000 C 
BRANCH  30  32
ATOM     31  C   UNL     1       9.904  12.588  17.607  0.00  0.00    +0.000 C 
ATOM     32  O   UNL     1      10.021  11.196  17.857  0.00  0.00    +0.000 OA
ENDBRANCH  30  32
ENDBRANCH  29  30
ENDBRANCH  27  29
ENDBRANCH  21  27
ENDBRANCH  19  24
ENDBRANCH   1  19
TORSDOF 7
ENDMDL
MODEL 2
REMARK VINA RESULT:      -7.7      0.672      1.285
REMARK  Name = 
REMARK  8 active torsions:
REMARK  status: ('A' for Active; 'I' for Inactive)
REMARK    1  A    between atoms: C_1  and  O_2
REMARK    2  A    between atoms: O_2  and  C_3
REMARK    3  A    between atoms: C_3  and  C_4
REMARK    4  A    between atoms: C_4  and  N_5
REMARK    5  A    between atoms: N_5  and  C_6
REMARK    6  A    between atoms: C_9  and  N_10
REMARK    7  A    between atoms: N_10  and  C_11
REMARK    8  A    between atoms: C_17  and  C_18
REMARK                            x       y       z     vdW  Elec       q    Type
REMARK                         _______ _______ _______ _____ _____    ______ ____
ROOT
ATOM      1  C   UNL     1       4.113   4.265  19.071  0.00  0.00    +0.000 A 
ATOM      2  C   UNL     1       4.280   2.830  18.852  0.00  0.00    +0.000 A 
ATOM      3  C   UNL     1       3.268   1.961  19.007  0.00  0.00    +0.000 A 
ATOM      4  N   UNL     1       2.057   2.408  19.433  0.00  0.00    +0.000 N 
ATOM      5  C   UNL     1       1.775   3.707  19.719  0.00  0.00    +0.000 A 
ATOM      6  O   UNL     1       0.671   4.014  20.185  0.00  0.00    +0.000 OA
ATOM      7  C   UNL     1       2.886   4.709  19.439  0.00  0.00    +0.000 A 
ATOM      8  H   UNL     1       1.297   1.745  19.580  0.00  0.00    +0.000 HD
ENDROOT
BRANCH   7   9
ATOM      9  C   UNL     1       2.558   6.103  19.552  0.00  0.00    +0.000 A 
ATOM     10  N   UNL     1       2.069   6.835  20.543  0.00  0.00    +0.000 NA
ATOM     11  C   UNL     1       1.744   8.047  19.988  0.00  0.00    +0.000 A 
ATOM     12  C   UNL     1       1.024   9.109  20.531  0.00  0.00    +0.000 A 
ATOM     13  C   UNL     1       0.656  10.172  19.693  0.00  0.00    +0.000 A 
ATOM     14  C   UNL     1       1.048  10.193  18.349  0.00  0.00    +0.000 A 
ATOM     15  C   UNL     1       1.829   9.167  17.809  0.00  0.00    +0.000 A 
ATOM     16  C   UNL     1       2.137   8.115  18.655  0.00  0.00    +0.000 A 
ATOM     17  N   UNL     1       2.762   6.920  18.456  0.00  0.00    +0.000 N 
ATOM     18  H   UNL     1       3.124   6.594  17.558  0.00  0.00    +0.000 HD
ENDBRANCH   7   9
BRANCH   1  19
ATOM     19  N   UNL     1       5.310   4.996  18.913  0.00  0.00    +0.000 N 
ATOM     20  H   UNL     1       5.080   5.992  18.851  0.00  0.00    +0.000 HD
BRANCH  19  24
ATOM     21  C   UNL     1       7.551   7.370  17.398  0.00  0.00    +0.000 C 
ATOM     22  C   UNL     1       7.834   6.516  18.641  0.00  0.00    +0.000 C 
ATOM     23  C   UNL     1       7.722   5.017  18.390  0.00  0.00    +0.000 C 
ATOM     24  C   UNL     1       6.322   4.660  17.885  0.00  0.00    +0.000 C 
ATOM     25  C   UNL     1       6.113   5.440  16.574  0.00  0.00    +0.000 C 
ATOM     26  C   UNL     1       6.223   6.962  16.742  0.00  0.00    +0.000 C 
BRANCH  21  27
ATOM     27  N   UNL     1       7.515   8.796  17.776  0.00  0.00    +0.000 NA
ATOM     28  H   UNL     1       7.446   9.378  16.939  0.00  0.00    +0.000 HD
BRANCH  27  29
ATOM     29  C   UNL     1       8.710   9.224  18.530  0.00  0.00    +0.000 C 
BRANCH  29  30
ATOM     30  C   UNL     1       8.914  10.744  18.553  0.00  0.00    +0.000 C 
BRANCH  30  32
ATOM     31  C   UNL     1      11.138  11.515  18.550  0.00  0.00    +0.000 C 
ATOM     32  O   UNL     1      10.052  11.063  17.754  0.00  0.00    +0.000 OA
ENDBRANCH  30  32
ENDBRANCH  29  30
ENDBRANCH  27  29
ENDBRANCH  21  27
ENDBRANCH  19  24
ENDBRANCH   1  19
TORSDOF 7
ENDMDL
MODEL 3
REMARK VINA RESULT:      -7.2      3.210      6.528
REMARK  Name = 
REMARK  8 active torsions:
REMARK  status: ('A' for Active; 'I' for Inactive)
REMARK    1  A    between atoms: C_1  and  O_2
REMARK    2  A    between atoms: O_2  and  C_3
REMARK    3  A    between atoms: C_3  and  C_4
REMARK    4  A    between atoms: C_4  and  N_5
REMARK    5  A    between atoms: N_5  and  C_6
REMARK    6  A    between atoms: C_9  and  N_10
REMARK    7  A    between atoms: N_10  and  C_11
REMARK    8  A    between atoms: C_17  and  C_18
REMARK                            x       y       z     vdW  Elec       q    Type
REMARK                         _______ _______ _______ _____ _____    ______ ____
ROOT
ATOM      1  C   UNL     1       1.950   4.263  18.788  0.00  0.00    +0.000 A 
ATOM      2  C   UNL     1       0.697   3.547  19.018  0.00  0.00    +0.000 A 
ATOM      3  C   UNL     1       0.639   2.205  19.063  0.00  0.00    +0.000 A 
ATOM      4  N   UNL     1       1.764   1.476  18.836  0.00  0.00    +0.000 N 
ATOM      5  C   UNL     1       2.984   2.010  18.563  0.00  0.00    +0.000 A 
ATOM      6  O   UNL     1       3.935   1.271  18.282  0.00  0.00    +0.000 OA
ATOM      7  C   UNL     1       3.077   3.528  18.621  0.00  0.00    +0.000 A 
ATOM      8  H   UNL     1       1.714   0.457  18.839  0.00  0.00    +0.000 HD
ENDROOT
BRANCH   7   9
ATOM      9  C   UNL     1       4.386   4.111  18.524  0.00  0.00    +0.000 A 
ATOM     10  N   UNL     1       5.383   4.231  19.389  0.00  0.00    +0.000 NA
ATOM     11  C   UNL     1       6.283   5.087  18.806  0.00  0.00    +0.000 A 
ATOM     12  C   UNL     1       7.407   5.702  19.353  0.00  0.00    +0.000 A 
ATOM     13  C   UNL     1       8.063   6.691  18.607  0.00  0.00    +0.000 A 
ATOM     14  C   UNL     1       7.631   7.019  17.315  0.00  0.00    +0.000 A 
ATOM     15  C   UNL     1       6.547   6.360  16.728  0.00  0.00    +0.000 A 
ATOM     16  C   UNL     1       5.899   5.420  17.512  0.00  0.00    +0.000 A 
ATOM     17  N   UNL     1       4.768   4.682  17.325  0.00  0.00    +0.000 N 
ATOM     18  H   UNL     1       4.170   4.729  16.497  0.00  0.00    +0.000 HD
ENDBRANCH   7   9
BRANCH   1  19
ATOM     19  N   UNL     1       1.786   5.663  18.719  0.00  0.00    +0.000 N 
ATOM     20  H   UNL     1       1.658   5.930  17.739  0.00  0.00    +0.000 HD
BRANCH  19  24
ATOM     21  C   UNL     1       1.454   9.246  18.634  0.00  0.00    +0.000 C 
ATOM     22  C   UNL     1       0.903   8.306  19.715  0.00  0.00    +0.000 C 
ATOM     23  C   UNL     1       1.976   7.464  20.396  0.00  0.00    +0.000 C 
ATOM     24  C   UNL     1       2.722   6.611  19.367  0.00  0.00    +0.000 C 
ATOM     25  C   UNL     1       3.364   7.587  18.365  0.00  0.00    +0.000 C 
ATOM     26  C   UNL     1       2.346   8.482  17.643  0.00  0.00    +0.000 C 
BRANCH  21  27
ATOM     27  N   UNL     1       0.333   9.887  17.920  0.00  0.00    +0.000 NA
ATOM     28  H   UNL     1       0.665  10.716  17.421  0.00  0.00    +0.000 HD
BRANCH  27  29
ATOM     29  C   UNL     1      -0.761  10.307  18.819  0.00  0.00    +0.000 C 
BRANCH  29  30
ATOM     30  C   UNL     1      -1.343  11.684  18.482  0.00  0.00    +0.000 C 
BRANCH  30  32
ATOM     31  C   UNL     1      -2.892  11.089  16.813  0.00  0.00    +0.000 C 
ATOM     32  O   UNL     1      -2.722  11.527  18.153  0.00  0.00    +0.000 OA
ENDBRANCH  30  32
ENDBRANCH  29  30
ENDBRANCH  27  29
ENDBRANCH  21  27
ENDBRANCH  19  24
ENDBRANCH   1  19
TORSDOF 7
ENDMDL
MODEL 4
REMARK VINA RESULT:      -7.1      3.170      6.320
REMARK  Name = 
REMARK  8 active torsions:
REMARK  status: ('A' for Active; 'I' for Inactive)
REMARK    1  A    between atoms: C_1  and  O_2
REMARK    2  A    between atoms: O_2  and  C_3
REMARK    3  A    between atoms: C_3  and  C_4
REMARK    4  A    between atoms: C_4  and  N_5
REMARK    5  A    between atoms: N_5  and  C_6
REMARK    6  A    between atoms: C_9  and  N_10
REMARK    7  A    between atoms: N_10  and  C_11
REMARK    8  A    between atoms: C_17  and  C_18
REMARK                            x       y       z     vdW  Elec       q    Type
REMARK                         _______ _______ _______ _____ _____    ______ ____
ROOT
ATOM      1  C   UNL     1       1.973   4.270  18.682  0.00  0.00    +0.000 A 
ATOM      2  C   UNL     1       0.720   3.546  18.885  0.00  0.00    +0.000 A 
ATOM      3  C   UNL     1       0.667   2.204  18.908  0.00  0.00    +0.000 A 
ATOM      4  N   UNL     1       1.797   1.482  18.683  0.00  0.00    +0.000 N 
ATOM      5  C   UNL     1       3.018   2.025  18.434  0.00  0.00    +0.000 A 
ATOM      6  O   UNL     1       3.975   1.294  18.153  0.00  0.00    +0.000 OA
ATOM      7  C   UNL     1       3.104   3.542  18.516  0.00  0.00    +0.000 A 
ATOM      8  H   UNL     1       1.751   0.463  18.670  0.00  0.00    +0.000 HD
ENDROOT
BRANCH   7   9
ATOM      9  C   UNL     1       4.412   4.131  18.445  0.00  0.00    +0.000 A 
ATOM     10  N   UNL     1       5.401   4.235  19.321  0.00  0.00    +0.000 NA
ATOM     11  C   UNL     1       6.303   5.107  18.765  0.00  0.00    +0.000 A 
ATOM     12  C   UNL     1       7.421   5.713  19.336  0.00  0.00    +0.000 A 
ATOM     13  C   UNL     1       8.080   6.721  18.618  0.00  0.00    +0.000 A 
ATOM     14  C   UNL     1       7.657   7.077  17.331  0.00  0.00    +0.000 A 
ATOM     15  C   UNL     1       6.581   6.428  16.719  0.00  0.00    +0.000 A 
ATOM     16  C   UNL     1       5.929   5.468  17.476  0.00  0.00    +0.000 A 
ATOM     17  N   UNL     1       4.803   4.731  17.263  0.00  0.00    +0.000 N 
ATOM     18  H   UNL     1       4.212   4.795  16.430  0.00  0.00    +0.000 HD
ENDBRANCH   7   9
BRANCH   1  19
ATOM     19  N   UNL     1       1.804   5.671  18.632  0.00  0.00    +0.000 N 
ATOM     20  H   UNL     1       1.616   5.944  17.663  0.00  0.00    +0.000 HD
BRANCH  19  24
ATOM     21  C   UNL     1       1.323   9.230  18.862  0.00  0.00    +0.000 C 
ATOM     22  C   UNL     1       0.952   8.190  19.928  0.00  0.00    +0.000 C 
ATOM     23  C   UNL     1       2.136   7.356  20.404  0.00  0.00    +0.000 C 
ATOM     24  C   UNL     1       2.777   6.615  19.229  0.00  0.00    +0.000 C 
ATOM     25  C   UNL     1       3.246   7.689  18.232  0.00  0.00    +0.000 C 
ATOM     26  C   UNL     1       2.110   8.582  17.713  0.00  0.00    +0.000 C 
BRANCH  21  27
ATOM     27  N   UNL     1       0.096   9.865  18.344  0.00  0.00    +0.000 NA
ATOM     28  H   UNL     1       0.122   9.895  17.323  0.00  0.00    +0.000 HD
BRANCH  27  29
ATOM     29  C   UNL     1      -0.092  11.245  18.834  0.00  0.00    +0.000 C 
BRANCH  29  30
ATOM     30  C   UNL     1      -1.298  11.412  19.765  0.00  0.00    +0.000 C 
BRANCH  30  32
ATOM     31  C   UNL     1      -0.449  11.059  21.933  0.00  0.00    +0.000 C 
ATOM     32  O   UNL     1      -0.856  12.025  20.975  0.00  0.00    +0.000 OA
ENDBRANCH  30  32
ENDBRANCH  29  30
ENDBRANCH  27  29
ENDBRANCH  21  27
ENDBRANCH  19  24
ENDBRANCH   1  19
TORSDOF 7
ENDMDL
MODEL 5
REMARK VINA RESULT:      -7.0      3.165      4.369
REMARK  Name = 
REMARK  8 active torsions:
REMARK  status: ('A' for Active; 'I' for Inactive)
REMARK    1  A    between atoms: C_1  and  O_2
REMARK    2  A    between atoms: O_2  and  C_3
REMARK    3  A    between atoms: C_3  and  C_4
REMARK    4  A    between atoms: C_4  and  N_5
REMARK    5  A    between atoms: N_5  and  C_6
REMARK    6  A    between atoms: C_9  and  N_10
REMARK    7  A    between atoms: N_10  and  C_11
REMARK    8  A    between atoms: C_17  and  C_18
REMARK                            x       y       z     vdW  Elec       q    Type
REMARK                         _______ _______ _______ _____ _____    ______ ____
ROOT
ATOM      1  C   UNL     1       4.246   3.689  19.216  0.00  0.00    +0.000 A 
ATOM      2  C   UNL     1       4.669   2.367  19.672  0.00  0.00    +0.000 A 
ATOM      3  C   UNL     1       4.083   1.747  20.710  0.00  0.00    +0.000 A 
ATOM      4  N   UNL     1       3.099   2.381  21.402  0.00  0.00    +0.000 N 
ATOM      5  C   UNL     1       2.640   3.629  21.117  0.00  0.00    +0.000 A 
ATOM      6  O   UNL     1       1.803   4.164  21.853  0.00  0.00    +0.000 OA
ATOM      7  C   UNL     1       3.225   4.288  19.876  0.00  0.00    +0.000 A 
ATOM      8  H   UNL     1       2.674   1.923  22.208  0.00  0.00    +0.000 HD
ENDROOT
BRANCH   7   9
ATOM      9  C   UNL     1       2.628   5.521  19.444  0.00  0.00    +0.000 A 
ATOM     10  N   UNL     1       2.537   6.109  18.260  0.00  0.00    +0.000 NA
ATOM     11  C   UNL     1       2.069   7.375  18.506  0.00  0.00    +0.000 A 
ATOM     12  C   UNL     1       1.971   8.469  17.649  0.00  0.00    +0.000 A 
ATOM     13  C   UNL     1       1.637   9.719  18.189  0.00  0.00    +0.000 A 
ATOM     14  C   UNL     1       1.356   9.859  19.553  0.00  0.00    +0.000 A 
ATOM     15  C   UNL     1       1.382   8.756  20.412  0.00  0.00    +0.000 A 
ATOM     16  C   UNL     1       1.757   7.547  19.851  0.00  0.00    +0.000 A 
ATOM     17  N   UNL     1       1.999   6.316  20.384  0.00  0.00    +0.000 N 
ATOM     18  H   UNL     1       1.941   6.089  21.379  0.00  0.00    +0.000 HD
ENDBRANCH   7   9
BRANCH   1  19
ATOM     19  N   UNL     1       5.028   4.187  18.151  0.00  0.00    +0.000 N 
ATOM     20  H   UNL     1       5.390   3.396  17.612  0.00  0.00    +0.000 HD
BRANCH  19  24
ATOM     21  C   UNL     1       6.999   5.621  15.503  0.00  0.00    +0.000 C 
ATOM     22  C   UNL     1       5.704   6.199  16.090  0.00  0.00    +0.000 C 
ATOM     23  C   UNL     1       5.781   6.469  17.588  0.00  0.00    +0.000 C 
ATOM     24  C   UNL     1       6.107   5.181  18.350  0.00  0.00    +0.000 C 
ATOM     25  C   UNL     1       7.467   4.690  17.824  0.00  0.00    +0.000 C 
ATOM     26  C   UNL     1       7.476   4.406  16.315  0.00  0.00    +0.000 C 
BRANCH  21  27
ATOM     27  N   UNL     1       6.774   5.235  14.096  0.00  0.00    +0.000 NA
ATOM     28  H   UNL     1       6.029   5.807  13.692  0.00  0.00    +0.000 HD
BRANCH  27  29
ATOM     29  C   UNL     1       6.394   3.817  13.940  0.00  0.00    +0.000 C 
BRANCH  29  30
ATOM     30  C   UNL     1       5.988   3.441  12.510  0.00  0.00    +0.000 C 
BRANCH  30  32
ATOM     31  C   UNL     1       4.119   3.170  11.106  0.00  0.00    +0.000 C 
ATOM     32  O   UNL     1       4.573   3.577  12.388  0.00  0.00    +0.000 OA
ENDBRANCH  30  32
ENDBRANCH  29  30
ENDBRANCH  27  29
ENDBRANCH  21  27
ENDBRANCH  19  24
ENDBRANCH   1  19
TORSDOF 7
ENDMDL
MODEL 6
REMARK VINA RESULT:      -7.0      3.365      4.727
REMARK  Name = 
REMARK  8 active torsions:
REMARK  status: ('A' for Active; 'I' for Inactive)
REMARK    1  A    between atoms: C_1  and  O_2
REMARK    2  A    between atoms: O_2  and  C_3
REMARK    3  A    between atoms: C_3  and  C_4
REMARK    4  A    between atoms: C_4  and  N_5
REMARK    5  A    between atoms: N_5  and  C_6
REMARK    6  A    between atoms: C_9  and  N_10
REMARK    7  A    between atoms: N_10  and  C_11
REMARK    8  A    between atoms: C_17  and  C_18
REMARK                            x       y       z     vdW  Elec       q    Type
REMARK                         _______ _______ _______ _____ _____    ______ ____
ROOT
ATOM      1  C   UNL     1       3.550   4.406  18.547  0.00  0.00    +0.000 A 
ATOM      2  C   UNL     1       4.045   3.031  18.564  0.00  0.00    +0.000 A 
ATOM      3  C   UNL     1       3.860   2.218  19.617  0.00  0.00    +0.000 A 
ATOM      4  N   UNL     1       3.241   2.691  20.731  0.00  0.00    +0.000 N 
ATOM      5  C   UNL     1       2.774   3.961  20.870  0.00  0.00    +0.000 A 
ATOM      6  O   UNL     1       2.302   4.333  21.951  0.00  0.00    +0.000 OA
ATOM      7  C   UNL     1       2.883   4.850  19.640  0.00  0.00    +0.000 A 
ATOM      8  H   UNL     1       3.127   2.084  21.542  0.00  0.00    +0.000 HD
ENDROOT
BRANCH   7   9
ATOM      9  C   UNL     1       2.231   6.130  19.694  0.00  0.00    +0.000 A 
ATOM     10  N   UNL     1       2.009   7.064  18.782  0.00  0.00    +0.000 NA
ATOM     11  C   UNL     1       1.558   8.161  19.473  0.00  0.00    +0.000 A 
ATOM     12  C   UNL     1       1.359   9.468  19.033  0.00  0.00    +0.000 A 
ATOM     13  C   UNL     1       1.072  10.460  19.981  0.00  0.00    +0.000 A 
ATOM     14  C   UNL     1       0.935  10.138  21.337  0.00  0.00    +0.000 A 
ATOM     15  C   UNL     1       1.063   8.819  21.782  0.00  0.00    +0.000 A 
ATOM     16  C   UNL     1       1.388   7.874  20.823  0.00  0.00    +0.000 A 
ATOM     17  N   UNL     1       1.698   6.549  20.898  0.00  0.00    +0.000 N 
ATOM     18  H   UNL     1       1.748   6.010  21.765  0.00  0.00    +0.000 HD
ENDBRANCH   7   9
BRANCH   1  19
ATOM     19  N   UNL     1       3.900   5.109  17.374  0.00  0.00    +0.000 N 
ATOM     20  H   UNL     1       3.954   4.444  16.597  0.00  0.00    +0.000 HD
BRANCH  19  24
ATOM     21  C   UNL     1       6.690   4.744  15.131  0.00  0.00    +0.000 C 
ATOM     22  C   UNL     1       5.415   5.556  14.873  0.00  0.00    +0.000 C 
ATOM     23  C   UNL     1       5.163   6.643  15.911  0.00  0.00    +0.000 C 
ATOM     24  C   UNL     1       5.055   6.033  17.311  0.00  0.00    +0.000 C 
ATOM     25  C   UNL     1       6.393   5.327  17.589  0.00  0.00    +0.000 C 
ATOM     26  C   UNL     1       6.727   4.222  16.576  0.00  0.00    +0.000 C 
BRANCH  21  27
ATOM     27  N   UNL     1       6.758   3.616  14.181  0.00  0.00    +0.000 NA
ATOM     28  H   UNL     1       7.707   3.237  14.156  0.00  0.00    +0.000 HD
BRANCH  27  29
ATOM     29  C   UNL     1       6.384   3.997  12.804  0.00  0.00    +0.000 C 
BRANCH  29  30
ATOM     30  C   UNL     1       6.593   2.879  11.776  0.00  0.00    +0.000 C 
BRANCH  30  32
ATOM     31  C   UNL     1       4.283   3.169  11.434  0.00  0.00    +0.000 C 
ATOM     32  O   UNL     1       5.343   2.232  11.549  0.00  0.00    +0.000 OA
ENDBRANCH  30  32
ENDBRANCH  29  30
ENDBRANCH  27  29
ENDBRANCH  21  27
ENDBRANCH  19  24
ENDBRANCH   1  19
TORSDOF 7
ENDMDL
MODEL 7
REMARK VINA RESULT:      -7.0      3.681      6.829
REMARK  Name = 
REMARK  8 active torsions:
REMARK  status: ('A' for Active; 'I' for Inactive)
REMARK    1  A    between atoms: C_1  and  O_2
REMARK    2  A    between atoms: O_2  and  C_3
REMARK    3  A    between atoms: C_3  and  C_4
REMARK    4  A    between atoms: C_4  and  N_5
REMARK    5  A    between atoms: N_5  and  C_6
REMARK    6  A    between atoms: C_9  and  N_10
REMARK    7  A    between atoms: N_10  and  C_11
REMARK    8  A    between atoms: C_17  and  C_18
REMARK                            x       y       z     vdW  Elec       q    Type
REMARK                         _______ _______ _______ _____ _____    ______ ____
ROOT
ATOM      1  C   UNL     1       1.893   4.698  19.614  0.00  0.00    +0.000 A 
ATOM      2  C   UNL     1       1.074   4.159  20.697  0.00  0.00    +0.000 A 
ATOM      3  C   UNL     1       1.160   2.876  21.087  0.00  0.00    +0.000 A 
ATOM      4  N   UNL     1       1.993   2.028  20.428  0.00  0.00    +0.000 N 
ATOM      5  C   UNL     1       2.775   2.383  19.375  0.00  0.00    +0.000 A 
ATOM      6  O   UNL     1       3.437   1.526  18.777  0.00  0.00    +0.000 OA
ATOM      7  C   UNL     1       2.763   3.858  19.001  0.00  0.00    +0.000 A 
ATOM      8  H   UNL     1       2.036   1.047  20.704  0.00  0.00    +0.000 HD
ENDROOT
BRANCH   7   9
ATOM      9  C   UNL     1       3.717   4.296  18.020  0.00  0.00    +0.000 A 
ATOM     10  N   UNL     1       3.628   4.521  16.717  0.00  0.00    +0.000 NA
ATOM     11  C   UNL     1       4.917   4.688  16.278  0.00  0.00    +0.000 A 
ATOM     12  C   UNL     1       5.410   4.760  14.977  0.00  0.00    +0.000 A 
ATOM     13  C   UNL     1       6.799   4.741  14.782  0.00  0.00    +0.000 A 
ATOM     14  C   UNL     1       7.676   4.704  15.873  0.00  0.00    +0.000 A 
ATOM     15  C   UNL     1       7.195   4.704  17.185  0.00  0.00    +0.000 A 
ATOM     16  C   UNL     1       5.818   4.680  17.337  0.00  0.00    +0.000 A 
ATOM     17  N   UNL     1       5.010   4.562  18.429  0.00  0.00    +0.000 N 
ATOM     18  H   UNL     1       5.340   4.454  19.391  0.00  0.00    +0.000 HD
ENDBRANCH   7   9
BRANCH   1  19
ATOM     19  N   UNL     1       1.609   6.050  19.321  0.00  0.00    +0.000 N 
ATOM     20  H   UNL     1       1.339   6.122  18.336  0.00  0.00    +0.000 HD
BRANCH  19  24
ATOM     21  C   UNL     1       1.091   9.500  18.437  0.00  0.00    +0.000 C 
ATOM     22  C   UNL     1       0.664   8.821  19.746  0.00  0.00    +0.000 C 
ATOM     23  C   UNL     1       1.823   8.198  20.516  0.00  0.00    +0.000 C 
ATOM     24  C   UNL     1       2.538   7.153  19.657  0.00  0.00    +0.000 C 
ATOM     25  C   UNL     1       3.059   7.888  18.409  0.00  0.00    +0.000 C 
ATOM     26  C   UNL     1       1.950   8.555  17.583  0.00  0.00    +0.000 C 
BRANCH  21  27
ATOM     27  N   UNL     1      -0.108   9.918  17.685  0.00  0.00    +0.000 NA
ATOM     28  H   UNL     1       0.127  10.686  17.052  0.00  0.00    +0.000 HD
BRANCH  27  29
ATOM     29  C   UNL     1      -1.209  10.370  18.558  0.00  0.00    +0.000 C 
BRANCH  29  30
ATOM     30  C   UNL     1      -2.222  11.281  17.853  0.00  0.00    +0.000 C 
BRANCH  30  32
ATOM     31  C   UNL     1      -2.928  10.853  15.649  0.00  0.00    +0.000 C 
ATOM     32  O   UNL     1      -3.048  10.477  17.012  0.00  0.00    +0.000 OA
ENDBRANCH  30  32
ENDBRANCH  29  30
ENDBRANCH  27  29
ENDBRANCH  21  27
ENDBRANCH  19  24
ENDBRANCH   1  19
TORSDOF 7
ENDMDL
MODEL 8
REMARK VINA RESULT:      -6.9      3.469      6.874
REMARK  Name = 
REMARK  8 active torsions:
REMARK  status: ('A' for Active; 'I' for Inactive)
REMARK    1  A    between atoms: C_1  and  O_2
REMARK    2  A    between atoms: O_2  and  C_3
REMARK    3  A    between atoms: C_3  and  C_4
REMARK    4  A    between atoms: C_4  and  N_5
REMARK    5  A    between atoms: N_5  and  C_6
REMARK    6  A    between atoms: C_9  and  N_10
REMARK    7  A    between atoms: N_10  and  C_11
REMARK    8  A    between atoms: C_17  and  C_18
REMARK                            x       y       z     vdW  Elec       q    Type
REMARK                         _______ _______ _______ _____ _____    ______ ____
ROOT
ATOM      1  C   UNL     1       2.068   4.724  19.296  0.00  0.00    +0.000 A 
ATOM      2  C   UNL     1       1.011   4.319  20.221  0.00  0.00    +0.000 A 
ATOM      3  C   UNL     1       0.946   3.079  20.733  0.00  0.00    +0.000 A 
ATOM      4  N   UNL     1       1.854   2.144  20.348  0.00  0.00    +0.000 N 
ATOM      5  C   UNL     1       2.860   2.370  19.461  0.00  0.00    +0.000 A 
ATOM      6  O   UNL     1       3.588   1.438  19.100  0.00  0.00    +0.000 OA
ATOM      7  C   UNL     1       3.003   3.800  18.964  0.00  0.00    +0.000 A 
ATOM      8  H   UNL     1       1.787   1.195  20.714  0.00  0.00    +0.000 HD
ENDROOT
BRANCH   7   9
ATOM      9  C   UNL     1       4.165   4.110  18.177  0.00  0.00    +0.000 A 
ATOM     10  N   UNL     1       5.098   5.045  18.280  0.00  0.00    +0.000 NA
ATOM     11  C   UNL     1       5.812   4.991  17.109  0.00  0.00    +0.000 A 
ATOM     12  C   UNL     1       6.773   5.870  16.613  0.00  0.00    +0.000 A 
ATOM     13  C   UNL     1       7.224   5.701  15.296  0.00  0.00    +0.000 A 
ATOM     14  C   UNL     1       6.758   4.640  14.510  0.00  0.00    +0.000 A 
ATOM     15  C   UNL     1       5.846   3.710  15.019  0.00  0.00    +0.000 A 
ATOM     16  C   UNL     1       5.392   3.934  16.308  0.00  0.00    +0.000 A 
ATOM     17  N   UNL     1       4.443   3.325  17.073  0.00  0.00    +0.000 N 
ATOM     18  H   UNL     1       3.865   2.539  16.769  0.00  0.00    +0.000 HD
ENDBRANCH   7   9
BRANCH   1  19
ATOM     19  N   UNL     1       1.923   6.048  18.829  0.00  0.00    +0.000 N 
ATOM     20  H   UNL     1       1.949   6.039  17.805  0.00  0.00    +0.000 HD
BRANCH  19  24
ATOM     21  C   UNL     1       1.097   9.530  18.449  0.00  0.00    +0.000 C 
ATOM     22  C   UNL     1       0.735   8.633  19.640  0.00  0.00    +0.000 C 
ATOM     23  C   UNL     1       1.945   8.010  20.325  0.00  0.00    +0.000 C 
ATOM     24  C   UNL     1       2.750   7.168  19.332  0.00  0.00    +0.000 C 
ATOM     25  C   UNL     1       3.201   8.120  18.210  0.00  0.00    +0.000 C 
ATOM     26  C   UNL     1       2.036   8.799  17.476  0.00  0.00    +0.000 C 
BRANCH  21  27
ATOM     27  N   UNL     1      -0.135   9.946  17.751  0.00  0.00    +0.000 NA
ATOM     28  H   UNL     1       0.050  10.770  17.175  0.00  0.00    +0.000 HD
BRANCH  27  29
ATOM     29  C   UNL     1      -1.239  10.277  18.675  0.00  0.00    +0.000 C 
BRANCH  29  30
ATOM     30  C   UNL     1      -2.479  10.846  17.977  0.00  0.00    +0.000 C 
BRANCH  30  32
ATOM     31  C   UNL     1      -3.483  10.939  15.850  0.00  0.00    +0.000 C 
ATOM     32  O   UNL     1      -2.265  10.808  16.567  0.00  0.00    +0.000 OA
ENDBRANCH  30  32
ENDBRANCH  29  30
ENDBRANCH  27  29
ENDBRANCH  21  27
ENDBRANCH  19  24
ENDBRANCH   1  19
TORSDOF 7
ENDMDL
MODEL 9
REMARK VINA RESULT:      -6.9      3.199      4.567
REMARK  Name = 
REMARK  8 active torsions:
REMARK  status: ('A' for Active; 'I' for Inactive)
REMARK    1  A    between atoms: C_1  and  O_2
REMARK    2  A    between atoms: O_2  and  C_3
REMARK    3  A    between atoms: C_3  and  C_4
REMARK    4  A    between atoms: C_4  and  N_5
REMARK    5  A    between atoms: N_5  and  C_6
REMARK    6  A    between atoms: C_9  and  N_10
REMARK    7  A    between atoms: N_10  and  C_11
REMARK    8  A    between atoms: C_17  and  C_18
REMARK                            x       y       z     vdW  Elec       q    Type
REMARK                         _______ _______ _______ _____ _____    ______ ____
ROOT
ATOM      1  C   UNL     1       3.205   4.825  17.968  0.00  0.00    +0.000 A 
ATOM      2  C   UNL     1       3.203   3.522  17.307  0.00  0.00    +0.000 A 
ATOM      3  C   UNL     1       2.321   2.560  17.626  0.00  0.00    +0.000 A 
ATOM      4  N   UNL     1       1.431   2.771  18.632  0.00  0.00    +0.000 N 
ATOM      5  C   UNL     1       1.354   3.916  19.361  0.00  0.00    +0.000 A 
ATOM      6  O   UNL     1       0.572   3.991  20.317  0.00  0.00    +0.000 OA
ATOM      7  C   UNL     1       2.276   5.047  18.929  0.00  0.00    +0.000 A 
ATOM      8  H   UNL     1       0.782   2.031  18.896  0.00  0.00    +0.000 HD
ENDROOT
BRANCH   7   9
ATOM      9  C   UNL     1       2.086   6.326  19.556  0.00  0.00    +0.000 A 
ATOM     10  N   UNL     1       1.918   6.693  20.818  0.00  0.00    +0.000 NA
ATOM     11  C   UNL     1       1.548   8.014  20.777  0.00  0.00    +0.000 A 
ATOM     12  C   UNL     1       1.067   8.834  21.795  0.00  0.00    +0.000 A 
ATOM     13  C   UNL     1       0.574  10.103  21.461  0.00  0.00    +0.000 A 
ATOM     14  C   UNL     1       0.611  10.561  20.137  0.00  0.00    +0.000 A 
ATOM     15  C   UNL     1       1.155   9.776  19.117  0.00  0.00    +0.000 A 
ATOM     16  C   UNL     1       1.593   8.512  19.479  0.00  0.00    +0.000 A 
ATOM     17  N   UNL     1       2.062   7.455  18.758  0.00  0.00    +0.000 N 
ATOM     18  H   UNL     1       2.159   7.439  17.740  0.00  0.00    +0.000 HD
ENDBRANCH   7   9
BRANCH   1  19
ATOM     19  N   UNL     1       4.247   5.670  17.529  0.00  0.00    +0.000 N 
ATOM     20  H   UNL     1       4.338   5.577  16.513  0.00  0.00    +0.000 HD
BRANCH  19  24
ATOM     21  C   UNL     1       7.328   5.301  15.706  0.00  0.00    +0.000 C 
ATOM     22  C   UNL     1       6.641   6.623  16.074  0.00  0.00    +0.000 C 
ATOM     23  C   UNL     1       6.436   6.808  17.573  0.00  0.00    +0.000 C 
ATOM     24  C   UNL     1       5.593   5.666  18.145  0.00  0.00    +0.000 C 
ATOM     25  C   UNL     1       6.366   4.364  17.867  0.00  0.00    +0.000 C 
ATOM     26  C   UNL     1       6.624   4.110  16.374  0.00  0.00    +0.000 C 
BRANCH  21  27
ATOM     27  N   UNL     1       7.327   5.135  14.240  0.00  0.00    +0.000 NA
ATOM     28  H   UNL     1       7.053   6.011  13.789  0.00  0.00    +0.000 HD
BRANCH  27  29
ATOM     29  C   UNL     1       6.404   4.079  13.779  0.00  0.00    +0.000 C 
BRANCH  29  30
ATOM     30  C   UNL     1       6.615   3.670  12.316  0.00  0.00    +0.000 C 
BRANCH  30  32
ATOM     31  C   UNL     1       4.428   3.218  11.571  0.00  0.00    +0.000 C 
ATOM     32  O   UNL     1       5.665   2.658  11.986  0.00  0.00    +0.000 OA
ENDBRANCH  30  32
ENDBRANCH  29  30
ENDBRANCH  27  29
ENDBRANCH  21  27
ENDBRANCH  19  24
ENDBRANCH   1  19
TORSDOF 7
ENDMDL
