MODEL 1
REMARK VINA RESULT:      -7.0      0.000      0.000
REMARK  Name = 
REMARK  12 active torsions:
REMARK  status: ('A' for Active; 'I' for Inactive)
REMARK    1  A    between atoms: C_1  and  O_2
REMARK    2  A    between atoms: O_2  and  C_3
REMARK    3  A    between atoms: C_3  and  C_4
REMARK    4  A    between atoms: C_4  and  O_5
REMARK    5  A    between atoms: O_5  and  C_6
REMARK    6  A    between atoms: C_14  and  O_15
REMARK    7  A    between atoms: O_15  and  C_16
REMARK    8  A    between atoms: C_16  and  C_17
REMARK    9  A    between atoms: C_21  and  C_22
REMARK   10  A    between atoms: C_26  and  C_27
REMARK   11  A    between atoms: C_28  and  C_29
REMARK   12  A    between atoms: C_29  and  C_30
REMARK                            x       y       z     vdW  Elec       q    Type
REMARK                         _______ _______ _______ _____ _____    ______ ____
ROOT
ATOM      1  C   UNL     1       4.510   4.601  17.635  0.00  0.00    +0.000 C 
ATOM      2  C   UNL     1       3.759   5.893  17.238  0.00  0.00    +0.000 C 
ATOM      3  C   UNL     1       3.226   6.402  18.572  0.00  0.00    +0.000 C 
ATOM      4  C   UNL     1       2.183   7.528  18.600  0.00  0.00    +0.000 C 
ATOM      5  C   UNL     1       2.690   8.769  17.849  0.00  0.00    +0.000 C 
ATOM      6  C   UNL     1       1.948  10.028  18.184  0.00  0.00    +0.000 C 
ATOM      7  C   UNL     1       1.108  10.171  19.224  0.00  0.00    +0.000 C 
ATOM      8  C   UNL     1       0.368  11.477  19.446  0.00  0.00    +0.000 C 
ATOM      9  C   UNL     1       0.481  11.979  20.894  0.00  0.00    +0.000 C 
ATOM     10  C   UNL     1       0.170  10.900  21.934  0.00  0.00    +0.000 C 
ATOM     11  C   UNL     1       0.960   9.617  21.672  0.00  0.00    +0.000 C 
ATOM     12  C   UNL     1       0.829   9.045  20.228  0.00  0.00    +0.000 C 
ATOM     13  C   UNL     1      -0.609   8.535  19.982  0.00  0.00    +0.000 C 
ATOM     14  C   UNL     1       1.881   7.877  20.085  0.00  0.00    +0.000 C 
ATOM     15  C   UNL     1       1.537   6.619  20.933  0.00  0.00    +0.000 C 
ATOM     16  C   UNL     1       2.534   5.466  20.763  0.00  0.00    +0.000 C 
ATOM     17  C   UNL     1       2.752   5.116  19.285  0.00  0.00    +0.000 C 
ATOM     18  C   UNL     1       1.462   4.506  18.684  0.00  0.00    +0.000 C 
ATOM     19  C   UNL     1       3.979   4.210  19.044  0.00  0.00    +0.000 C 
ENDROOT
BRANCH  19  20
ATOM     20  C   UNL     1       3.705   2.716  19.165  0.00  0.00    +0.000 C 
ATOM     21  C   UNL     1       3.593   1.925  17.886  0.00  0.00    +0.000 C 
ATOM     22  O   UNL     1       3.574   2.157  20.254  0.00  0.00    +0.000 OA
ENDBRANCH  19  20
BRANCH   1  23
ATOM     23  O   UNL     1       5.916   4.910  17.700  0.00  0.00    +0.000 OA
BRANCH  23  24
ATOM     24  C   UNL     1       6.229   6.164  17.090  0.00  0.00    +0.000 C 
BRANCH  24  25
ATOM     25  C   UNL     1       7.542   6.715  17.628  0.00  0.00    +0.000 C 
BRANCH  25  27
ATOM     26  C   UNL     1       8.225   8.949  17.991  0.00  0.00    +0.000 C 
ATOM     27  O   UNL     1       7.746   8.002  17.048  0.00  0.00    +0.000 OA
ENDBRANCH  25  27
ENDBRANCH  24  25
ENDBRANCH  23  24
ENDBRANCH   1  23
BRANCH   9  28
ATOM     28  O   UNL     1      -0.265  13.201  21.124  0.00  0.00    +0.000 OA
BRANCH  28  29
ATOM     29  C   UNL     1       0.071  14.014  22.161  0.00  0.00    +0.000 C 
ATOM     30  C   UNL     1      -1.053  14.085  23.153  0.00  0.00    +0.000 C 
ATOM     31  O   UNL     1       1.140  14.586  22.309  0.00  0.00    +0.000 OA
ENDBRANCH  28  29
ENDBRANCH   9  28
TORSDOF 7
ENDMDL
MODEL 2
REMARK VINA RESULT:      -7.0      1.347      1.675
REMARK  Name = 
REMARK  12 active torsions:
REMARK  status: ('A' for Active; 'I' for Inactive)
REMARK    1  A    between atoms: C_1  and  O_2
REMARK    2  A    between atoms: O_2  and  C_3
REMARK    3  A    between atoms: C_3  and  C_4
REMARK    4  A    between atoms: C_4  and  O_5
REMARK    5  A    between atoms: O_5  and  C_6
REMARK    6  A    between atoms: C_14  and  O_15
REMARK    7  A    between atoms: O_15  and  C_16
REMARK    8  A    between atoms: C_16  and  C_17
REMARK    9  A    between atoms: C_21  and  C_22
REMARK   10  A    between atoms: C_26  and  C_27
REMARK   11  A    between atoms: C_28  and  C_29
REMARK   12  A    between atoms: C_29  and  C_30
REMARK                            x       y       z     vdW  Elec       q    Type
REMARK                         _______ _______ _______ _____ _____    ______ ____
ROOT
ATOM      1  C   UNL     1       4.434   4.426  17.991  0.00  0.00    +0.000 C 
ATOM      2  C   UNL     1       3.760   5.703  17.438  0.00  0.00    +0.000 C 
ATOM      3  C   UNL     1       3.189   6.358  18.690  0.00  0.00    +0.000 C 
ATOM      4  C   UNL     1       2.196   7.523  18.561  0.00  0.00    +0.000 C 
ATOM      5  C   UNL     1       2.793   8.665  17.723  0.00  0.00    +0.000 C 
ATOM      6  C   UNL     1       2.092   9.978  17.901  0.00  0.00    +0.000 C 
ATOM      7  C   UNL     1       1.212  10.253  18.880  0.00  0.00    +0.000 C 
ATOM      8  C   UNL     1       0.522  11.603  18.942  0.00  0.00    +0.000 C 
ATOM      9  C   UNL     1       0.590  12.236  20.340  0.00  0.00    +0.000 C 
ATOM     10  C   UNL     1       0.184  11.274  21.460  0.00  0.00    +0.000 C 
ATOM     11  C   UNL     1       0.927   9.942  21.359  0.00  0.00    +0.000 C 
ATOM     12  C   UNL     1       0.839   9.240  19.970  0.00  0.00    +0.000 C 
ATOM     13  C   UNL     1      -0.609   8.767  19.701  0.00  0.00    +0.000 C 
ATOM     14  C   UNL     1       1.843   8.023  19.990  0.00  0.00    +0.000 C 
ATOM     15  C   UNL     1       1.405   6.867  20.933  0.00  0.00    +0.000 C 
ATOM     16  C   UNL     1       2.356   5.664  20.922  0.00  0.00    +0.000 C 
ATOM     17  C   UNL     1       2.627   5.166  19.496  0.00  0.00    +0.000 C 
ATOM     18  C   UNL     1       1.340   4.553  18.891  0.00  0.00    +0.000 C 
ATOM     19  C   UNL     1       3.822   4.193  19.402  0.00  0.00    +0.000 C 
ENDROOT
BRANCH  19  20
ATOM     20  C   UNL     1       3.477   2.730  19.648  0.00  0.00    +0.000 C 
ATOM     21  C   UNL     1       3.514   1.799  18.463  0.00  0.00    +0.000 C 
ATOM     22  O   UNL     1       3.175   2.303  20.763  0.00  0.00    +0.000 OA
ENDBRANCH  19  20
BRANCH   1  23
ATOM     23  O   UNL     1       5.848   4.684  18.097  0.00  0.00    +0.000 OA
BRANCH  23  24
ATOM     24  C   UNL     1       6.550   4.386  16.888  0.00  0.00    +0.000 C 
BRANCH  24  25
ATOM     25  C   UNL     1       7.040   5.662  16.217  0.00  0.00    +0.000 C 
BRANCH  25  27
ATOM     26  C   UNL     1       6.558   4.504  14.214  0.00  0.00    +0.000 C 
ATOM     27  O   UNL     1       7.489   5.322  14.907  0.00  0.00    +0.000 OA
ENDBRANCH  25  27
ENDBRANCH  24  25
ENDBRANCH  23  24
ENDBRANCH   1  23
BRANCH   9  28
ATOM     28  O   UNL     1      -0.111  13.504  20.418  0.00  0.00    +0.000 OA
BRANCH  28  29
ATOM     29  C   UNL     1       0.548  14.660  20.140  0.00  0.00    +0.000 C 
ATOM     30  C   UNL     1      -0.137  15.394  19.024  0.00  0.00    +0.000 C 
ATOM     31  O   UNL     1       1.533  15.084  20.723  0.00  0.00    +0.000 OA
ENDBRANCH  28  29
ENDBRANCH   9  28
TORSDOF 7
ENDMDL
MODEL 3
REMARK VINA RESULT:      -7.0      1.485      1.871
REMARK  Name = 
REMARK  12 active torsions:
REMARK  status: ('A' for Active; 'I' for Inactive)
REMARK    1  A    between atoms: C_1  and  O_2
REMARK    2  A    between atoms: O_2  and  C_3
REMARK    3  A    between atoms: C_3  and  C_4
REMARK    4  A    between atoms: C_4  and  O_5
REMARK    5  A    between atoms: O_5  and  C_6
REMARK    6  A    between atoms: C_14  and  O_15
REMARK    7  A    between atoms: O_15  and  C_16
REMARK    8  A    between atoms: C_16  and  C_17
REMARK    9  A    between atoms: C_21  and  C_22
REMARK   10  A    between atoms: C_26  and  C_27
REMARK   11  A    between atoms: C_28  and  C_29
REMARK   12  A    between atoms: C_29  and  C_30
REMARK                            x       y       z     vdW  Elec       q    Type
REMARK                         _______ _______ _______ _____ _____    ______ ____
ROOT
ATOM      1  C   UNL     1       4.640   5.801  17.150  0.00  0.00    +0.000 C 
ATOM      2  C   UNL     1       3.641   6.979  17.096  0.00  0.00    +0.000 C 
ATOM      3  C   UNL     1       3.153   7.080  18.536  0.00  0.00    +0.000 C 
ATOM      4  C   UNL     1       1.935   7.953  18.873  0.00  0.00    +0.000 C 
ATOM      5  C   UNL     1       2.145   9.400  18.398  0.00  0.00    +0.000 C 
ATOM      6  C   UNL     1       1.228  10.391  19.047  0.00  0.00    +0.000 C 
ATOM      7  C   UNL     1       0.476  10.145  20.135  0.00  0.00    +0.000 C 
ATOM      8  C   UNL     1      -0.457  11.207  20.686  0.00  0.00    +0.000 C 
ATOM      9  C   UNL     1      -0.300  11.401  22.202  0.00  0.00    +0.000 C 
ATOM     10  C   UNL     1      -0.318  10.086  22.985  0.00  0.00    +0.000 C 
ATOM     11  C   UNL     1       0.657   9.065  22.398  0.00  0.00    +0.000 C 
ATOM     12  C   UNL     1       0.495   8.799  20.871  0.00  0.00    +0.000 C 
ATOM     13  C   UNL     1      -0.849   8.087  20.590  0.00  0.00    +0.000 C 
ATOM     14  C   UNL     1       1.718   7.912  20.413  0.00  0.00    +0.000 C 
ATOM     15  C   UNL     1       1.680   6.461  20.969  0.00  0.00    +0.000 C 
ATOM     16  C   UNL     1       2.844   5.583  20.491  0.00  0.00    +0.000 C 
ATOM     17  C   UNL     1       2.981   5.606  18.963  0.00  0.00    +0.000 C 
ATOM     18  C   UNL     1       1.768   4.902  18.307  0.00  0.00    +0.000 C 
ATOM     19  C   UNL     1       4.320   5.025  18.459  0.00  0.00    +0.000 C 
ENDROOT
BRANCH  19  20
ATOM     20  C   UNL     1       4.326   3.515  18.252  0.00  0.00    +0.000 C 
ATOM     21  C   UNL     1       4.480   2.648  19.475  0.00  0.00    +0.000 C 
ATOM     22  O   UNL     1       4.213   3.003  17.138  0.00  0.00    +0.000 OA
ENDBRANCH  19  20
BRANCH   1  23
ATOM     23  O   UNL     1       5.970   6.354  17.210  0.00  0.00    +0.000 OA
BRANCH  23  24
ATOM     24  C   UNL     1       6.973   5.411  16.827  0.00  0.00    +0.000 C 
BRANCH  24  25
ATOM     25  C   UNL     1       6.690   4.852  15.439  0.00  0.00    +0.000 C 
BRANCH  25  27
ATOM     26  C   UNL     1       7.451   4.993  13.206  0.00  0.00    +0.000 C 
ATOM     27  O   UNL     1       7.710   5.325  14.561  0.00  0.00    +0.000 OA
ENDBRANCH  25  27
ENDBRANCH  24  25
ENDBRANCH  23  24
ENDBRANCH   1  23
BRANCH   9  28
ATOM     28  O   UNL     1      -1.224  12.380  22.742  0.00  0.00    +0.000 OA
BRANCH  28  29
ATOM     29  C   UNL     1      -0.905  13.701  22.714  0.00  0.00    +0.000 C 
ATOM     30  C   UNL     1      -2.151  14.538  22.726  0.00  0.00    +0.000 C 
ATOM     31  O   UNL     1       0.223  14.168  22.716  0.00  0.00    +0.000 OA
ENDBRANCH  28  29
ENDBRANCH   9  28
TORSDOF 7
ENDMDL
MODEL 4
REMARK VINA RESULT:      -7.0      1.134      1.485
REMARK  Name = 
REMARK  12 active torsions:
REMARK  status: ('A' for Active; 'I' for Inactive)
REMARK    1  A    between atoms: C_1  and  O_2
REMARK    2  A    between atoms: O_2  and  C_3
REMARK    3  A    between atoms: C_3  and  C_4
REMARK    4  A    between atoms: C_4  and  O_5
REMARK    5  A    between atoms: O_5  and  C_6
REMARK    6  A    between atoms: C_14  and  O_15
REMARK    7  A    between atoms: O_15  and  C_16
REMARK    8  A    between atoms: C_16  and  C_17
REMARK    9  A    between atoms: C_21  and  C_22
REMARK   10  A    between atoms: C_26  and  C_27
REMARK   11  A    between atoms: C_28  and  C_29
REMARK   12  A    between atoms: C_29  and  C_30
REMARK                            x       y       z     vdW  Elec       q    Type
REMARK                         _______ _______ _______ _____ _____    ______ ____
ROOT
ATOM      1  C   UNL     1       4.296   4.295  17.937  0.00  0.00    +0.000 C 
ATOM      2  C   UNL     1       3.632   5.594  17.426  0.00  0.00    +0.000 C 
ATOM      3  C   UNL     1       3.125   6.246  18.707  0.00  0.00    +0.000 C 
ATOM      4  C   UNL     1       2.156   7.435  18.630  0.00  0.00    +0.000 C 
ATOM      5  C   UNL     1       2.747   8.574  17.784  0.00  0.00    +0.000 C 
ATOM      6  C   UNL     1       2.085   9.900  18.005  0.00  0.00    +0.000 C 
ATOM      7  C   UNL     1       1.250  10.183  19.021  0.00  0.00    +0.000 C 
ATOM      8  C   UNL     1       0.594  11.548  19.126  0.00  0.00    +0.000 C 
ATOM      9  C   UNL     1       0.731  12.160  20.527  0.00  0.00    +0.000 C 
ATOM     10  C   UNL     1       0.346  11.194  21.651  0.00  0.00    +0.000 C 
ATOM     11  C   UNL     1       1.053   9.847  21.504  0.00  0.00    +0.000 C 
ATOM     12  C   UNL     1       0.894   9.165  20.112  0.00  0.00    +0.000 C 
ATOM     13  C   UNL     1      -0.573   8.729  19.893  0.00  0.00    +0.000 C 
ATOM     14  C   UNL     1       1.870   7.924  20.078  0.00  0.00    +0.000 C 
ATOM     15  C   UNL     1       1.441   6.767  21.023  0.00  0.00    +0.000 C 
ATOM     16  C   UNL     1       2.362   5.542  20.961  0.00  0.00    +0.000 C 
ATOM     17  C   UNL     1       2.566   5.057  19.519  0.00  0.00    +0.000 C 
ATOM     18  C   UNL     1       1.243   4.482  18.957  0.00  0.00    +0.000 C 
ATOM     19  C   UNL     1       3.734   4.058  19.367  0.00  0.00    +0.000 C 
ENDROOT
BRANCH  19  20
ATOM     20  C   UNL     1       3.364   2.600  19.609  0.00  0.00    +0.000 C 
ATOM     21  C   UNL     1       3.094   2.179  21.032  0.00  0.00    +0.000 C 
ATOM     22  O   UNL     1       3.285   1.780  18.694  0.00  0.00    +0.000 OA
ENDBRANCH  19  20
BRANCH   1  23
ATOM     23  O   UNL     1       5.719   4.519  17.991  0.00  0.00    +0.000 OA
BRANCH  23  24
ATOM     24  C   UNL     1       6.344   4.376  16.714  0.00  0.00    +0.000 C 
BRANCH  24  25
ATOM     25  C   UNL     1       7.153   5.618  16.365  0.00  0.00    +0.000 C 
BRANCH  25  27
ATOM     26  C   UNL     1       6.726   4.595  14.278  0.00  0.00    +0.000 C 
ATOM     27  O   UNL     1       7.528   5.523  14.992  0.00  0.00    +0.000 OA
ENDBRANCH  25  27
ENDBRANCH  24  25
ENDBRANCH  23  24
ENDBRANCH   1  23
BRANCH   9  28
ATOM     28  O   UNL     1       0.064  13.443  20.648  0.00  0.00    +0.000 OA
BRANCH  28  29
ATOM     29  C   UNL     1       0.210  14.178  21.782  0.00  0.00    +0.000 C 
ATOM     30  C   UNL     1      -1.130  14.443  22.407  0.00  0.00    +0.000 C 
ATOM     31  O   UNL     1       1.266  14.550  22.267  0.00  0.00    +0.000 OA
ENDBRANCH  28  29
ENDBRANCH   9  28
TORSDOF 7
ENDMDL
MODEL 5
REMARK VINA RESULT:      -6.9      1.426      1.650
REMARK  Name = 
REMARK  12 active torsions:
REMARK  status: ('A' for Active; 'I' for Inactive)
REMARK    1  A    between atoms: C_1  and  O_2
REMARK    2  A    between atoms: O_2  and  C_3
REMARK    3  A    between atoms: C_3  and  C_4
REMARK    4  A    between atoms: C_4  and  O_5
REMARK    5  A    between atoms: O_5  and  C_6
REMARK    6  A    between atoms: C_14  and  O_15
REMARK    7  A    between atoms: O_15  and  C_16
REMARK    8  A    between atoms: C_16  and  C_17
REMARK    9  A    between atoms: C_21  and  C_22
REMARK   10  A    between atoms: C_26  and  C_27
REMARK   11  A    between atoms: C_28  and  C_29
REMARK   12  A    between atoms: C_29  and  C_30
REMARK                            x       y       z     vdW  Elec       q    Type
REMARK                         _______ _______ _______ _____ _____    ______ ____
ROOT
ATOM      1  C   UNL     1       3.972   4.132  18.253  0.00  0.00    +0.000 C 
ATOM      2  C   UNL     1       3.376   5.412  17.622  0.00  0.00    +0.000 C 
ATOM      3  C   UNL     1       2.925   6.214  18.837  0.00  0.00    +0.000 C 
ATOM      4  C   UNL     1       2.025   7.445  18.651  0.00  0.00    +0.000 C 
ATOM      5  C   UNL     1       2.668   8.459  17.693  0.00  0.00    +0.000 C 
ATOM      6  C   UNL     1       2.087   9.837  17.788  0.00  0.00    +0.000 C 
ATOM      7  C   UNL     1       1.283  10.266  18.778  0.00  0.00    +0.000 C 
ATOM      8  C   UNL     1       0.709  11.670  18.753  0.00  0.00    +0.000 C 
ATOM      9  C   UNL     1       0.899  12.408  20.087  0.00  0.00    +0.000 C 
ATOM     10  C   UNL     1       0.474  11.580  21.303  0.00  0.00    +0.000 C 
ATOM     11  C   UNL     1       1.101  10.185  21.284  0.00  0.00    +0.000 C 
ATOM     12  C   UNL     1       0.885   9.382  19.966  0.00  0.00    +0.000 C 
ATOM     13  C   UNL     1      -0.608   9.013  19.803  0.00  0.00    +0.000 C 
ATOM     14  C   UNL     1       1.787   8.089  20.047  0.00  0.00    +0.000 C 
ATOM     15  C   UNL     1       1.305   7.056  21.104  0.00  0.00    +0.000 C 
ATOM     16  C   UNL     1       2.154   5.779  21.155  0.00  0.00    +0.000 C 
ATOM     17  C   UNL     1       2.310   5.145  19.766  0.00  0.00    +0.000 C 
ATOM     18  C   UNL     1       0.948   4.596  19.274  0.00  0.00    +0.000 C 
ATOM     19  C   UNL     1       3.416   4.069  19.704  0.00  0.00    +0.000 C 
ENDROOT
BRANCH  19  20
ATOM     20  C   UNL     1       2.967   2.666  20.090  0.00  0.00    +0.000 C 
ATOM     21  C   UNL     1       2.640   2.417  21.541  0.00  0.00    +0.000 C 
ATOM     22  O   UNL     1       2.870   1.755  19.267  0.00  0.00    +0.000 OA
ENDBRANCH  19  20
BRANCH   1  23
ATOM     23  O   UNL     1       5.406   4.277  18.273  0.00  0.00    +0.000 OA
BRANCH  23  24
ATOM     24  C   UNL     1       5.941   4.608  16.990  0.00  0.00    +0.000 C 
BRANCH  24  25
ATOM     25  C   UNL     1       7.421   4.951  17.093  0.00  0.00    +0.000 C 
BRANCH  25  27
ATOM     26  C   UNL     1       6.980   7.262  17.312  0.00  0.00    +0.000 C 
ATOM     27  O   UNL     1       7.607   6.252  16.537  0.00  0.00    +0.000 OA
ENDBRANCH  25  27
ENDBRANCH  24  25
ENDBRANCH  23  24
ENDBRANCH   1  23
BRANCH   9  28
ATOM     28  O   UNL     1       0.308  13.733  20.086  0.00  0.00    +0.000 OA
BRANCH  28  29
ATOM     29  C   UNL     1       0.883  14.730  19.363  0.00  0.00    +0.000 C 
ATOM     30  C   UNL     1      -0.171  15.631  18.788  0.00  0.00    +0.000 C 
ATOM     31  O   UNL     1       2.081  14.913  19.217  0.00  0.00    +0.000 OA
ENDBRANCH  28  29
ENDBRANCH   9  28
TORSDOF 7
ENDMDL
MODEL 6
REMARK VINA RESULT:      -6.9      1.438      1.733
REMARK  Name = 
REMARK  12 active torsions:
REMARK  status: ('A' for Active; 'I' for Inactive)
REMARK    1  A    between atoms: C_1  and  O_2
REMARK    2  A    between atoms: O_2  and  C_3
REMARK    3  A    between atoms: C_3  and  C_4
REMARK    4  A    between atoms: C_4  and  O_5
REMARK    5  A    between atoms: O_5  and  C_6
REMARK    6  A    between atoms: C_14  and  O_15
REMARK    7  A    between atoms: O_15  and  C_16
REMARK    8  A    between atoms: C_16  and  C_17
REMARK    9  A    between atoms: C_21  and  C_22
REMARK   10  A    between atoms: C_26  and  C_27
REMARK   11  A    between atoms: C_28  and  C_29
REMARK   12  A    between atoms: C_29  and  C_30
REMARK                            x       y       z     vdW  Elec       q    Type
REMARK                         _______ _______ _______ _____ _____    ______ ____
ROOT
ATOM      1  C   UNL     1       4.515   6.143  17.047  0.00  0.00    +0.000 C 
ATOM      2  C   UNL     1       3.477   7.289  17.005  0.00  0.00    +0.000 C 
ATOM      3  C   UNL     1       3.030   7.398  18.458  0.00  0.00    +0.000 C 
ATOM      4  C   UNL     1       1.795   8.238  18.818  0.00  0.00    +0.000 C 
ATOM      5  C   UNL     1       1.945   9.682  18.314  0.00  0.00    +0.000 C 
ATOM      6  C   UNL     1       1.016  10.655  18.975  0.00  0.00    +0.000 C 
ATOM      7  C   UNL     1       0.305  10.403  20.089  0.00  0.00    +0.000 C 
ATOM      8  C   UNL     1      -0.645  11.445  20.652  0.00  0.00    +0.000 C 
ATOM      9  C   UNL     1      -0.449  11.668  22.159  0.00  0.00    +0.000 C 
ATOM     10  C   UNL     1      -0.402  10.365  22.962  0.00  0.00    +0.000 C 
ATOM     11  C   UNL     1       0.587   9.366  22.362  0.00  0.00    +0.000 C 
ATOM     12  C   UNL     1       0.388   9.071  20.845  0.00  0.00    +0.000 C 
ATOM     13  C   UNL     1      -0.940   8.313  20.615  0.00  0.00    +0.000 C 
ATOM     14  C   UNL     1       1.624   8.215  20.363  0.00  0.00    +0.000 C 
ATOM     15  C   UNL     1       1.649   6.773  20.943  0.00  0.00    +0.000 C 
ATOM     16  C   UNL     1       2.826   5.924  20.444  0.00  0.00    +0.000 C 
ATOM     17  C   UNL     1       2.917   5.926  18.911  0.00  0.00    +0.000 C 
ATOM     18  C   UNL     1       1.708   5.174  18.303  0.00  0.00    +0.000 C 
ATOM     19  C   UNL     1       4.259   5.379  18.376  0.00  0.00    +0.000 C 
ENDROOT
BRANCH  19  20
ATOM     20  C   UNL     1       4.306   3.867  18.193  0.00  0.00    +0.000 C 
ATOM     21  C   UNL     1       4.288   3.339  16.781  0.00  0.00    +0.000 C 
ATOM     22  O   UNL     1       4.354   3.089  19.146  0.00  0.00    +0.000 OA
ENDBRANCH  19  20
BRANCH   1  23
ATOM     23  O   UNL     1       5.828   6.738  17.058  0.00  0.00    +0.000 OA
BRANCH  23  24
ATOM     24  C   UNL     1       6.692   6.139  18.026  0.00  0.00    +0.000 C 
BRANCH  24  25
ATOM     25  C   UNL     1       7.934   6.992  18.246  0.00  0.00    +0.000 C 
BRANCH  25  27
ATOM     26  C   UNL     1       8.325   9.314  18.038  0.00  0.00    +0.000 C 
ATOM     27  O   UNL     1       7.826   8.143  17.409  0.00  0.00    +0.000 OA
ENDBRANCH  25  27
ENDBRANCH  24  25
ENDBRANCH  23  24
ENDBRANCH   1  23
BRANCH   9  28
ATOM     28  O   UNL     1      -1.388  12.626  22.712  0.00  0.00    +0.000 OA
BRANCH  28  29
ATOM     29  C   UNL     1      -2.697  12.286  22.853  0.00  0.00    +0.000 C 
ATOM     30  C   UNL     1      -3.523  12.947  21.788  0.00  0.00    +0.000 C 
ATOM     31  O   UNL     1      -3.156  11.527  23.690  0.00  0.00    +0.000 OA
ENDBRANCH  28  29
ENDBRANCH   9  28
TORSDOF 7
ENDMDL
MODEL 7
REMARK VINA RESULT:      -6.8      0.871      1.013
REMARK  Name = 
REMARK  12 active torsions:
REMARK  status: ('A' for Active; 'I' for Inactive)
REMARK    1  A    between atoms: C_1  and  O_2
REMARK    2  A    between atoms: O_2  and  C_3
REMARK    3  A    between atoms: C_3  and  C_4
REMARK    4  A    between atoms: C_4  and  O_5
REMARK    5  A    between atoms: O_5  and  C_6
REMARK    6  A    between atoms: C_14  and  O_15
REMARK    7  A    between atoms: O_15  and  C_16
REMARK    8  A    between atoms: C_16  and  C_17
REMARK    9  A    between atoms: C_21  and  C_22
REMARK   10  A    between atoms: C_26  and  C_27
REMARK   11  A    between atoms: C_28  and  C_29
REMARK   12  A    between atoms: C_29  and  C_30
REMARK                            x       y       z     vdW  Elec       q    Type
REMARK                         _______ _______ _______ _____ _____    ______ ____
ROOT
ATOM      1  C   UNL     1       4.574   4.968  17.350  0.00  0.00    +0.000 C 
ATOM      2  C   UNL     1       3.735   6.228  17.034  0.00  0.00    +0.000 C 
ATOM      3  C   UNL     1       3.229   6.654  18.407  0.00  0.00    +0.000 C 
ATOM      4  C   UNL     1       2.125   7.716  18.521  0.00  0.00    +0.000 C 
ATOM      5  C   UNL     1       2.530   9.012  17.802  0.00  0.00    +0.000 C 
ATOM      6  C   UNL     1       1.732  10.212  18.215  0.00  0.00    +0.000 C 
ATOM      7  C   UNL     1       0.928  10.266  19.292  0.00  0.00    +0.000 C 
ATOM      8  C   UNL     1       0.125  11.517  19.596  0.00  0.00    +0.000 C 
ATOM      9  C   UNL     1       0.268  11.969  21.057  0.00  0.00    +0.000 C 
ATOM     10  C   UNL     1       0.062  10.835  22.064  0.00  0.00    +0.000 C 
ATOM     11  C   UNL     1       0.912   9.611  21.720  0.00  0.00    +0.000 C 
ATOM     12  C   UNL     1       0.756   9.088  20.260  0.00  0.00    +0.000 C 
ATOM     13  C   UNL     1      -0.661   8.505  20.049  0.00  0.00    +0.000 C 
ATOM     14  C   UNL     1       1.865   7.989  20.030  0.00  0.00    +0.000 C 
ATOM     15  C   UNL     1       1.628   6.683  20.838  0.00  0.00    +0.000 C 
ATOM     16  C   UNL     1       2.681   5.596  20.584  0.00  0.00    +0.000 C 
ATOM     17  C   UNL     1       2.858   5.317  19.085  0.00  0.00    +0.000 C 
ATOM     18  C   UNL     1       1.581   4.656  18.511  0.00  0.00    +0.000 C 
ATOM     19  C   UNL     1       4.124   4.494  18.761  0.00  0.00    +0.000 C 
ENDROOT
BRANCH  19  20
ATOM     20  C   UNL     1       3.940   2.983  18.832  0.00  0.00    +0.000 C 
ATOM     21  C   UNL     1       4.108   2.326  20.178  0.00  0.00    +0.000 C 
ATOM     22  O   UNL     1       3.668   2.305  17.840  0.00  0.00    +0.000 OA
ENDBRANCH  19  20
BRANCH   1  23
ATOM     23  O   UNL     1       5.961   5.357  17.373  0.00  0.00    +0.000 OA
BRANCH  23  24
ATOM     24  C   UNL     1       6.527   5.291  18.683  0.00  0.00    +0.000 C 
BRANCH  24  25
ATOM     25  C   UNL     1       7.724   6.223  18.804  0.00  0.00    +0.000 C 
BRANCH  25  27
ATOM     26  C   UNL     1       7.877   8.336  17.756  0.00  0.00    +0.000 C 
ATOM     27  O   UNL     1       7.855   6.929  17.571  0.00  0.00    +0.000 OA
ENDBRANCH  25  27
ENDBRANCH  24  25
ENDBRANCH  23  24
ENDBRANCH   1  23
BRANCH   9  28
ATOM     28  O   UNL     1      -0.536  13.136  21.365  0.00  0.00    +0.000 OA
BRANCH  28  29
ATOM     29  C   UNL     1      -0.158  13.973  22.368  0.00  0.00    +0.000 C 
ATOM     30  C   UNL     1       0.936  14.888  21.899  0.00  0.00    +0.000 C 
ATOM     31  O   UNL     1      -0.646  14.021  23.486  0.00  0.00    +0.000 OA
ENDBRANCH  28  29
ENDBRANCH   9  28
TORSDOF 7
ENDMDL
MODEL 8
REMARK VINA RESULT:      -6.8      1.449      1.909
REMARK  Name = 
REMARK  12 active torsions:
REMARK  status: ('A' for Active; 'I' for Inactive)
REMARK    1  A    between atoms: C_1  and  O_2
REMARK    2  A    between atoms: O_2  and  C_3
REMARK    3  A    between atoms: C_3  and  C_4
REMARK    4  A    between atoms: C_4  and  O_5
REMARK    5  A    between atoms: O_5  and  C_6
REMARK    6  A    between atoms: C_14  and  O_15
REMARK    7  A    between atoms: O_15  and  C_16
REMARK    8  A    between atoms: C_16  and  C_17
REMARK    9  A    between atoms: C_21  and  C_22
REMARK   10  A    between atoms: C_26  and  C_27
REMARK   11  A    between atoms: C_28  and  C_29
REMARK   12  A    between atoms: C_29  and  C_30
REMARK                            x       y       z     vdW  Elec       q    Type
REMARK                         _______ _______ _______ _____ _____    ______ ____
ROOT
ATOM      1  C   UNL     1       4.645   5.839  17.343  0.00  0.00    +0.000 C 
ATOM      2  C   UNL     1       3.694   7.044  17.153  0.00  0.00    +0.000 C 
ATOM      3  C   UNL     1       3.129   7.257  18.552  0.00  0.00    +0.000 C 
ATOM      4  C   UNL     1       1.928   8.191  18.759  0.00  0.00    +0.000 C 
ATOM      5  C   UNL     1       2.218   9.594  18.204  0.00  0.00    +0.000 C 
ATOM      6  C   UNL     1       1.303  10.657  18.732  0.00  0.00    +0.000 C 
ATOM      7  C   UNL     1       0.481  10.510  19.787  0.00  0.00    +0.000 C 
ATOM      8  C   UNL     1      -0.442  11.637  20.211  0.00  0.00    +0.000 C 
ATOM      9  C   UNL     1      -0.364  11.926  21.718  0.00  0.00    +0.000 C 
ATOM     10  C   UNL     1      -0.477  10.667  22.582  0.00  0.00    +0.000 C 
ATOM     11  C   UNL     1       0.491   9.577  22.121  0.00  0.00    +0.000 C 
ATOM     12  C   UNL     1       0.408   9.216  20.608  0.00  0.00    +0.000 C 
ATOM     13  C   UNL     1      -0.943   8.532  20.294  0.00  0.00    +0.000 C 
ATOM     14  C   UNL     1       1.620   8.260  20.281  0.00  0.00    +0.000 C 
ATOM     15  C   UNL     1       1.497   6.851  20.927  0.00  0.00    +0.000 C 
ATOM     16  C   UNL     1       2.652   5.905  20.578  0.00  0.00    +0.000 C 
ATOM     17  C   UNL     1       2.878   5.821  19.062  0.00  0.00    +0.000 C 
ATOM     18  C   UNL     1       1.679   5.116  18.382  0.00  0.00    +0.000 C 
ATOM     19  C   UNL     1       4.221   5.163  18.677  0.00  0.00    +0.000 C 
ENDROOT
BRANCH  19  20
ATOM     20  C   UNL     1       4.182   3.643  18.569  0.00  0.00    +0.000 C 
ATOM     21  C   UNL     1       4.029   3.049  17.192  0.00  0.00    +0.000 C 
ATOM     22  O   UNL     1       4.267   2.911  19.555  0.00  0.00    +0.000 OA
ENDBRANCH  19  20
BRANCH   1  23
ATOM     23  O   UNL     1       5.989   6.349  17.446  0.00  0.00    +0.000 OA
BRANCH  23  24
ATOM     24  C   UNL     1       6.930   5.341  17.821  0.00  0.00    +0.000 C 
BRANCH  24  25
ATOM     25  C   UNL     1       7.368   4.532  16.608  0.00  0.00    +0.000 C 
BRANCH  25  27
ATOM     26  C   UNL     1       6.876   4.871  14.321  0.00  0.00    +0.000 C 
ATOM     27  O   UNL     1       7.452   5.422  15.496  0.00  0.00    +0.000 OA
ENDBRANCH  25  27
ENDBRANCH  24  25
ENDBRANCH  23  24
ENDBRANCH   1  23
BRANCH   9  28
ATOM     28  O   UNL     1      -1.281  12.969  22.137  0.00  0.00    +0.000 OA
BRANCH  28  29
ATOM     29  C   UNL     1      -2.612  12.704  22.229  0.00  0.00    +0.000 C 
ATOM     30  C   UNL     1      -3.057  12.763  23.662  0.00  0.00    +0.000 C 
ATOM     31  O   UNL     1      -3.367  12.485  21.296  0.00  0.00    +0.000 OA
ENDBRANCH  28  29
ENDBRANCH   9  28
TORSDOF 7
ENDMDL
MODEL 9
REMARK VINA RESULT:      -6.8      1.464      1.822
REMARK  Name = 
REMARK  12 active torsions:
REMARK  status: ('A' for Active; 'I' for Inactive)
REMARK    1  A    between atoms: C_1  and  O_2
REMARK    2  A    between atoms: O_2  and  C_3
REMARK    3  A    between atoms: C_3  and  C_4
REMARK    4  A    between atoms: C_4  and  O_5
REMARK    5  A    between atoms: O_5  and  C_6
REMARK    6  A    between atoms: C_14  and  O_15
REMARK    7  A    between atoms: O_15  and  C_16
REMARK    8  A    between atoms: C_16  and  C_17
REMARK    9  A    between atoms: C_21  and  C_22
REMARK   10  A    between atoms: C_26  and  C_27
REMARK   11  A    between atoms: C_28  and  C_29
REMARK   12  A    between atoms: C_29  and  C_30
REMARK                            x       y       z     vdW  Elec       q    Type
REMARK                         _______ _______ _______ _____ _____    ______ ____
ROOT
ATOM      1  C   UNL     1       4.455   6.437  16.730  0.00  0.00    +0.000 C 
ATOM      2  C   UNL     1       3.330   7.494  16.807  0.00  0.00    +0.000 C 
ATOM      3  C   UNL     1       2.982   7.516  18.291  0.00  0.00    +0.000 C 
ATOM      4  C   UNL     1       1.714   8.239  18.770  0.00  0.00    +0.000 C 
ATOM      5  C   UNL     1       1.712   9.707  18.316  0.00  0.00    +0.000 C 
ATOM      6  C   UNL     1       0.760  10.577  19.080  0.00  0.00    +0.000 C 
ATOM      7  C   UNL     1       0.154  10.229  20.229  0.00  0.00    +0.000 C 
ATOM      8  C   UNL     1      -0.831  11.169  20.898  0.00  0.00    +0.000 C 
ATOM      9  C   UNL     1      -0.544  11.355  22.396  0.00  0.00    +0.000 C 
ATOM     10  C   UNL     1      -0.336  10.034  23.141  0.00  0.00    +0.000 C 
ATOM     11  C   UNL     1       0.682   9.140  22.433  0.00  0.00    +0.000 C 
ATOM     12  C   UNL     1       0.398   8.883  20.922  0.00  0.00    +0.000 C 
ATOM     13  C   UNL     1      -0.879   8.027  20.756  0.00  0.00    +0.000 C 
ATOM     14  C   UNL     1       1.659   8.148  20.322  0.00  0.00    +0.000 C 
ATOM     15  C   UNL     1       1.840   6.694  20.839  0.00  0.00    +0.000 C 
ATOM     16  C   UNL     1       3.041   5.962  20.225  0.00  0.00    +0.000 C 
ATOM     17  C   UNL     1       3.020   6.025  18.691  0.00  0.00    +0.000 C 
ATOM     18  C   UNL     1       1.833   5.198  18.139  0.00  0.00    +0.000 C 
ATOM     19  C   UNL     1       4.358   5.608  18.042  0.00  0.00    +0.000 C 
ENDROOT
BRANCH  19  20
ATOM     20  C   UNL     1       4.511   4.113  17.795  0.00  0.00    +0.000 C 
ATOM     21  C   UNL     1       4.670   3.222  19.001  0.00  0.00    +0.000 C 
ATOM     22  O   UNL     1       4.510   3.629  16.662  0.00  0.00    +0.000 OA
ENDBRANCH  19  20
BRANCH   1  23
ATOM     23  O   UNL     1       5.714   7.136  16.674  0.00  0.00    +0.000 OA
BRANCH  23  24
ATOM     24  C   UNL     1       6.771   6.414  17.309  0.00  0.00    +0.000 C 
BRANCH  24  25
ATOM     25  C   UNL     1       7.814   7.366  17.877  0.00  0.00    +0.000 C 
BRANCH  25  27
ATOM     26  C   UNL     1       7.619   5.636  19.475  0.00  0.00    +0.000 C 
ATOM     27  O   UNL     1       8.370   6.760  19.043  0.00  0.00    +0.000 OA
ENDBRANCH  25  27
ENDBRANCH  24  25
ENDBRANCH  23  24
ENDBRANCH   1  23
BRANCH   9  28
ATOM     28  O   UNL     1      -1.513  12.213  23.051  0.00  0.00    +0.000 OA
BRANCH  28  29
ATOM     29  C   UNL     1      -1.288  13.552  23.130  0.00  0.00    +0.000 C 
ATOM     30  C   UNL     1      -2.042  14.271  22.049  0.00  0.00    +0.000 C 
ATOM     31  O   UNL     1      -0.607  14.118  23.970  0.00  0.00    +0.000 OA
ENDBRANCH  28  29
ENDBRANCH   9  28
TORSDOF 7
ENDMDL
