MODEL 1
REMARK VINA RESULT:      -8.3      0.000      0.000
REMARK  Name = 
REMARK  6 active torsions:
REMARK  status: ('A' for Active; 'I' for Inactive)
REMARK    1  A    between atoms: C_1  and  C_2
REMARK    2  A    between atoms: C_2  and  O_3
REMARK    3  A    between atoms: O_3  and  C_4
REMARK    4  A    between atoms: C_4  and  C_6
REMARK    5  A    between atoms: C_7  and  N_8
REMARK    6  A    between atoms: N_9  and  C_10
REMARK                            x       y       z     vdW  Elec       q    Type
REMARK                         _______ _______ _______ _____ _____    ______ ____
ROOT
ATOM      1  C   UNL     1       6.453   6.469  17.673  0.00  0.00    +0.000 A 
ATOM      2  C   UNL     1       7.291   5.339  17.445  0.00  0.00    +0.000 A 
ATOM      3  N   UNL     1       6.509   4.656  16.529  0.00  0.00    +0.000 N 
ATOM      4  C   UNL     1       5.354   4.523  17.226  0.00  0.00    +0.000 A 
ATOM      5  N   UNL     1       4.591   3.432  17.172  0.00  0.00    +0.000 NA
ATOM      6  C   UNL     1       3.511   3.527  17.892  0.00  0.00    +0.000 A 
ATOM      7  C   UNL     1       2.769   2.354  17.914  0.00  0.00    +0.000 A 
ATOM      8  C   UNL     1       1.603   2.259  18.633  0.00  0.00    +0.000 A 
ATOM      9  C   UNL     1       1.181   3.388  19.316  0.00  0.00    +0.000 A 
ATOM     10  C   UNL     1       1.946   4.594  19.278  0.00  0.00    +0.000 A 
ATOM     11  C   UNL     1       3.161   4.724  18.580  0.00  0.00    +0.000 A 
ATOM     12  N   UNL     1       3.969   5.887  18.567  0.00  0.00    +0.000 NA
ATOM     13  C   UNL     1       5.182   5.739  17.917  0.00  0.00    +0.000 A 
ENDROOT
BRANCH   3  14
ATOM     14  C   UNL     1       6.607   4.531  15.121  0.00  0.00    +0.000 A 
ATOM     15  C   UNL     1       5.778   3.661  14.423  0.00  0.00    +0.000 A 
ATOM     16  C   UNL     1       5.951   3.533  13.044  0.00  0.00    +0.000 A 
ATOM     17  C   UNL     1       6.948   4.249  12.381  0.00  0.00    +0.000 A 
ATOM     18  F   UNL     1       7.119   4.084  11.062  0.00  0.00    +0.000 F 
ATOM     19  C   UNL     1       7.798   5.095  13.072  0.00  0.00    +0.000 A 
ATOM     20  C   UNL     1       7.621   5.247  14.442  0.00  0.00    +0.000 A 
ENDBRANCH   3  14
BRANCH   2  21
ATOM     21  N   UNL     1       7.952   4.682  18.468  0.00  0.00    +0.000 N 
ATOM     22  H   UNL     1       8.126   3.692  18.277  0.00  0.00    +0.000 HD
ATOM     23  H   UNL     1       8.889   5.062  18.657  0.00  0.00    +0.000 HD
ENDBRANCH   2  21
BRANCH   1  24
ATOM     24  C   UNL     1       7.240   7.710  17.628  0.00  0.00    +0.000 C 
ATOM     25  O   UNL     1       6.940   8.565  16.787  0.00  0.00    +0.000 OA
BRANCH  24  26
ATOM     26  O   UNL     1       8.259   7.965  18.503  0.00  0.00    +0.000 OA
BRANCH  26  28
ATOM     27  C   UNL     1       9.245  10.019  19.657  0.00  0.00    +0.000 C 
ATOM     28  C   UNL     1       8.776   9.332  18.364  0.00  0.00    +0.000 C 
ENDBRANCH  26  28
ENDBRANCH  24  26
ENDBRANCH   1  24
TORSDOF 5
ENDMDL
MODEL 2
REMARK VINA RESULT:      -8.1      3.916      6.151
REMARK  Name = 
REMARK  6 active torsions:
REMARK  status: ('A' for Active; 'I' for Inactive)
REMARK    1  A    between atoms: C_1  and  C_2
REMARK    2  A    between atoms: C_2  and  O_3
REMARK    3  A    between atoms: O_3  and  C_4
REMARK    4  A    between atoms: C_4  and  C_6
REMARK    5  A    between atoms: C_7  and  N_8
REMARK    6  A    between atoms: N_9  and  C_10
REMARK                            x       y       z     vdW  Elec       q    Type
REMARK                         _______ _______ _______ _____ _____    ______ ____
ROOT
ATOM      1  C   UNL     1       2.147   4.553  20.213  0.00  0.00    +0.000 A 
ATOM      2  C   UNL     1       2.087   4.241  18.823  0.00  0.00    +0.000 A 
ATOM      3  N   UNL     1       3.001   5.164  18.343  0.00  0.00    +0.000 N 
ATOM      4  C   UNL     1       2.469   6.320  18.809  0.00  0.00    +0.000 A 
ATOM      5  N   UNL     1       2.478   7.459  18.117  0.00  0.00    +0.000 NA
ATOM      6  C   UNL     1       1.945   8.454  18.764  0.00  0.00    +0.000 A 
ATOM      7  C   UNL     1       1.865   9.613  18.005  0.00  0.00    +0.000 A 
ATOM      8  C   UNL     1       1.318  10.765  18.514  0.00  0.00    +0.000 A 
ATOM      9  C   UNL     1       0.872  10.734  19.825  0.00  0.00    +0.000 A 
ATOM     10  C   UNL     1       0.968   9.539  20.602  0.00  0.00    +0.000 A 
ATOM     11  C   UNL     1       1.492   8.330  20.109  0.00  0.00    +0.000 A 
ATOM     12  N   UNL     1       1.552   7.115  20.835  0.00  0.00    +0.000 NA
ATOM     13  C   UNL     1       1.990   6.026  20.101  0.00  0.00    +0.000 A 
ENDROOT
BRANCH   3  14
ATOM     14  C   UNL     1       4.348   5.020  17.925  0.00  0.00    +0.000 A 
ATOM     15  C   UNL     1       4.653   4.515  16.667  0.00  0.00    +0.000 A 
ATOM     16  C   UNL     1       5.995   4.342  16.322  0.00  0.00    +0.000 A 
ATOM     17  C   UNL     1       7.010   4.650  17.230  0.00  0.00    +0.000 A 
ATOM     18  F   UNL     1       8.289   4.443  16.892  0.00  0.00    +0.000 F 
ATOM     19  C   UNL     1       6.714   5.126  18.496  0.00  0.00    +0.000 A 
ATOM     20  C   UNL     1       5.382   5.323  18.842  0.00  0.00    +0.000 A 
ENDBRANCH   3  14
BRANCH   2  21
ATOM     21  N   UNL     1       0.896   3.990  18.165  0.00  0.00    +0.000 N 
ATOM     22  H   UNL     1       0.766   3.007  17.909  0.00  0.00    +0.000 HD
ATOM     23  H   UNL     1       0.065   4.207  18.731  0.00  0.00    +0.000 HD
ENDBRANCH   2  21
BRANCH   1  24
ATOM     24  C   UNL     1       2.252   3.323  21.011  0.00  0.00    +0.000 C 
ATOM     25  O   UNL     1       2.161   3.412  22.240  0.00  0.00    +0.000 OA
BRANCH  24  26
ATOM     26  O   UNL     1       2.406   2.089  20.442  0.00  0.00    +0.000 OA
BRANCH  26  28
ATOM     27  C   UNL     1       3.856   1.302  18.493  0.00  0.00    +0.000 C 
ATOM     28  C   UNL     1       3.760   1.892  19.909  0.00  0.00    +0.000 C 
ENDBRANCH  26  28
ENDBRANCH  24  26
ENDBRANCH   1  24
TORSDOF 5
ENDMDL
MODEL 3
REMARK VINA RESULT:      -7.9      3.796      5.963
REMARK  Name = 
REMARK  6 active torsions:
REMARK  status: ('A' for Active; 'I' for Inactive)
REMARK    1  A    between atoms: C_1  and  C_2
REMARK    2  A    between atoms: C_2  and  O_3
REMARK    3  A    between atoms: O_3  and  C_4
REMARK    4  A    between atoms: C_4  and  C_6
REMARK    5  A    between atoms: C_7  and  N_8
REMARK    6  A    between atoms: N_9  and  C_10
REMARK                            x       y       z     vdW  Elec       q    Type
REMARK                         _______ _______ _______ _____ _____    ______ ____
ROOT
ATOM      1  C   UNL     1       2.267   4.266  20.135  0.00  0.00    +0.000 A 
ATOM      2  C   UNL     1       2.098   3.981  18.749  0.00  0.00    +0.000 A 
ATOM      3  N   UNL     1       2.965   4.919  18.216  0.00  0.00    +0.000 N 
ATOM      4  C   UNL     1       2.466   6.063  18.745  0.00  0.00    +0.000 A 
ATOM      5  N   UNL     1       2.412   7.214  18.078  0.00  0.00    +0.000 NA
ATOM      6  C   UNL     1       1.927   8.193  18.784  0.00  0.00    +0.000 A 
ATOM      7  C   UNL     1       1.780   9.366  18.057  0.00  0.00    +0.000 A 
ATOM      8  C   UNL     1       1.268  10.504  18.631  0.00  0.00    +0.000 A 
ATOM      9  C   UNL     1       0.929  10.444  19.972  0.00  0.00    +0.000 A 
ATOM     10  C   UNL     1       1.094   9.235  20.715  0.00  0.00    +0.000 A 
ATOM     11  C   UNL     1       1.584   8.039  20.158  0.00  0.00    +0.000 A 
ATOM     12  N   UNL     1       1.709   6.812  20.853  0.00  0.00    +0.000 NA
ATOM     13  C   UNL     1       2.093   5.740  20.066  0.00  0.00    +0.000 A 
ENDROOT
BRANCH   3  14
ATOM     14  C   UNL     1       4.275   4.793  17.689  0.00  0.00    +0.000 A 
ATOM     15  C   UNL     1       5.358   5.395  18.318  0.00  0.00    +0.000 A 
ATOM     16  C   UNL     1       6.620   5.287  17.730  0.00  0.00    +0.000 A 
ATOM     17  C   UNL     1       6.788   4.605  16.524  0.00  0.00    +0.000 A 
ATOM     18  F   UNL     1       8.001   4.543  15.960  0.00  0.00    +0.000 F 
ATOM     19  C   UNL     1       5.710   4.027  15.875  0.00  0.00    +0.000 A 
ATOM     20  C   UNL     1       4.453   4.110  16.463  0.00  0.00    +0.000 A 
ENDBRANCH   3  14
BRANCH   2  21
ATOM     21  N   UNL     1       0.860   3.733  18.184  0.00  0.00    +0.000 N 
ATOM     22  H   UNL     1       0.737   2.768  17.866  0.00  0.00    +0.000 HD
ATOM     23  H   UNL     1       0.078   3.876  18.837  0.00  0.00    +0.000 HD
ENDBRANCH   2  21
BRANCH   1  24
ATOM     24  C   UNL     1       2.443   3.022  20.898  0.00  0.00    +0.000 C 
ATOM     25  O   UNL     1       1.437   2.364  21.187  0.00  0.00    +0.000 OA
BRANCH  24  26
ATOM     26  O   UNL     1       3.674   2.552  21.262  0.00  0.00    +0.000 OA
BRANCH  26  28
ATOM     27  C   UNL     1       3.935   1.196  19.115  0.00  0.00    +0.000 C 
ATOM     28  C   UNL     1       4.508   2.229  20.098  0.00  0.00    +0.000 C 
ENDBRANCH  26  28
ENDBRANCH  24  26
ENDBRANCH   1  24
TORSDOF 5
ENDMDL
MODEL 4
REMARK VINA RESULT:      -7.8      2.504      5.519
REMARK  Name = 
REMARK  6 active torsions:
REMARK  status: ('A' for Active; 'I' for Inactive)
REMARK    1  A    between atoms: C_1  and  C_2
REMARK    2  A    between atoms: C_2  and  O_3
REMARK    3  A    between atoms: O_3  and  C_4
REMARK    4  A    between atoms: C_4  and  C_6
REMARK    5  A    between atoms: C_7  and  N_8
REMARK    6  A    between atoms: N_9  and  C_10
REMARK                            x       y       z     vdW  Elec       q    Type
REMARK                         _______ _______ _______ _____ _____    ______ ____
ROOT
ATOM      1  C   UNL     1       6.521   5.669  17.489  0.00  0.00    +0.000 A 
ATOM      2  C   UNL     1       5.184   6.161  17.449  0.00  0.00    +0.000 A 
ATOM      3  N   UNL     1       4.532   5.013  17.030  0.00  0.00    +0.000 N 
ATOM      4  C   UNL     1       5.198   4.743  15.880  0.00  0.00    +0.000 A 
ATOM      5  N   UNL     1       4.603   4.268  14.787  0.00  0.00    +0.000 NA
ATOM      6  C   UNL     1       5.432   4.049  13.808  0.00  0.00    +0.000 A 
ATOM      7  C   UNL     1       4.798   3.650  12.640  0.00  0.00    +0.000 A 
ATOM      8  C   UNL     1       5.509   3.386  11.495  0.00  0.00    +0.000 A 
ATOM      9  C   UNL     1       6.887   3.510  11.557  0.00  0.00    +0.000 A 
ATOM     10  C   UNL     1       7.531   3.911  12.768  0.00  0.00    +0.000 A 
ATOM     11  C   UNL     1       6.839   4.221  13.953  0.00  0.00    +0.000 A 
ATOM     12  N   UNL     1       7.443   4.673  15.152  0.00  0.00    +0.000 NA
ATOM     13  C   UNL     1       6.550   5.037  16.145  0.00  0.00    +0.000 A 
ENDROOT
BRANCH   3  14
ATOM     14  C   UNL     1       3.755   4.064  17.740  0.00  0.00    +0.000 A 
ATOM     15  C   UNL     1       4.252   2.796  18.012  0.00  0.00    +0.000 A 
ATOM     16  C   UNL     1       3.427   1.878  18.667  0.00  0.00    +0.000 A 
ATOM     17  C   UNL     1       2.123   2.222  19.024  0.00  0.00    +0.000 A 
ATOM     18  F   UNL     1       1.337   1.316  19.620  0.00  0.00    +0.000 F 
ATOM     19  C   UNL     1       1.609   3.473  18.731  0.00  0.00    +0.000 A 
ATOM     20  C   UNL     1       2.429   4.401  18.099  0.00  0.00    +0.000 A 
ENDBRANCH   3  14
BRANCH   2  21
ATOM     21  N   UNL     1       4.861   7.405  16.939  0.00  0.00    +0.000 N 
ATOM     22  H   UNL     1       3.906   7.705  17.154  0.00  0.00    +0.000 HD
ATOM     23  H   UNL     1       5.445   8.164  17.316  0.00  0.00    +0.000 HD
ENDBRANCH   2  21
BRANCH   1  24
ATOM     24  C   UNL     1       7.181   6.078  18.737  0.00  0.00    +0.000 C 
ATOM     25  O   UNL     1       6.786   5.584  19.799  0.00  0.00    +0.000 OA
BRANCH  24  26
ATOM     26  O   UNL     1       8.235   6.949  18.759  0.00  0.00    +0.000 OA
BRANCH  26  28
ATOM     27  C   UNL     1       8.518   9.449  18.325  0.00  0.00    +0.000 C 
ATOM     28  C   UNL     1       8.041   8.073  17.834  0.00  0.00    +0.000 C 
ENDBRANCH  26  28
ENDBRANCH  24  26
ENDBRANCH   1  24
TORSDOF 5
ENDMDL
MODEL 5
REMARK VINA RESULT:      -7.8      3.302      5.409
REMARK  Name = 
REMARK  6 active torsions:
REMARK  status: ('A' for Active; 'I' for Inactive)
REMARK    1  A    between atoms: C_1  and  C_2
REMARK    2  A    between atoms: C_2  and  O_3
REMARK    3  A    between atoms: O_3  and  C_4
REMARK    4  A    between atoms: C_4  and  C_6
REMARK    5  A    between atoms: C_7  and  N_8
REMARK    6  A    between atoms: N_9  and  C_10
REMARK                            x       y       z     vdW  Elec       q    Type
REMARK                         _______ _______ _______ _____ _____    ______ ____
ROOT
ATOM      1  C   UNL     1       3.461   3.906  19.530  0.00  0.00    +0.000 A 
ATOM      2  C   UNL     1       3.069   3.566  18.203  0.00  0.00    +0.000 A 
ATOM      3  N   UNL     1       3.618   4.639  17.521  0.00  0.00    +0.000 N 
ATOM      4  C   UNL     1       3.032   5.679  18.162  0.00  0.00    +0.000 A 
ATOM      5  N   UNL     1       2.629   6.786  17.541  0.00  0.00    +0.000 NA
ATOM      6  C   UNL     1       2.123   7.672  18.349  0.00  0.00    +0.000 A 
ATOM      7  C   UNL     1       1.613   8.781  17.689  0.00  0.00    +0.000 A 
ATOM      8  C   UNL     1       1.026   9.815  18.376  0.00  0.00    +0.000 A 
ATOM      9  C   UNL     1       0.985   9.720  19.757  0.00  0.00    +0.000 A 
ATOM     10  C   UNL     1       1.522   8.580  20.429  0.00  0.00    +0.000 A 
ATOM     11  C   UNL     1       2.102   7.485  19.762  0.00  0.00    +0.000 A 
ATOM     12  N   UNL     1       2.595   6.317  20.393  0.00  0.00    +0.000 NA
ATOM     13  C   UNL     1       3.004   5.320  19.525  0.00  0.00    +0.000 A 
ENDROOT
BRANCH   3  14
ATOM     14  C   UNL     1       4.792   4.749  16.735  0.00  0.00    +0.000 A 
ATOM     15  C   UNL     1       5.966   5.260  17.275  0.00  0.00    +0.000 A 
ATOM     16  C   UNL     1       7.080   5.399  16.446  0.00  0.00    +0.000 A 
ATOM     17  C   UNL     1       7.012   5.050  15.096  0.00  0.00    +0.000 A 
ATOM     18  F   UNL     1       8.083   5.224  14.310  0.00  0.00    +0.000 F 
ATOM     19  C   UNL     1       5.839   4.567  14.543  0.00  0.00    +0.000 A 
ATOM     20  C   UNL     1       4.730   4.404  15.364  0.00  0.00    +0.000 A 
ENDBRANCH   3  14
BRANCH   2  21
ATOM     21  N   UNL     1       1.810   3.080  17.898  0.00  0.00    +0.000 N 
ATOM     22  H   UNL     1       1.778   2.063  17.780  0.00  0.00    +0.000 HD
ATOM     23  H   UNL     1       1.114   3.262  18.634  0.00  0.00    +0.000 HD
ENDBRANCH   2  21
BRANCH   1  24
ATOM     24  C   UNL     1       4.019   2.734  20.218  0.00  0.00    +0.000 C 
ATOM     25  O   UNL     1       5.030   2.201  19.746  0.00  0.00    +0.000 OA
BRANCH  24  26
ATOM     26  O   UNL     1       3.484   2.238  21.376  0.00  0.00    +0.000 OA
BRANCH  26  28
ATOM     27  C   UNL     1       0.966   2.656  21.384  0.00  0.00    +0.000 C 
ATOM     28  C   UNL     1       2.369   3.059  21.864  0.00  0.00    +0.000 C 
ENDBRANCH  26  28
ENDBRANCH  24  26
ENDBRANCH   1  24
TORSDOF 5
ENDMDL
MODEL 6
REMARK VINA RESULT:      -7.6      3.660      6.070
REMARK  Name = 
REMARK  6 active torsions:
REMARK  status: ('A' for Active; 'I' for Inactive)
REMARK    1  A    between atoms: C_1  and  C_2
REMARK    2  A    between atoms: C_2  and  O_3
REMARK    3  A    between atoms: O_3  and  C_4
REMARK    4  A    between atoms: C_4  and  C_6
REMARK    5  A    between atoms: C_7  and  N_8
REMARK    6  A    between atoms: N_9  and  C_10
REMARK                            x       y       z     vdW  Elec       q    Type
REMARK                         _______ _______ _______ _____ _____    ______ ____
ROOT
ATOM      1  C   UNL     1       4.358   6.556  17.053  0.00  0.00    +0.000 A 
ATOM      2  C   UNL     1       4.746   5.860  18.236  0.00  0.00    +0.000 A 
ATOM      3  N   UNL     1       3.493   5.561  18.744  0.00  0.00    +0.000 N 
ATOM      4  C   UNL     1       2.946   6.799  18.827  0.00  0.00    +0.000 A 
ATOM      5  N   UNL     1       2.150   7.180  19.824  0.00  0.00    +0.000 NA
ATOM      6  C   UNL     1       1.708   8.396  19.690  0.00  0.00    +0.000 A 
ATOM      7  C   UNL     1       0.961   8.826  20.778  0.00  0.00    +0.000 A 
ATOM      8  C   UNL     1       0.423  10.088  20.823  0.00  0.00    +0.000 A 
ATOM      9  C   UNL     1       0.633  10.910  19.727  0.00  0.00    +0.000 A 
ATOM     10  C   UNL     1       1.394  10.456  18.607  0.00  0.00    +0.000 A 
ATOM     11  C   UNL     1       1.989   9.182  18.535  0.00  0.00    +0.000 A 
ATOM     12  N   UNL     1       2.793   8.721  17.464  0.00  0.00    +0.000 NA
ATOM     13  C   UNL     1       3.374   7.483  17.671  0.00  0.00    +0.000 A 
ENDROOT
BRANCH   3  14
ATOM     14  C   UNL     1       2.743   4.359  18.743  0.00  0.00    +0.000 A 
ATOM     15  C   UNL     1       3.009   3.354  17.821  0.00  0.00    +0.000 A 
ATOM     16  C   UNL     1       2.207   2.211  17.825  0.00  0.00    +0.000 A 
ATOM     17  C   UNL     1       1.147   2.087  18.725  0.00  0.00    +0.000 A 
ATOM     18  F   UNL     1       0.369   0.998  18.689  0.00  0.00    +0.000 F 
ATOM     19  C   UNL     1       0.857   3.095  19.628  0.00  0.00    +0.000 A 
ATOM     20  C   UNL     1       1.663   4.228  19.647  0.00  0.00    +0.000 A 
ENDBRANCH   3  14
BRANCH   2  21
ATOM     21  N   UNL     1       5.776   6.292  19.052  0.00  0.00    +0.000 N 
ATOM     22  H   UNL     1       5.832   7.310  19.142  0.00  0.00    +0.000 HD
ATOM     23  H   UNL     1       5.689   5.966  20.024  0.00  0.00    +0.000 HD
ENDBRANCH   2  21
BRANCH   1  24
ATOM     24  C   UNL     1       5.138   6.084  15.901  0.00  0.00    +0.000 C 
ATOM     25  O   UNL     1       5.217   6.814  14.906  0.00  0.00    +0.000 OA
BRANCH  24  26
ATOM     26  O   UNL     1       5.806   4.891  15.905  0.00  0.00    +0.000 OA
BRANCH  26  28
ATOM     27  C   UNL     1       6.165   3.825  13.613  0.00  0.00    +0.000 C 
ATOM     28  C   UNL     1       6.679   4.743  14.733  0.00  0.00    +0.000 C 
ENDBRANCH  26  28
ENDBRANCH  24  26
ENDBRANCH   1  24
TORSDOF 5
ENDMDL
MODEL 7
REMARK VINA RESULT:      -7.5      4.141      6.518
REMARK  Name = 
REMARK  6 active torsions:
REMARK  status: ('A' for Active; 'I' for Inactive)
REMARK    1  A    between atoms: C_1  and  C_2
REMARK    2  A    between atoms: C_2  and  O_3
REMARK    3  A    between atoms: O_3  and  C_4
REMARK    4  A    between atoms: C_4  and  C_6
REMARK    5  A    between atoms: C_7  and  N_8
REMARK    6  A    between atoms: N_9  and  C_10
REMARK                            x       y       z     vdW  Elec       q    Type
REMARK                         _______ _______ _______ _____ _____    ______ ____
ROOT
ATOM      1  C   UNL     1       2.024   4.826  20.321  0.00  0.00    +0.000 A 
ATOM      2  C   UNL     1       2.171   4.760  18.905  0.00  0.00    +0.000 A 
ATOM      3  N   UNL     1       2.993   5.857  18.710  0.00  0.00    +0.000 N 
ATOM      4  C   UNL     1       2.250   6.840  19.276  0.00  0.00    +0.000 A 
ATOM      5  N   UNL     1       2.175   8.075  18.783  0.00  0.00    +0.000 NA
ATOM      6  C   UNL     1       1.433   8.868  19.500  0.00  0.00    +0.000 A 
ATOM      7  C   UNL     1       1.276  10.124  18.932  0.00  0.00    +0.000 A 
ATOM      8  C   UNL     1       0.514  11.093  19.538  0.00  0.00    +0.000 A 
ATOM      9  C   UNL     1      -0.072  10.776  20.752  0.00  0.00    +0.000 A 
ATOM     10  C   UNL     1       0.104   9.483  21.334  0.00  0.00    +0.000 A 
ATOM     11  C   UNL     1       0.850   8.453  20.732  0.00  0.00    +0.000 A 
ATOM     12  N   UNL     1       0.999   7.146  21.256  0.00  0.00    +0.000 NA
ATOM     13  C   UNL     1       1.671   6.266  20.426  0.00  0.00    +0.000 A 
ENDROOT
BRANCH   3  14
ATOM     14  C   UNL     1       4.386   5.955  18.465  0.00  0.00    +0.000 A 
ATOM     15  C   UNL     1       5.303   5.359  19.322  0.00  0.00    +0.000 A 
ATOM     16  C   UNL     1       6.666   5.529  19.068  0.00  0.00    +0.000 A 
ATOM     17  C   UNL     1       7.098   6.298  17.987  0.00  0.00    +0.000 A 
ATOM     18  F   UNL     1       8.410   6.477  17.782  0.00  0.00    +0.000 F 
ATOM     19  C   UNL     1       6.192   6.919  17.145  0.00  0.00    +0.000 A 
ATOM     20  C   UNL     1       4.833   6.738  17.375  0.00  0.00    +0.000 A 
ENDBRANCH   3  14
BRANCH   2  21
ATOM     21  N   UNL     1       1.114   4.486  18.057  0.00  0.00    +0.000 N 
ATOM     22  H   UNL     1       0.483   3.759  18.406  0.00  0.00    +0.000 HD
ATOM     23  H   UNL     1       0.494   5.293  17.904  0.00  0.00    +0.000 HD
ENDBRANCH   2  21
BRANCH   1  24
ATOM     24  C   UNL     1       2.211   3.497  20.919  0.00  0.00    +0.000 C 
ATOM     25  O   UNL     1       2.323   3.416  22.148  0.00  0.00    +0.000 OA
BRANCH  24  26
ATOM     26  O   UNL     1       2.228   2.351  20.173  0.00  0.00    +0.000 OA
BRANCH  26  28
ATOM     27  C   UNL     1       3.664   1.589  18.204  0.00  0.00    +0.000 C 
ATOM     28  C   UNL     1       3.572   2.039  19.671  0.00  0.00    +0.000 C 
ENDBRANCH  26  28
ENDBRANCH  24  26
ENDBRANCH   1  24
TORSDOF 5
ENDMDL
MODEL 8
REMARK VINA RESULT:      -7.5      3.380      5.208
REMARK  Name = 
REMARK  6 active torsions:
REMARK  status: ('A' for Active; 'I' for Inactive)
REMARK    1  A    between atoms: C_1  and  C_2
REMARK    2  A    between atoms: C_2  and  O_3
REMARK    3  A    between atoms: O_3  and  C_4
REMARK    4  A    between atoms: C_4  and  C_6
REMARK    5  A    between atoms: C_7  and  N_8
REMARK    6  A    between atoms: N_9  and  C_10
REMARK                            x       y       z     vdW  Elec       q    Type
REMARK                         _______ _______ _______ _____ _____    ______ ____
ROOT
ATOM      1  C   UNL     1       3.662   3.257  19.057  0.00  0.00    +0.000 A 
ATOM      2  C   UNL     1       3.253   3.138  17.696  0.00  0.00    +0.000 A 
ATOM      3  N   UNL     1       3.806   4.303  17.190  0.00  0.00    +0.000 N 
ATOM      4  C   UNL     1       3.237   5.231  17.998  0.00  0.00    +0.000 A 
ATOM      5  N   UNL     1       2.839   6.427  17.568  0.00  0.00    +0.000 NA
ATOM      6  C   UNL     1       2.350   7.175  18.515  0.00  0.00    +0.000 A 
ATOM      7  C   UNL     1       1.845   8.380  18.049  0.00  0.00    +0.000 A 
ATOM      8  C   UNL     1       1.276   9.294  18.901  0.00  0.00    +0.000 A 
ATOM      9  C   UNL     1       1.248   8.978  20.249  0.00  0.00    +0.000 A 
ATOM     10  C   UNL     1       1.780   7.739  20.721  0.00  0.00    +0.000 A 
ATOM     11  C   UNL     1       2.343   6.762  19.879  0.00  0.00    +0.000 A 
ATOM     12  N   UNL     1       2.830   5.503  20.308  0.00  0.00    +0.000 NA
ATOM     13  C   UNL     1       3.219   4.657  19.285  0.00  0.00    +0.000 A 
ENDROOT
BRANCH   3  14
ATOM     14  C   UNL     1       4.973   4.529  16.419  0.00  0.00    +0.000 A 
ATOM     15  C   UNL     1       6.021   5.292  16.918  0.00  0.00    +0.000 A 
ATOM     16  C   UNL     1       7.126   5.531  16.099  0.00  0.00    +0.000 A 
ATOM     17  C   UNL     1       7.169   5.030  14.797  0.00  0.00    +0.000 A 
ATOM     18  F   UNL     1       8.223   5.300  14.016  0.00  0.00    +0.000 F 
ATOM     19  C   UNL     1       6.118   4.292  14.281  0.00  0.00    +0.000 A 
ATOM     20  C   UNL     1       5.022   4.030  15.095  0.00  0.00    +0.000 A 
ENDBRANCH   3  14
BRANCH   2  21
ATOM     21  N   UNL     1       1.986   2.719  17.332  0.00  0.00    +0.000 N 
ATOM     22  H   UNL     1       1.292   2.808  18.079  0.00  0.00    +0.000 HD
ATOM     23  H   UNL     1       1.583   3.263  16.558  0.00  0.00    +0.000 HD
ENDBRANCH   2  21
BRANCH   1  24
ATOM     24  C   UNL     1       4.215   1.984  19.540  0.00  0.00    +0.000 C 
ATOM     25  O   UNL     1       4.028   0.967  18.861  0.00  0.00    +0.000 OA
BRANCH  24  26
ATOM     26  O   UNL     1       4.957   1.892  20.685  0.00  0.00    +0.000 OA
BRANCH  26  28
ATOM     27  C   UNL     1       6.204   0.288  22.231  0.00  0.00    +0.000 C 
ATOM     28  C   UNL     1       5.463   0.532  20.907  0.00  0.00    +0.000 C 
ENDBRANCH  26  28
ENDBRANCH  24  26
ENDBRANCH   1  24
TORSDOF 5
ENDMDL
MODEL 9
REMARK VINA RESULT:      -7.4      7.189      9.459
REMARK  Name = 
REMARK  6 active torsions:
REMARK  status: ('A' for Active; 'I' for Inactive)
REMARK    1  A    between atoms: C_1  and  C_2
REMARK    2  A    between atoms: C_2  and  O_3
REMARK    3  A    between atoms: O_3  and  C_4
REMARK    4  A    between atoms: C_4  and  C_6
REMARK    5  A    between atoms: C_7  and  N_8
REMARK    6  A    between atoms: N_9  and  C_10
REMARK                            x       y       z     vdW  Elec       q    Type
REMARK                         _______ _______ _______ _____ _____    ______ ____
ROOT
ATOM      1  C   UNL     1       0.109  10.186  21.476  0.00  0.00    +0.000 A 
ATOM      2  C   UNL     1       0.354  11.280  20.595  0.00  0.00    +0.000 A 
ATOM      3  N   UNL     1       0.015  10.685  19.392  0.00  0.00    +0.000 N 
ATOM      4  C   UNL     1       0.840   9.610  19.394  0.00  0.00    +0.000 A 
ATOM      5  N   UNL     1       1.440   9.147  18.299  0.00  0.00    +0.000 NA
ATOM      6  C   UNL     1       2.162   8.087  18.519  0.00  0.00    +0.000 A 
ATOM      7  C   UNL     1       2.864   7.666  17.399  0.00  0.00    +0.000 A 
ATOM      8  C   UNL     1       3.691   6.571  17.442  0.00  0.00    +0.000 A 
ATOM      9  C   UNL     1       3.779   5.886  18.643  0.00  0.00    +0.000 A 
ATOM     10  C   UNL     1       3.044   6.320  19.788  0.00  0.00    +0.000 A 
ATOM     11  C   UNL     1       2.211   7.454  19.795  0.00  0.00    +0.000 A 
ATOM     12  N   UNL     1       1.511   7.942  20.926  0.00  0.00    +0.000 NA
ATOM     13  C   UNL     1       0.857   9.145  20.725  0.00  0.00    +0.000 A 
ENDROOT
BRANCH   3  14
ATOM     14  C   UNL     1      -1.146  10.794  18.586  0.00  0.00    +0.000 A 
ATOM     15  C   UNL     1      -2.169  11.670  18.926  0.00  0.00    +0.000 A 
ATOM     16  C   UNL     1      -3.316  11.702  18.129  0.00  0.00    +0.000 A 
ATOM     17  C   UNL     1      -3.440  10.858  17.025  0.00  0.00    +0.000 A 
ATOM     18  F   UNL     1      -4.563  10.880  16.295  0.00  0.00    +0.000 F 
ATOM     19  C   UNL     1      -2.438   9.962  16.696  0.00  0.00    +0.000 A 
ATOM     20  C   UNL     1      -1.283   9.937  17.469  0.00  0.00    +0.000 A 
ENDBRANCH   3  14
BRANCH   2  21
ATOM     21  N   UNL     1       1.463  12.098  20.713  0.00  0.00    +0.000 N 
ATOM     22  H   UNL     1       2.093  11.832  21.475  0.00  0.00    +0.000 HD
ATOM     23  H   UNL     1       2.069  12.085  19.881  0.00  0.00    +0.000 HD
ENDBRANCH   2  21
BRANCH   1  24
ATOM     24  C   UNL     1      -0.652  10.633  22.651  0.00  0.00    +0.000 C 
ATOM     25  O   UNL     1      -1.043   9.780  23.456  0.00  0.00    +0.000 OA
BRANCH  24  26
ATOM     26  O   UNL     1      -0.907  11.953  22.903  0.00  0.00    +0.000 OA
BRANCH  26  28
ATOM     27  C   UNL     1      -3.247  12.730  22.240  0.00  0.00    +0.000 C 
ATOM     28  C   UNL     1      -2.298  12.177  23.316  0.00  0.00    +0.000 C 
ENDBRANCH  26  28
ENDBRANCH  24  26
ENDBRANCH   1  24
TORSDOF 5
ENDMDL
