MODEL 1
REMARK VINA RESULT:      -8.7      0.000      0.000
REMARK  Name = 
REMARK  6 active torsions:
REMARK  status: ('A' for Active; 'I' for Inactive)
REMARK    1  A    between atoms: C_1  and  C_2
REMARK    2  A    between atoms: C_2  and  C_3
REMARK    3  A    between atoms: C_2  and  N_12
REMARK    4  A    between atoms: N_12  and  C_13
REMARK    5  A    between atoms: C_14  and  C_16
REMARK    6  A    between atoms: C_16  and  C_17
REMARK                            x       y       z     vdW  Elec       q    Type
REMARK                         _______ _______ _______ _____ _____    ______ ____
ROOT
ATOM      1  N   UNL     1       5.545   5.847  18.386  0.00  0.00    +0.000 N 
ATOM      2  C   UNL     1       6.380   5.120  19.341  0.00  0.00    +0.000 C 
ATOM      3  C   UNL     1       4.197   6.102  18.646  0.00  0.00    +0.000 C 
ATOM      4  O   UNL     1       3.532   6.859  17.934  0.00  0.00    +0.000 OA
ENDROOT
BRANCH   1   6
ATOM      5  C   UNL     1       7.594   7.014  17.528  0.00  0.00    +0.000 C 
ATOM      6  C   UNL     1       6.168   6.537  17.233  0.00  0.00    +0.000 C 
BRANCH   6   7
ATOM      7  C   UNL     1       6.108   5.709  15.983  0.00  0.00    +0.000 A 
ATOM      8  C   UNL     1       5.181   4.811  15.499  0.00  0.00    +0.000 A 
ATOM      9  C   UNL     1       5.670   4.349  14.253  0.00  0.00    +0.000 A 
ATOM     10  C   UNL     1       5.217   3.467  13.259  0.00  0.00    +0.000 A 
ATOM     11  C   UNL     1       6.013   3.267  12.116  0.00  0.00    +0.000 A 
ATOM     12  C   UNL     1       7.235   3.925  11.969  0.00  0.00    +0.000 A 
ATOM     13  C   UNL     1       7.705   4.806  12.950  0.00  0.00    +0.000 A 
ATOM     14  C   UNL     1       6.889   4.990  14.062  0.00  0.00    +0.000 A 
ATOM     15  O   UNL     1       7.156   5.809  15.111  0.00  0.00    +0.000 OA
ENDBRANCH   6   7
ENDBRANCH   1   6
BRANCH   3  16
ATOM     16  C   UNL     1       3.537   5.396  19.829  0.00  0.00    +0.000 C 
BRANCH  16  17
ATOM     17  C   UNL     1       2.682   4.221  19.426  0.00  0.00    +0.000 A 
ATOM     18  C   UNL     1       3.156   3.261  18.523  0.00  0.00    +0.000 A 
ATOM     19  C   UNL     1       2.341   2.194  18.132  0.00  0.00    +0.000 A 
ATOM     20  C   UNL     1       1.047   2.073  18.640  0.00  0.00    +0.000 A 
ATOM     21  C   UNL     1       0.571   3.015  19.549  0.00  0.00    +0.000 A 
ATOM     22  C   UNL     1       1.391   4.069  19.940  0.00  0.00    +0.000 A 
ATOM     23  F   UNL     1       0.908   4.969  20.808  0.00  0.00    +0.000 F 
ENDBRANCH  16  17
ENDBRANCH   3  16
TORSDOF 4
ENDMDL
MODEL 2
REMARK VINA RESULT:      -8.5      0.997      1.411
REMARK  Name = 
REMARK  6 active torsions:
REMARK  status: ('A' for Active; 'I' for Inactive)
REMARK    1  A    between atoms: C_1  and  C_2
REMARK    2  A    between atoms: C_2  and  C_3
REMARK    3  A    between atoms: C_2  and  N_12
REMARK    4  A    between atoms: N_12  and  C_13
REMARK    5  A    between atoms: C_14  and  C_16
REMARK    6  A    between atoms: C_16  and  C_17
REMARK                            x       y       z     vdW  Elec       q    Type
REMARK                         _______ _______ _______ _____ _____    ______ ____
ROOT
ATOM      1  N   UNL     1       5.654   5.796  18.400  0.00  0.00    +0.000 N 
ATOM      2  C   UNL     1       6.581   5.143  19.322  0.00  0.00    +0.000 C 
ATOM      3  C   UNL     1       4.298   5.934  18.706  0.00  0.00    +0.000 C 
ATOM      4  O   UNL     1       3.546   6.631  18.021  0.00  0.00    +0.000 OA
ENDROOT
BRANCH   1   6
ATOM      5  C   UNL     1       7.571   7.121  17.471  0.00  0.00    +0.000 C 
ATOM      6  C   UNL     1       6.175   6.538  17.228  0.00  0.00    +0.000 C 
BRANCH   6   7
ATOM      7  C   UNL     1       6.128   5.715  15.975  0.00  0.00    +0.000 A 
ATOM      8  C   UNL     1       5.208   4.815  15.481  0.00  0.00    +0.000 A 
ATOM      9  C   UNL     1       5.708   4.360  14.236  0.00  0.00    +0.000 A 
ATOM     10  C   UNL     1       5.267   3.480  13.236  0.00  0.00    +0.000 A 
ATOM     11  C   UNL     1       6.072   3.289  12.098  0.00  0.00    +0.000 A 
ATOM     12  C   UNL     1       7.291   3.953  11.962  0.00  0.00    +0.000 A 
ATOM     13  C   UNL     1       7.750   4.832  12.949  0.00  0.00    +0.000 A 
ATOM     14  C   UNL     1       6.926   5.008  14.056  0.00  0.00    +0.000 A 
ATOM     15  O   UNL     1       7.181   5.824  15.111  0.00  0.00    +0.000 OA
ENDBRANCH   6   7
ENDBRANCH   1   6
BRANCH   3  16
ATOM     16  C   UNL     1       3.743   5.173  19.908  0.00  0.00    +0.000 C 
BRANCH  16  17
ATOM     17  C   UNL     1       2.703   4.146  19.540  0.00  0.00    +0.000 A 
ATOM     18  C   UNL     1       1.408   4.208  20.071  0.00  0.00    +0.000 A 
ATOM     19  C   UNL     1       0.462   3.230  19.747  0.00  0.00    +0.000 A 
ATOM     20  C   UNL     1       0.798   2.183  18.889  0.00  0.00    +0.000 A 
ATOM     21  C   UNL     1       2.078   2.119  18.344  0.00  0.00    +0.000 A 
ATOM     22  C   UNL     1       3.010   3.101  18.664  0.00  0.00    +0.000 A 
ATOM     23  F   UNL     1       4.240   3.013  18.136  0.00  0.00    +0.000 F 
ENDBRANCH  16  17
ENDBRANCH   3  16
TORSDOF 4
ENDMDL
MODEL 3
REMARK VINA RESULT:      -8.2      1.192      1.354
REMARK  Name = 
REMARK  6 active torsions:
REMARK  status: ('A' for Active; 'I' for Inactive)
REMARK    1  A    between atoms: C_1  and  C_2
REMARK    2  A    between atoms: C_2  and  C_3
REMARK    3  A    between atoms: C_2  and  N_12
REMARK    4  A    between atoms: N_12  and  C_13
REMARK    5  A    between atoms: C_14  and  C_16
REMARK    6  A    between atoms: C_16  and  C_17
REMARK                            x       y       z     vdW  Elec       q    Type
REMARK                         _______ _______ _______ _____ _____    ______ ____
ROOT
ATOM      1  N   UNL     1       5.498   6.160  18.049  0.00  0.00    +0.000 N 
ATOM      2  C   UNL     1       4.583   7.150  17.481  0.00  0.00    +0.000 C 
ATOM      3  C   UNL     1       5.090   5.291  19.064  0.00  0.00    +0.000 C 
ATOM      4  O   UNL     1       5.792   4.344  19.426  0.00  0.00    +0.000 OA
ENDROOT
BRANCH   1   6
ATOM      5  C   UNL     1       7.760   5.104  18.293  0.00  0.00    +0.000 C 
ATOM      6  C   UNL     1       6.801   5.897  17.398  0.00  0.00    +0.000 C 
BRANCH   6   7
ATOM      7  C   UNL     1       6.637   5.252  16.053  0.00  0.00    +0.000 A 
ATOM      8  C   UNL     1       5.768   4.297  15.574  0.00  0.00    +0.000 A 
ATOM      9  C   UNL     1       6.092   4.095  14.209  0.00  0.00    +0.000 A 
ATOM     10  C   UNL     1       5.596   3.300  13.164  0.00  0.00    +0.000 A 
ATOM     11  C   UNL     1       6.203   3.389  11.898  0.00  0.00    +0.000 A 
ATOM     12  C   UNL     1       7.283   4.245  11.679  0.00  0.00    +0.000 A 
ATOM     13  C   UNL     1       7.794   5.043  12.709  0.00  0.00    +0.000 A 
ATOM     14  C   UNL     1       7.164   4.939  13.945  0.00  0.00    +0.000 A 
ATOM     15  O   UNL     1       7.497   5.636  15.062  0.00  0.00    +0.000 OA
ENDBRANCH   6   7
ENDBRANCH   1   6
BRANCH   3  16
ATOM     16  C   UNL     1       3.750   5.550  19.750  0.00  0.00    +0.000 C 
BRANCH  16  17
ATOM     17  C   UNL     1       2.727   4.472  19.494  0.00  0.00    +0.000 A 
ATOM     18  C   UNL     1       2.436   4.048  18.191  0.00  0.00    +0.000 A 
ATOM     19  C   UNL     1       1.461   3.072  17.965  0.00  0.00    +0.000 A 
ATOM     20  C   UNL     1       0.770   2.507  19.037  0.00  0.00    +0.000 A 
ATOM     21  C   UNL     1       1.060   2.911  20.338  0.00  0.00    +0.000 A 
ATOM     22  C   UNL     1       2.038   3.877  20.554  0.00  0.00    +0.000 A 
ATOM     23  F   UNL     1       2.294   4.258  21.815  0.00  0.00    +0.000 F 
ENDBRANCH  16  17
ENDBRANCH   3  16
TORSDOF 4
ENDMDL
MODEL 4
REMARK VINA RESULT:      -8.1      1.409      1.763
REMARK  Name = 
REMARK  6 active torsions:
REMARK  status: ('A' for Active; 'I' for Inactive)
REMARK    1  A    between atoms: C_1  and  C_2
REMARK    2  A    between atoms: C_2  and  C_3
REMARK    3  A    between atoms: C_2  and  N_12
REMARK    4  A    between atoms: N_12  and  C_13
REMARK    5  A    between atoms: C_14  and  C_16
REMARK    6  A    between atoms: C_16  and  C_17
REMARK                            x       y       z     vdW  Elec       q    Type
REMARK                         _______ _______ _______ _____ _____    ______ ____
ROOT
ATOM      1  N   UNL     1       5.540   6.145  18.039  0.00  0.00    +0.000 N 
ATOM      2  C   UNL     1       4.736   7.224  17.468  0.00  0.00    +0.000 C 
ATOM      3  C   UNL     1       5.029   5.301  19.028  0.00  0.00    +0.000 C 
ATOM      4  O   UNL     1       5.630   4.287  19.389  0.00  0.00    +0.000 OA
ENDROOT
BRANCH   1   6
ATOM      5  C   UNL     1       7.688   4.878  18.316  0.00  0.00    +0.000 C 
ATOM      6  C   UNL     1       6.830   5.771  17.414  0.00  0.00    +0.000 C 
BRANCH   6   7
ATOM      7  C   UNL     1       6.640   5.167  16.054  0.00  0.00    +0.000 A 
ATOM      8  C   UNL     1       5.733   4.260  15.551  0.00  0.00    +0.000 A 
ATOM      9  C   UNL     1       6.049   4.079  14.182  0.00  0.00    +0.000 A 
ATOM     10  C   UNL     1       5.522   3.331  13.118  0.00  0.00    +0.000 A 
ATOM     11  C   UNL     1       6.132   3.427  11.854  0.00  0.00    +0.000 A 
ATOM     12  C   UNL     1       7.246   4.244  11.655  0.00  0.00    +0.000 A 
ATOM     13  C   UNL     1       7.788   4.995  12.704  0.00  0.00    +0.000 A 
ATOM     14  C   UNL     1       7.155   4.887  13.938  0.00  0.00    +0.000 A 
ATOM     15  O   UNL     1       7.515   5.542  15.072  0.00  0.00    +0.000 OA
ENDBRANCH   6   7
ENDBRANCH   1   6
BRANCH   3  16
ATOM     16  C   UNL     1       3.702   5.672  19.687  0.00  0.00    +0.000 C 
BRANCH  16  17
ATOM     17  C   UNL     1       2.670   4.575  19.619  0.00  0.00    +0.000 A 
ATOM     18  C   UNL     1       2.150   4.001  20.787  0.00  0.00    +0.000 A 
ATOM     19  C   UNL     1       1.218   2.962  20.710  0.00  0.00    +0.000 A 
ATOM     20  C   UNL     1       0.794   2.487  19.469  0.00  0.00    +0.000 A 
ATOM     21  C   UNL     1       1.293   3.060  18.302  0.00  0.00    +0.000 A 
ATOM     22  C   UNL     1       2.214   4.100  18.387  0.00  0.00    +0.000 A 
ATOM     23  F   UNL     1       2.689   4.629  17.250  0.00  0.00    +0.000 F 
ENDBRANCH  16  17
ENDBRANCH   3  16
TORSDOF 4
ENDMDL
MODEL 5
REMARK VINA RESULT:      -7.8      1.026      1.108
REMARK  Name = 
REMARK  6 active torsions:
REMARK  status: ('A' for Active; 'I' for Inactive)
REMARK    1  A    between atoms: C_1  and  C_2
REMARK    2  A    between atoms: C_2  and  C_3
REMARK    3  A    between atoms: C_2  and  N_12
REMARK    4  A    between atoms: N_12  and  C_13
REMARK    5  A    between atoms: C_14  and  C_16
REMARK    6  A    between atoms: C_16  and  C_17
REMARK                            x       y       z     vdW  Elec       q    Type
REMARK                         _______ _______ _______ _____ _____    ______ ____
ROOT
ATOM      1  N   UNL     1       5.204   6.030  18.354  0.00  0.00    +0.000 N 
ATOM      2  C   UNL     1       5.738   5.117  19.363  0.00  0.00    +0.000 C 
ATOM      3  C   UNL     1       3.936   6.601  18.486  0.00  0.00    +0.000 C 
ATOM      4  O   UNL     1       3.549   7.501  17.736  0.00  0.00    +0.000 OA
ENDROOT
BRANCH   1   6
ATOM      5  C   UNL     1       7.532   6.762  17.769  0.00  0.00    +0.000 C 
ATOM      6  C   UNL     1       6.090   6.558  17.290  0.00  0.00    +0.000 C 
BRANCH   6   7
ATOM      7  C   UNL     1       6.033   5.723  16.045  0.00  0.00    +0.000 A 
ATOM      8  C   UNL     1       5.108   4.820  15.567  0.00  0.00    +0.000 A 
ATOM      9  C   UNL     1       5.598   4.353  14.322  0.00  0.00    +0.000 A 
ATOM     10  C   UNL     1       5.148   3.464  13.333  0.00  0.00    +0.000 A 
ATOM     11  C   UNL     1       5.944   3.261  12.191  0.00  0.00    +0.000 A 
ATOM     12  C   UNL     1       7.163   3.922  12.040  0.00  0.00    +0.000 A 
ATOM     13  C   UNL     1       7.631   4.809  13.016  0.00  0.00    +0.000 A 
ATOM     14  C   UNL     1       6.815   4.997  14.127  0.00  0.00    +0.000 A 
ATOM     15  O   UNL     1       7.080   5.822  15.172  0.00  0.00    +0.000 OA
ENDBRANCH   6   7
ENDBRANCH   1   6
BRANCH   3  16
ATOM     16  C   UNL     1       3.007   6.067  19.574  0.00  0.00    +0.000 C 
BRANCH  16  17
ATOM     17  C   UNL     1       2.555   4.649  19.335  0.00  0.00    +0.000 A 
ATOM     18  C   UNL     1       2.911   3.620  20.217  0.00  0.00    +0.000 A 
ATOM     19  C   UNL     1       2.513   2.303  19.965  0.00  0.00    +0.000 A 
ATOM     20  C   UNL     1       1.754   2.001  18.834  0.00  0.00    +0.000 A 
ATOM     21  C   UNL     1       1.383   3.018  17.959  0.00  0.00    +0.000 A 
ATOM     22  C   UNL     1       1.775   4.327  18.220  0.00  0.00    +0.000 A 
ATOM     23  F   UNL     1       1.415   5.289  17.358  0.00  0.00    +0.000 F 
ENDBRANCH  16  17
ENDBRANCH   3  16
TORSDOF 4
ENDMDL
MODEL 6
REMARK VINA RESULT:      -7.7      2.683      6.838
REMARK  Name = 
REMARK  6 active torsions:
REMARK  status: ('A' for Active; 'I' for Inactive)
REMARK    1  A    between atoms: C_1  and  C_2
REMARK    2  A    between atoms: C_2  and  C_3
REMARK    3  A    between atoms: C_2  and  N_12
REMARK    4  A    between atoms: N_12  and  C_13
REMARK    5  A    between atoms: C_14  and  C_16
REMARK    6  A    between atoms: C_16  and  C_17
REMARK                            x       y       z     vdW  Elec       q    Type
REMARK                         _______ _______ _______ _____ _____    ______ ____
ROOT
ATOM      1  N   UNL     1       6.196   5.425  17.267  0.00  0.00    +0.000 N 
ATOM      2  C   UNL     1       5.348   6.585  16.997  0.00  0.00    +0.000 C 
ATOM      3  C   UNL     1       7.229   5.061  16.401  0.00  0.00    +0.000 C 
ATOM      4  O   UNL     1       8.055   4.197  16.704  0.00  0.00    +0.000 OA
ENDROOT
BRANCH   1   6
ATOM      5  C   UNL     1       6.827   5.554  19.692  0.00  0.00    +0.000 C 
ATOM      6  C   UNL     1       6.132   4.753  18.585  0.00  0.00    +0.000 C 
BRANCH   6   7
ATOM      7  C   UNL     1       4.727   4.388  18.964  0.00  0.00    +0.000 A 
ATOM      8  C   UNL     1       3.861   4.872  19.920  0.00  0.00    +0.000 A 
ATOM      9  C   UNL     1       2.658   4.134  19.794  0.00  0.00    +0.000 A 
ATOM     10  C   UNL     1       1.405   4.137  20.427  0.00  0.00    +0.000 A 
ATOM     11  C   UNL     1       0.427   3.221  19.997  0.00  0.00    +0.000 A 
ATOM     12  C   UNL     1       0.692   2.319  18.966  0.00  0.00    +0.000 A 
ATOM     13  C   UNL     1       1.936   2.298  18.326  0.00  0.00    +0.000 A 
ATOM     14  C   UNL     1       2.877   3.224  18.766  0.00  0.00    +0.000 A 
ATOM     15  O   UNL     1       4.131   3.375  18.267  0.00  0.00    +0.000 OA
ENDBRANCH   6   7
ENDBRANCH   1   6
BRANCH   3  16
ATOM     16  C   UNL     1       7.308   5.740  15.035  0.00  0.00    +0.000 C 
BRANCH  16  17
ATOM     17  C   UNL     1       6.820   4.872  13.903  0.00  0.00    +0.000 A 
ATOM     18  C   UNL     1       5.667   4.089  14.041  0.00  0.00    +0.000 A 
ATOM     19  C   UNL     1       5.244   3.262  12.996  0.00  0.00    +0.000 A 
ATOM     20  C   UNL     1       5.964   3.212  11.802  0.00  0.00    +0.000 A 
ATOM     21  C   UNL     1       7.104   3.998  11.649  0.00  0.00    +0.000 A 
ATOM     22  C   UNL     1       7.513   4.824  12.691  0.00  0.00    +0.000 A 
ATOM     23  F   UNL     1       8.620   5.564  12.525  0.00  0.00    +0.000 F 
ENDBRANCH  16  17
ENDBRANCH   3  16
TORSDOF 4
ENDMDL
MODEL 7
REMARK VINA RESULT:      -7.6      2.254      3.245
REMARK  Name = 
REMARK  6 active torsions:
REMARK  status: ('A' for Active; 'I' for Inactive)
REMARK    1  A    between atoms: C_1  and  C_2
REMARK    2  A    between atoms: C_2  and  C_3
REMARK    3  A    between atoms: C_2  and  N_12
REMARK    4  A    between atoms: N_12  and  C_13
REMARK    5  A    between atoms: C_14  and  C_16
REMARK    6  A    between atoms: C_16  and  C_17
REMARK                            x       y       z     vdW  Elec       q    Type
REMARK                         _______ _______ _______ _____ _____    ______ ____
ROOT
ATOM      1  N   UNL     1       5.056   5.626  18.167  0.00  0.00    +0.000 N 
ATOM      2  C   UNL     1       4.926   4.797  19.364  0.00  0.00    +0.000 C 
ATOM      3  C   UNL     1       4.020   6.463  17.744  0.00  0.00    +0.000 C 
ATOM      4  O   UNL     1       4.182   7.290  16.844  0.00  0.00    +0.000 OA
ENDROOT
BRANCH   1   6
ATOM      5  C   UNL     1       7.528   5.245  18.371  0.00  0.00    +0.000 C 
ATOM      6  C   UNL     1       6.376   5.779  17.512  0.00  0.00    +0.000 C 
BRANCH   6   7
ATOM      7  C   UNL     1       6.391   5.188  16.134  0.00  0.00    +0.000 A 
ATOM      8  C   UNL     1       5.651   4.191  15.535  0.00  0.00    +0.000 A 
ATOM      9  C   UNL     1       6.116   4.080  14.202  0.00  0.00    +0.000 A 
ATOM     10  C   UNL     1       5.786   3.299  13.083  0.00  0.00    +0.000 A 
ATOM     11  C   UNL     1       6.499   3.494  11.886  0.00  0.00    +0.000 A 
ATOM     12  C   UNL     1       7.522   4.440  11.806  0.00  0.00    +0.000 A 
ATOM     13  C   UNL     1       7.869   5.225  12.911  0.00  0.00    +0.000 A 
ATOM     14  C   UNL     1       7.136   5.016  14.076  0.00  0.00    +0.000 A 
ATOM     15  O   UNL     1       7.306   5.683  15.246  0.00  0.00    +0.000 OA
ENDBRANCH   6   7
ENDBRANCH   1   6
BRANCH   3  16
ATOM     16  C   UNL     1       2.651   6.316  18.405  0.00  0.00    +0.000 C 
BRANCH  16  17
ATOM     17  C   UNL     1       2.045   7.630  18.828  0.00  0.00    +0.000 A 
ATOM     18  C   UNL     1       1.887   8.679  17.912  0.00  0.00    +0.000 A 
ATOM     19  C   UNL     1       1.354   9.904  18.324  0.00  0.00    +0.000 A 
ATOM     20  C   UNL     1       0.971  10.094  19.652  0.00  0.00    +0.000 A 
ATOM     21  C   UNL     1       1.110   9.054  20.567  0.00  0.00    +0.000 A 
ATOM     22  C   UNL     1       1.633   7.835  20.147  0.00  0.00    +0.000 A 
ATOM     23  F   UNL     1       1.768   6.851  21.049  0.00  0.00    +0.000 F 
ENDBRANCH  16  17
ENDBRANCH   3  16
TORSDOF 4
ENDMDL
MODEL 8
REMARK VINA RESULT:      -7.4      2.679      6.947
REMARK  Name = 
REMARK  6 active torsions:
REMARK  status: ('A' for Active; 'I' for Inactive)
REMARK    1  A    between atoms: C_1  and  C_2
REMARK    2  A    between atoms: C_2  and  C_3
REMARK    3  A    between atoms: C_2  and  N_12
REMARK    4  A    between atoms: N_12  and  C_13
REMARK    5  A    between atoms: C_14  and  C_16
REMARK    6  A    between atoms: C_16  and  C_17
REMARK                            x       y       z     vdW  Elec       q    Type
REMARK                         _______ _______ _______ _____ _____    ______ ____
ROOT
ATOM      1  N   UNL     1       6.387   5.492  17.335  0.00  0.00    +0.000 N 
ATOM      2  C   UNL     1       5.634   6.729  17.131  0.00  0.00    +0.000 C 
ATOM      3  C   UNL     1       7.336   5.057  16.406  0.00  0.00    +0.000 C 
ATOM      4  O   UNL     1       8.096   4.117  16.649  0.00  0.00    +0.000 OA
ENDROOT
BRANCH   1   6
ATOM      5  C   UNL     1       6.910   5.647  19.784  0.00  0.00    +0.000 C 
ATOM      6  C   UNL     1       6.335   4.800  18.643  0.00  0.00    +0.000 C 
BRANCH   6   7
ATOM      7  C   UNL     1       4.955   4.304  18.962  0.00  0.00    +0.000 A 
ATOM      8  C   UNL     1       4.272   3.157  18.622  0.00  0.00    +0.000 A 
ATOM      9  C   UNL     1       2.996   3.244  19.231  0.00  0.00    +0.000 A 
ATOM     10  C   UNL     1       1.856   2.428  19.301  0.00  0.00    +0.000 A 
ATOM     11  C   UNL     1       0.746   2.876  20.039  0.00  0.00    +0.000 A 
ATOM     12  C   UNL     1       0.766   4.111  20.687  0.00  0.00    +0.000 A 
ATOM     13  C   UNL     1       1.891   4.941  20.627  0.00  0.00    +0.000 A 
ATOM     14  C   UNL     1       2.977   4.464  19.898  0.00  0.00    +0.000 A 
ATOM     15  O   UNL     1       4.161   5.107  19.732  0.00  0.00    +0.000 OA
ENDBRANCH   6   7
ENDBRANCH   1   6
BRANCH   3  16
ATOM     16  C   UNL     1       7.401   5.756  15.050  0.00  0.00    +0.000 C 
BRANCH  16  17
ATOM     17  C   UNL     1       6.907   4.903  13.910  0.00  0.00    +0.000 A 
ATOM     18  C   UNL     1       5.768   4.100  14.051  0.00  0.00    +0.000 A 
ATOM     19  C   UNL     1       5.339   3.288  12.996  0.00  0.00    +0.000 A 
ATOM     20  C   UNL     1       6.041   3.270  11.791  0.00  0.00    +0.000 A 
ATOM     21  C   UNL     1       7.167   4.074  11.635  0.00  0.00    +0.000 A 
ATOM     22  C   UNL     1       7.582   4.887  12.686  0.00  0.00    +0.000 A 
ATOM     23  F   UNL     1       8.675   5.645  12.516  0.00  0.00    +0.000 F 
ENDBRANCH  16  17
ENDBRANCH   3  16
TORSDOF 4
ENDMDL
MODEL 9
REMARK VINA RESULT:      -7.4      5.733      7.977
REMARK  Name = 
REMARK  6 active torsions:
REMARK  status: ('A' for Active; 'I' for Inactive)
REMARK    1  A    between atoms: C_1  and  C_2
REMARK    2  A    between atoms: C_2  and  C_3
REMARK    3  A    between atoms: C_2  and  N_12
REMARK    4  A    between atoms: N_12  and  C_13
REMARK    5  A    between atoms: C_14  and  C_16
REMARK    6  A    between atoms: C_16  and  C_17
REMARK                            x       y       z     vdW  Elec       q    Type
REMARK                         _______ _______ _______ _____ _____    ______ ____
ROOT
ATOM      1  N   UNL     1       1.443   8.870  19.262  0.00  0.00    +0.000 N 
ATOM      2  C   UNL     1       2.249   9.101  18.064  0.00  0.00    +0.000 C 
ATOM      3  C   UNL     1       1.700   7.795  20.116  0.00  0.00    +0.000 C 
ATOM      4  O   UNL     1       1.144   7.690  21.212  0.00  0.00    +0.000 OA
ENDROOT
BRANCH   1   6
ATOM      5  C   UNL     1       1.182  11.223  20.091  0.00  0.00    +0.000 C 
ATOM      6  C   UNL     1       0.490   9.905  19.725  0.00  0.00    +0.000 C 
BRANCH   6   7
ATOM      7  C   UNL     1      -0.628  10.119  18.747  0.00  0.00    +0.000 A 
ATOM      8  C   UNL     1      -0.844   9.671  17.462  0.00  0.00    +0.000 A 
ATOM      9  C   UNL     1      -2.092  10.199  17.049  0.00  0.00    +0.000 A 
ATOM     10  C   UNL     1      -2.888  10.116  15.896  0.00  0.00    +0.000 A 
ATOM     11  C   UNL     1      -4.115  10.802  15.868  0.00  0.00    +0.000 A 
ATOM     12  C   UNL     1      -4.538  11.560  16.961  0.00  0.00    +0.000 A 
ATOM     13  C   UNL     1      -3.758  11.659  18.118  0.00  0.00    +0.000 A 
ATOM     14  C   UNL     1      -2.555  10.959  18.117  0.00  0.00    +0.000 A 
ATOM     15  O   UNL     1      -1.667  10.914  19.143  0.00  0.00    +0.000 OA
ENDBRANCH   6   7
ENDBRANCH   1   6
BRANCH   3  16
ATOM     16  C   UNL     1       2.676   6.715  19.653  0.00  0.00    +0.000 C 
BRANCH  16  17
ATOM     17  C   UNL     1       2.147   5.314  19.825  0.00  0.00    +0.000 A 
ATOM     18  C   UNL     1       2.172   4.682  21.075  0.00  0.00    +0.000 A 
ATOM     19  C   UNL     1       1.708   3.369  21.213  0.00  0.00    +0.000 A 
ATOM     20  C   UNL     1       1.213   2.677  20.108  0.00  0.00    +0.000 A 
ATOM     21  C   UNL     1       1.171   3.301  18.863  0.00  0.00    +0.000 A 
ATOM     22  C   UNL     1       1.626   4.610  18.735  0.00  0.00    +0.000 A 
ATOM     23  F   UNL     1       1.586   5.187  17.525  0.00  0.00    +0.000 F 
ENDBRANCH  16  17
ENDBRANCH   3  16
TORSDOF 4
ENDMDL
