MODEL 1
REMARK VINA RESULT:      -6.8      0.000      0.000
REMARK  Name = 
REMARK  21 active torsions:
REMARK  status: ('A' for Active; 'I' for Inactive)
REMARK    1  A    between atoms: C_1  and  C_2
REMARK    2  A    between atoms: C_2  and  C_3
REMARK    3  A    between atoms: C_3  and  C_4
REMARK    4  A    between atoms: C_4  and  C_5
REMARK    5  A    between atoms: C_5  and  C_6
REMARK    6  A    between atoms: C_6  and  C_7
REMARK    7  A    between atoms: C_7  and  C_8
REMARK    8  A    between atoms: C_8  and  O_10
REMARK    9  A    between atoms: O_10  and  C_11
REMARK   10  A    between atoms: C_11  and  C_12
REMARK   11  A    between atoms: C_12  and  C_13
REMARK   12  A    between atoms: C_12  and  O_21
REMARK   13  A    between atoms: C_13  and  O_14
REMARK   14  A    between atoms: O_14  and  C_15
REMARK   15  A    between atoms: C_15  and  C_17
REMARK   16  A    between atoms: C_17  and  C_18
REMARK   17  A    between atoms: C_17  and  C_19
REMARK   18  A    between atoms: C_17  and  C_20
REMARK   19  A    between atoms: O_21  and  C_22
REMARK   20  A    between atoms: C_22  and  C_24
REMARK   21  A    between atoms: C_24  and  C_25
REMARK                            x       y       z     vdW  Elec       q    Type
REMARK                         _______ _______ _______ _____ _____    ______ ____
ROOT
ATOM      1  C   UNL     1       4.363   5.716  18.028  0.00  0.00    +0.000 C 
ENDROOT
BRANCH   1   2
ATOM      2  O   UNL     1       4.782   5.097  16.778  0.00  0.00    +0.000 OA
BRANCH   2   3
ATOM      3  C   UNL     1       5.558   5.888  15.974  0.00  0.00    +0.000 C 
ATOM      4  O   UNL     1       5.232   6.998  15.565  0.00  0.00    +0.000 OA
BRANCH   3   5
ATOM      5  C   UNL     1       6.822   5.168  15.512  0.00  0.00    +0.000 C 
BRANCH   5   6
ATOM      6  C   UNL     1       6.687   4.738  14.066  0.00  0.00    +0.000 A 
ATOM      7  C   UNL     1       5.716   3.793  13.706  0.00  0.00    +0.000 A 
ATOM      8  C   UNL     1       5.781   3.157  12.466  0.00  0.00    +0.000 A 
ATOM      9  C   UNL     1       6.769   3.512  11.551  0.00  0.00    +0.000 A 
ATOM     10  C   UNL     1       7.673   4.526  11.860  0.00  0.00    +0.000 A 
ATOM     11  C   UNL     1       7.632   5.141  13.114  0.00  0.00    +0.000 A 
ENDBRANCH   5   6
ENDBRANCH   3   5
ENDBRANCH   2   3
ENDBRANCH   1   2
BRANCH   1  12
ATOM     12  C   UNL     1       4.711   4.846  19.254  0.00  0.00    +0.000 C 
BRANCH  12  13
ATOM     13  O   UNL     1       3.567   4.628  20.103  0.00  0.00    +0.000 OA
BRANCH  13  14
ATOM     14  C   UNL     1       3.209   3.319  20.247  0.00  0.00    +0.000 C 
ATOM     15  O   UNL     1       4.017   2.388  20.254  0.00  0.00    +0.000 OA
BRANCH  14  16
ATOM     16  C   UNL     1       1.703   3.154  20.442  0.00  0.00    +0.000 C 
ATOM     17  C   UNL     1       1.103   2.344  19.288  0.00  0.00    +0.000 C 
ATOM     18  C   UNL     1       1.451   2.398  21.753  0.00  0.00    +0.000 C 
ATOM     19  C   UNL     1       1.026   4.525  20.534  0.00  0.00    +0.000 C 
ENDBRANCH  14  16
ENDBRANCH  13  14
ENDBRANCH  12  13
ENDBRANCH   1  12
BRANCH   1  20
ATOM     20  C   UNL     1       2.846   5.937  17.946  0.00  0.00    +0.000 C 
BRANCH  20  21
ATOM     21  O   UNL     1       2.508   7.282  17.541  0.00  0.00    +0.000 OA
BRANCH  21  22
ATOM     22  C   UNL     1       2.206   8.122  18.575  0.00  0.00    +0.000 C 
ATOM     23  O   UNL     1       2.223   7.816  19.751  0.00  0.00    +0.000 OA
BRANCH  22  24
ATOM     24  C   UNL     1       1.907   9.526  18.090  0.00  0.00    +0.000 C 
BRANCH  24  25
ATOM     25  C   UNL     1       0.453   9.908  18.300  0.00  0.00    +0.000 C 
BRANCH  25  26
ATOM     26  C   UNL     1       0.268  10.785  19.537  0.00  0.00    +0.000 C 
BRANCH  26  27
ATOM     27  C   UNL     1      -0.473  10.007  20.621  0.00  0.00    +0.000 C 
BRANCH  27  28
ATOM     28  C   UNL     1       0.426   9.717  21.817  0.00  0.00    +0.000 C 
BRANCH  28  30
ATOM     29  C   UNL     1      -1.293  11.041  23.073  0.00  0.00    +0.000 C 
ATOM     30  C   UNL     1      -0.350   9.851  23.124  0.00  0.00    +0.000 C 
ENDBRANCH  28  30
ENDBRANCH  27  28
ENDBRANCH  26  27
ENDBRANCH  25  26
ENDBRANCH  24  25
ENDBRANCH  22  24
ENDBRANCH  21  22
ENDBRANCH  20  21
ENDBRANCH   1  20
TORSDOF 17
ENDMDL
MODEL 2
REMARK VINA RESULT:      -6.8      4.042      5.495
REMARK  Name = 
REMARK  21 active torsions:
REMARK  status: ('A' for Active; 'I' for Inactive)
REMARK    1  A    between atoms: C_1  and  C_2
REMARK    2  A    between atoms: C_2  and  C_3
REMARK    3  A    between atoms: C_3  and  C_4
REMARK    4  A    between atoms: C_4  and  C_5
REMARK    5  A    between atoms: C_5  and  C_6
REMARK    6  A    between atoms: C_6  and  C_7
REMARK    7  A    between atoms: C_7  and  C_8
REMARK    8  A    between atoms: C_8  and  O_10
REMARK    9  A    between atoms: O_10  and  C_11
REMARK   10  A    between atoms: C_11  and  C_12
REMARK   11  A    between atoms: C_12  and  C_13
REMARK   12  A    between atoms: C_12  and  O_21
REMARK   13  A    between atoms: C_13  and  O_14
REMARK   14  A    between atoms: O_14  and  C_15
REMARK   15  A    between atoms: C_15  and  C_17
REMARK   16  A    between atoms: C_17  and  C_18
REMARK   17  A    between atoms: C_17  and  C_19
REMARK   18  A    between atoms: C_17  and  C_20
REMARK   19  A    between atoms: O_21  and  C_22
REMARK   20  A    between atoms: C_22  and  C_24
REMARK   21  A    between atoms: C_24  and  C_25
REMARK                            x       y       z     vdW  Elec       q    Type
REMARK                         _______ _______ _______ _____ _____    ______ ____
ROOT
ATOM      1  C   UNL     1       5.886   4.835  18.136  0.00  0.00    +0.000 C 
ENDROOT
BRANCH   1   2
ATOM      2  O   UNL     1       5.044   5.809  17.456  0.00  0.00    +0.000 OA
BRANCH   2   3
ATOM      3  C   UNL     1       5.107   5.772  16.089  0.00  0.00    +0.000 C 
ATOM      4  O   UNL     1       5.099   6.762  15.364  0.00  0.00    +0.000 OA
BRANCH   3   5
ATOM      5  C   UNL     1       5.035   4.345  15.552  0.00  0.00    +0.000 C 
BRANCH   5   6
ATOM      6  C   UNL     1       5.933   4.190  14.342  0.00  0.00    +0.000 A 
ATOM      7  C   UNL     1       7.107   4.950  14.242  0.00  0.00    +0.000 A 
ATOM      8  C   UNL     1       7.771   5.058  13.020  0.00  0.00    +0.000 A 
ATOM      9  C   UNL     1       7.311   4.353  11.911  0.00  0.00    +0.000 A 
ATOM     10  C   UNL     1       6.206   3.512  12.029  0.00  0.00    +0.000 A 
ATOM     11  C   UNL     1       5.520   3.427  13.243  0.00  0.00    +0.000 A 
ENDBRANCH   5   6
ENDBRANCH   3   5
ENDBRANCH   2   3
ENDBRANCH   1   2
BRANCH   1  12
ATOM     12  C   UNL     1       5.162   4.169  19.325  0.00  0.00    +0.000 C 
BRANCH  12  13
ATOM     13  O   UNL     1       3.781   4.569  19.408  0.00  0.00    +0.000 OA
BRANCH  13  14
ATOM     14  C   UNL     1       2.920   3.568  19.753  0.00  0.00    +0.000 C 
ATOM     15  O   UNL     1       2.861   3.079  20.884  0.00  0.00    +0.000 OA
BRANCH  14  16
ATOM     16  C   UNL     1       2.015   3.162  18.592  0.00  0.00    +0.000 C 
ATOM     17  C   UNL     1       2.690   2.078  17.746  0.00  0.00    +0.000 C 
ATOM     18  C   UNL     1       0.704   2.597  19.156  0.00  0.00    +0.000 C 
ATOM     19  C   UNL     1       1.685   4.381  17.725  0.00  0.00    +0.000 C 
ENDBRANCH  14  16
ENDBRANCH  13  14
ENDBRANCH  12  13
ENDBRANCH   1  12
BRANCH   1  20
ATOM     20  C   UNL     1       7.142   5.572  18.623  0.00  0.00    +0.000 C 
BRANCH  20  21
ATOM     21  O   UNL     1       6.961   7.005  18.654  0.00  0.00    +0.000 OA
BRANCH  21  22
ATOM     22  C   UNL     1       7.889   7.705  17.937  0.00  0.00    +0.000 C 
ATOM     23  O   UNL     1       7.991   7.691  16.725  0.00  0.00    +0.000 OA
BRANCH  22  24
ATOM     24  C   UNL     1       8.754   8.572  18.829  0.00  0.00    +0.000 C 
BRANCH  24  25
ATOM     25  C   UNL     1       8.544  10.052  18.570  0.00  0.00    +0.000 C 
BRANCH  25  26
ATOM     26  C   UNL     1       9.777  10.699  17.940  0.00  0.00    +0.000 C 
BRANCH  26  27
ATOM     27  C   UNL     1       9.824  12.183  18.292  0.00  0.00    +0.000 C 
BRANCH  27  28
ATOM     28  C   UNL     1      11.123  12.549  19.001  0.00  0.00    +0.000 C 
BRANCH  28  30
ATOM     29  C   UNL     1       9.977  12.781  21.219  0.00  0.00    +0.000 C 
ATOM     30  C   UNL     1      11.094  12.090  20.457  0.00  0.00    +0.000 C 
ENDBRANCH  28  30
ENDBRANCH  27  28
ENDBRANCH  26  27
ENDBRANCH  25  26
ENDBRANCH  24  25
ENDBRANCH  22  24
ENDBRANCH  21  22
ENDBRANCH  20  21
ENDBRANCH   1  20
TORSDOF 17
ENDMDL
MODEL 3
REMARK VINA RESULT:      -6.6      1.753      8.525
REMARK  Name = 
REMARK  21 active torsions:
REMARK  status: ('A' for Active; 'I' for Inactive)
REMARK    1  A    between atoms: C_1  and  C_2
REMARK    2  A    between atoms: C_2  and  C_3
REMARK    3  A    between atoms: C_3  and  C_4
REMARK    4  A    between atoms: C_4  and  C_5
REMARK    5  A    between atoms: C_5  and  C_6
REMARK    6  A    between atoms: C_6  and  C_7
REMARK    7  A    between atoms: C_7  and  C_8
REMARK    8  A    between atoms: C_8  and  O_10
REMARK    9  A    between atoms: O_10  and  C_11
REMARK   10  A    between atoms: C_11  and  C_12
REMARK   11  A    between atoms: C_12  and  C_13
REMARK   12  A    between atoms: C_12  and  O_21
REMARK   13  A    between atoms: C_13  and  O_14
REMARK   14  A    between atoms: O_14  and  C_15
REMARK   15  A    between atoms: C_15  and  C_17
REMARK   16  A    between atoms: C_17  and  C_18
REMARK   17  A    between atoms: C_17  and  C_19
REMARK   18  A    between atoms: C_17  and  C_20
REMARK   19  A    between atoms: O_21  and  C_22
REMARK   20  A    between atoms: C_22  and  C_24
REMARK   21  A    between atoms: C_24  and  C_25
REMARK                            x       y       z     vdW  Elec       q    Type
REMARK                         _______ _______ _______ _____ _____    ______ ____
ROOT
ATOM      1  C   UNL     1       3.716   6.503  17.870  0.00  0.00    +0.000 C 
ENDROOT
BRANCH   1   2
ATOM      2  O   UNL     1       3.378   7.919  17.860  0.00  0.00    +0.000 OA
BRANCH   2   3
ATOM      3  C   UNL     1       2.240   8.247  18.545  0.00  0.00    +0.000 C 
ATOM      4  O   UNL     1       1.966   7.847  19.673  0.00  0.00    +0.000 OA
BRANCH   3   5
ATOM      5  C   UNL     1       1.267   9.051  17.687  0.00  0.00    +0.000 C 
BRANCH   5   6
ATOM      6  C   UNL     1       0.612  10.141  18.511  0.00  0.00    +0.000 A 
ATOM      7  C   UNL     1      -0.758  10.069  18.801  0.00  0.00    +0.000 A 
ATOM      8  C   UNL     1      -1.436  11.193  19.274  0.00  0.00    +0.000 A 
ATOM      9  C   UNL     1      -0.739  12.371  19.530  0.00  0.00    +0.000 A 
ATOM     10  C   UNL     1       0.642  12.418  19.345  0.00  0.00    +0.000 A 
ATOM     11  C   UNL     1       1.318  11.305  18.840  0.00  0.00    +0.000 A 
ENDBRANCH   5   6
ENDBRANCH   3   5
ENDBRANCH   2   3
ENDBRANCH   1   2
BRANCH   1  12
ATOM     12  C   UNL     1       3.901   5.959  19.302  0.00  0.00    +0.000 C 
BRANCH  12  13
ATOM     13  O   UNL     1       3.155   4.745  19.519  0.00  0.00    +0.000 OA
BRANCH  13  14
ATOM     14  C   UNL     1       3.828   3.601  19.201  0.00  0.00    +0.000 C 
ATOM     15  O   UNL     1       5.028   3.431  19.428  0.00  0.00    +0.000 OA
BRANCH  14  16
ATOM     16  C   UNL     1       2.911   2.550  18.578  0.00  0.00    +0.000 C 
ATOM     17  C   UNL     1       2.352   3.057  17.244  0.00  0.00    +0.000 C 
ATOM     18  C   UNL     1       3.723   1.275  18.316  0.00  0.00    +0.000 C 
ATOM     19  C   UNL     1       1.765   2.210  19.536  0.00  0.00    +0.000 C 
ENDBRANCH  14  16
ENDBRANCH  13  14
ENDBRANCH  12  13
ENDBRANCH   1  12
BRANCH   1  20
ATOM     20  C   UNL     1       5.012   6.332  17.065  0.00  0.00    +0.000 C 
BRANCH  20  21
ATOM     21  O   UNL     1       4.949   5.214  16.152  0.00  0.00    +0.000 OA
BRANCH  21  22
ATOM     22  C   UNL     1       6.167   4.755  15.739  0.00  0.00    +0.000 C 
ATOM     23  O   UNL     1       7.235   5.074  16.224  0.00  0.00    +0.000 OA
BRANCH  22  24
ATOM     24  C   UNL     1       6.036   3.733  14.628  0.00  0.00    +0.000 C 
BRANCH  24  25
ATOM     25  C   UNL     1       6.564   4.253  13.304  0.00  0.00    +0.000 C 
BRANCH  25  26
ATOM     26  C   UNL     1       6.363   3.242  12.175  0.00  0.00    +0.000 C 
BRANCH  26  27
ATOM     27  C   UNL     1       4.878   2.923  12.021  0.00  0.00    +0.000 C 
BRANCH  27  28
ATOM     28  C   UNL     1       4.154   4.004  11.227  0.00  0.00    +0.000 C 
BRANCH  28  30
ATOM     29  C   UNL     1       2.766   4.412   9.180  0.00  0.00    +0.000 C 
ATOM     30  C   UNL     1       3.203   3.383  10.207  0.00  0.00    +0.000 C 
ENDBRANCH  28  30
ENDBRANCH  27  28
ENDBRANCH  26  27
ENDBRANCH  25  26
ENDBRANCH  24  25
ENDBRANCH  22  24
ENDBRANCH  21  22
ENDBRANCH  20  21
ENDBRANCH   1  20
TORSDOF 17
ENDMDL
MODEL 4
REMARK VINA RESULT:      -6.6      1.696      8.226
REMARK  Name = 
REMARK  21 active torsions:
REMARK  status: ('A' for Active; 'I' for Inactive)
REMARK    1  A    between atoms: C_1  and  C_2
REMARK    2  A    between atoms: C_2  and  C_3
REMARK    3  A    between atoms: C_3  and  C_4
REMARK    4  A    between atoms: C_4  and  C_5
REMARK    5  A    between atoms: C_5  and  C_6
REMARK    6  A    between atoms: C_6  and  C_7
REMARK    7  A    between atoms: C_7  and  C_8
REMARK    8  A    between atoms: C_8  and  O_10
REMARK    9  A    between atoms: O_10  and  C_11
REMARK   10  A    between atoms: C_11  and  C_12
REMARK   11  A    between atoms: C_12  and  C_13
REMARK   12  A    between atoms: C_12  and  O_21
REMARK   13  A    between atoms: C_13  and  O_14
REMARK   14  A    between atoms: O_14  and  C_15
REMARK   15  A    between atoms: C_15  and  C_17
REMARK   16  A    between atoms: C_17  and  C_18
REMARK   17  A    between atoms: C_17  and  C_19
REMARK   18  A    between atoms: C_17  and  C_20
REMARK   19  A    between atoms: O_21  and  C_22
REMARK   20  A    between atoms: C_22  and  C_24
REMARK   21  A    between atoms: C_24  and  C_25
REMARK                            x       y       z     vdW  Elec       q    Type
REMARK                         _______ _______ _______ _____ _____    ______ ____
ROOT
ATOM      1  C   UNL     1       2.956   6.180  18.834  0.00  0.00    +0.000 C 
ENDROOT
BRANCH   1   2
ATOM      2  O   UNL     1       1.743   5.375  18.838  0.00  0.00    +0.000 OA
BRANCH   2   3
ATOM      3  C   UNL     1       1.325   4.966  20.076  0.00  0.00    +0.000 C 
ATOM      4  O   UNL     1       1.371   5.655  21.091  0.00  0.00    +0.000 OA
BRANCH   3   5
ATOM      5  C   UNL     1       0.932   3.491  20.088  0.00  0.00    +0.000 C 
BRANCH   5   6
ATOM      6  C   UNL     1       2.151   2.617  19.869  0.00  0.00    +0.000 A 
ATOM      7  C   UNL     1       3.214   2.661  20.783  0.00  0.00    +0.000 A 
ATOM      8  C   UNL     1       4.454   2.118  20.443  0.00  0.00    +0.000 A 
ATOM      9  C   UNL     1       4.620   1.466  19.223  0.00  0.00    +0.000 A 
ATOM     10  C   UNL     1       3.538   1.326  18.355  0.00  0.00    +0.000 A 
ATOM     11  C   UNL     1       2.305   1.898  18.678  0.00  0.00    +0.000 A 
ENDBRANCH   5   6
ENDBRANCH   3   5
ENDBRANCH   2   3
ENDBRANCH   1   2
BRANCH   1  12
ATOM     12  C   UNL     1       2.756   7.531  18.118  0.00  0.00    +0.000 C 
BRANCH  12  13
ATOM     13  O   UNL     1       1.977   8.451  18.908  0.00  0.00    +0.000 OA
BRANCH  13  14
ATOM     14  C   UNL     1       1.681   9.627  18.282  0.00  0.00    +0.000 C 
ATOM     15  O   UNL     1       2.256  10.022  17.266  0.00  0.00    +0.000 OA
BRANCH  14  16
ATOM     16  C   UNL     1       0.529  10.364  18.962  0.00  0.00    +0.000 C 
ATOM     17  C   UNL     1       0.840  11.862  19.056  0.00  0.00    +0.000 C 
ATOM     18  C   UNL     1      -0.743  10.180  18.124  0.00  0.00    +0.000 C 
ATOM     19  C   UNL     1       0.279   9.787  20.359  0.00  0.00    +0.000 C 
ENDBRANCH  14  16
ENDBRANCH  13  14
ENDBRANCH  12  13
ENDBRANCH   1  12
BRANCH   1  20
ATOM     20  C   UNL     1       4.049   5.362  18.132  0.00  0.00    +0.000 C 
BRANCH  20  21
ATOM     21  O   UNL     1       5.255   5.264  18.920  0.00  0.00    +0.000 OA
BRANCH  21  22
ATOM     22  C   UNL     1       6.400   5.133  18.186  0.00  0.00    +0.000 C 
ATOM     23  O   UNL     1       7.344   4.427  18.484  0.00  0.00    +0.000 OA
BRANCH  22  24
ATOM     24  C   UNL     1       6.337   5.929  16.898  0.00  0.00    +0.000 C 
BRANCH  24  25
ATOM     25  C   UNL     1       6.926   5.169  15.724  0.00  0.00    +0.000 C 
BRANCH  25  26
ATOM     26  C   UNL     1       5.955   5.104  14.545  0.00  0.00    +0.000 C 
BRANCH  26  27
ATOM     27  C   UNL     1       5.935   3.692  13.965  0.00  0.00    +0.000 C 
BRANCH  27  28
ATOM     28  C   UNL     1       6.403   3.676  12.514  0.00  0.00    +0.000 C 
BRANCH  28  30
ATOM     29  C   UNL     1       7.045   1.712  11.096  0.00  0.00    +0.000 C 
ATOM     30  C   UNL     1       5.903   2.425  11.797  0.00  0.00    +0.000 C 
ENDBRANCH  28  30
ENDBRANCH  27  28
ENDBRANCH  26  27
ENDBRANCH  25  26
ENDBRANCH  24  25
ENDBRANCH  22  24
ENDBRANCH  21  22
ENDBRANCH  20  21
ENDBRANCH   1  20
TORSDOF 17
ENDMDL
MODEL 5
REMARK VINA RESULT:      -6.5      3.357      7.265
REMARK  Name = 
REMARK  21 active torsions:
REMARK  status: ('A' for Active; 'I' for Inactive)
REMARK    1  A    between atoms: C_1  and  C_2
REMARK    2  A    between atoms: C_2  and  C_3
REMARK    3  A    between atoms: C_3  and  C_4
REMARK    4  A    between atoms: C_4  and  C_5
REMARK    5  A    between atoms: C_5  and  C_6
REMARK    6  A    between atoms: C_6  and  C_7
REMARK    7  A    between atoms: C_7  and  C_8
REMARK    8  A    between atoms: C_8  and  O_10
REMARK    9  A    between atoms: O_10  and  C_11
REMARK   10  A    between atoms: C_11  and  C_12
REMARK   11  A    between atoms: C_12  and  C_13
REMARK   12  A    between atoms: C_12  and  O_21
REMARK   13  A    between atoms: C_13  and  O_14
REMARK   14  A    between atoms: O_14  and  C_15
REMARK   15  A    between atoms: C_15  and  C_17
REMARK   16  A    between atoms: C_17  and  C_18
REMARK   17  A    between atoms: C_17  and  C_19
REMARK   18  A    between atoms: C_17  and  C_20
REMARK   19  A    between atoms: O_21  and  C_22
REMARK   20  A    between atoms: C_22  and  C_24
REMARK   21  A    between atoms: C_24  and  C_25
REMARK                            x       y       z     vdW  Elec       q    Type
REMARK                         _______ _______ _______ _____ _____    ______ ____
ROOT
ATOM      1  C   UNL     1       3.466   5.580  19.019  0.00  0.00    +0.000 C 
ENDROOT
BRANCH   1   2
ATOM      2  O   UNL     1       3.025   5.289  17.662  0.00  0.00    +0.000 OA
BRANCH   2   3
ATOM      3  C   UNL     1       3.440   4.083  17.166  0.00  0.00    +0.000 C 
ATOM      4  O   UNL     1       4.463   3.915  16.509  0.00  0.00    +0.000 OA
BRANCH   3   5
ATOM      5  C   UNL     1       2.405   2.985  17.392  0.00  0.00    +0.000 C 
BRANCH   5   6
ATOM      6  C   UNL     1       2.255   2.695  18.871  0.00  0.00    +0.000 A 
ATOM      7  C   UNL     1       1.032   2.944  19.511  0.00  0.00    +0.000 A 
ATOM      8  C   UNL     1       0.965   2.986  20.904  0.00  0.00    +0.000 A 
ATOM      9  C   UNL     1       2.098   2.710  21.666  0.00  0.00    +0.000 A 
ATOM     10  C   UNL     1       3.291   2.358  21.038  0.00  0.00    +0.000 A 
ATOM     11  C   UNL     1       3.370   2.347  19.643  0.00  0.00    +0.000 A 
ENDBRANCH   5   6
ENDBRANCH   3   5
ENDBRANCH   2   3
ENDBRANCH   1   2
BRANCH   1  12
ATOM     12  C   UNL     1       2.501   6.534  19.754  0.00  0.00    +0.000 C 
BRANCH  12  13
ATOM     13  O   UNL     1       2.390   7.806  19.088  0.00  0.00    +0.000 OA
BRANCH  13  14
ATOM     14  C   UNL     1       1.490   8.665  19.650  0.00  0.00    +0.000 C 
ATOM     15  O   UNL     1       1.018   8.514  20.780  0.00  0.00    +0.000 OA
BRANCH  14  16
ATOM     16  C   UNL     1       1.177   9.849  18.737  0.00  0.00    +0.000 C 
ATOM     17  C   UNL     1      -0.187   9.655  18.066  0.00  0.00    +0.000 C 
ATOM     18  C   UNL     1       1.130  11.129  19.581  0.00  0.00    +0.000 C 
ATOM     19  C   UNL     1       2.271  10.005  17.677  0.00  0.00    +0.000 C 
ENDBRANCH  14  16
ENDBRANCH  13  14
ENDBRANCH  12  13
ENDBRANCH   1  12
BRANCH   1  20
ATOM     20  C   UNL     1       4.864   6.207  18.924  0.00  0.00    +0.000 C 
BRANCH  20  21
ATOM     21  O   UNL     1       5.898   5.320  19.403  0.00  0.00    +0.000 OA
BRANCH  21  22
ATOM     22  C   UNL     1       7.169   5.718  19.098  0.00  0.00    +0.000 C 
ATOM     23  O   UNL     1       8.181   5.263  19.594  0.00  0.00    +0.000 OA
BRANCH  22  24
ATOM     24  C   UNL     1       7.183   6.766  18.004  0.00  0.00    +0.000 C 
BRANCH  24  25
ATOM     25  C   UNL     1       8.263   7.810  18.223  0.00  0.00    +0.000 C 
BRANCH  25  26
ATOM     26  C   UNL     1       7.840   9.183  17.701  0.00  0.00    +0.000 C 
BRANCH  26  27
ATOM     27  C   UNL     1       8.881  10.230  18.088  0.00  0.00    +0.000 C 
BRANCH  27  28
ATOM     28  C   UNL     1       9.257  10.128  19.561  0.00  0.00    +0.000 C 
BRANCH  28  30
ATOM     29  C   UNL     1      10.990  11.796  20.266  0.00  0.00    +0.000 C 
ATOM     30  C   UNL     1       9.502  11.512  20.156  0.00  0.00    +0.000 C 
ENDBRANCH  28  30
ENDBRANCH  27  28
ENDBRANCH  26  27
ENDBRANCH  25  26
ENDBRANCH  24  25
ENDBRANCH  22  24
ENDBRANCH  21  22
ENDBRANCH  20  21
ENDBRANCH   1  20
TORSDOF 17
ENDMDL
MODEL 6
REMARK VINA RESULT:      -6.4      1.456      8.628
REMARK  Name = 
REMARK  21 active torsions:
REMARK  status: ('A' for Active; 'I' for Inactive)
REMARK    1  A    between atoms: C_1  and  C_2
REMARK    2  A    between atoms: C_2  and  C_3
REMARK    3  A    between atoms: C_3  and  C_4
REMARK    4  A    between atoms: C_4  and  C_5
REMARK    5  A    between atoms: C_5  and  C_6
REMARK    6  A    between atoms: C_6  and  C_7
REMARK    7  A    between atoms: C_7  and  C_8
REMARK    8  A    between atoms: C_8  and  O_10
REMARK    9  A    between atoms: O_10  and  C_11
REMARK   10  A    between atoms: C_11  and  C_12
REMARK   11  A    between atoms: C_12  and  C_13
REMARK   12  A    between atoms: C_12  and  O_21
REMARK   13  A    between atoms: C_13  and  O_14
REMARK   14  A    between atoms: O_14  and  C_15
REMARK   15  A    between atoms: C_15  and  C_17
REMARK   16  A    between atoms: C_17  and  C_18
REMARK   17  A    between atoms: C_17  and  C_19
REMARK   18  A    between atoms: C_17  and  C_20
REMARK   19  A    between atoms: O_21  and  C_22
REMARK   20  A    between atoms: C_22  and  C_24
REMARK   21  A    between atoms: C_24  and  C_25
REMARK                            x       y       z     vdW  Elec       q    Type
REMARK                         _______ _______ _______ _____ _____    ______ ____
ROOT
ATOM      1  C   UNL     1       3.144   6.980  17.457  0.00  0.00    +0.000 C 
ENDROOT
BRANCH   1   2
ATOM      2  O   UNL     1       3.042   8.328  17.997  0.00  0.00    +0.000 OA
BRANCH   2   3
ATOM      3  C   UNL     1       1.845   8.623  18.592  0.00  0.00    +0.000 C 
ATOM      4  O   UNL     1       0.891   9.141  18.019  0.00  0.00    +0.000 OA
BRANCH   3   5
ATOM      5  C   UNL     1       1.878   8.373  20.097  0.00  0.00    +0.000 C 
BRANCH   5   6
ATOM      6  C   UNL     1       0.863   9.251  20.801  0.00  0.00    +0.000 A 
ATOM      7  C   UNL     1       0.869  10.637  20.586  0.00  0.00    +0.000 A 
ATOM      8  C   UNL     1       0.169  11.483  21.445  0.00  0.00    +0.000 A 
ATOM      9  C   UNL     1      -0.598  10.950  22.477  0.00  0.00    +0.000 A 
ATOM     10  C   UNL     1      -0.695   9.569  22.632  0.00  0.00    +0.000 A 
ATOM     11  C   UNL     1       0.031   8.719  21.794  0.00  0.00    +0.000 A 
ENDBRANCH   5   6
ENDBRANCH   3   5
ENDBRANCH   2   3
ENDBRANCH   1   2
BRANCH   1  12
ATOM     12  C   UNL     1       2.216   5.988  18.189  0.00  0.00    +0.000 C 
BRANCH  12  13
ATOM     13  O   UNL     1       2.959   4.971  18.889  0.00  0.00    +0.000 OA
BRANCH  13  14
ATOM     14  C   UNL     1       2.373   4.532  20.041  0.00  0.00    +0.000 C 
ATOM     15  O   UNL     1       1.941   5.285  20.916  0.00  0.00    +0.000 OA
BRANCH  14  16
ATOM     16  C   UNL     1       2.276   3.008  20.092  0.00  0.00    +0.000 C 
ATOM     17  C   UNL     1       3.582   2.377  19.598  0.00  0.00    +0.000 C 
ATOM     18  C   UNL     1       2.040   2.573  21.544  0.00  0.00    +0.000 C 
ATOM     19  C   UNL     1       1.099   2.522  19.241  0.00  0.00    +0.000 C 
ENDBRANCH  14  16
ENDBRANCH  13  14
ENDBRANCH  12  13
ENDBRANCH   1  12
BRANCH   1  20
ATOM     20  C   UNL     1       4.609   6.538  17.594  0.00  0.00    +0.000 C 
BRANCH  20  21
ATOM     21  O   UNL     1       5.294   6.508  16.323  0.00  0.00    +0.000 OA
BRANCH  21  22
ATOM     22  C   UNL     1       6.493   5.852  16.344  0.00  0.00    +0.000 C 
ATOM     23  O   UNL     1       7.577   6.385  16.478  0.00  0.00    +0.000 OA
BRANCH  22  24
ATOM     24  C   UNL     1       6.315   4.351  16.247  0.00  0.00    +0.000 C 
BRANCH  24  25
ATOM     25  C   UNL     1       5.668   3.932  14.940  0.00  0.00    +0.000 C 
BRANCH  25  26
ATOM     26  C   UNL     1       6.608   4.132  13.751  0.00  0.00    +0.000 C 
BRANCH  26  27
ATOM     27  C   UNL     1       6.080   3.372  12.537  0.00  0.00    +0.000 C 
BRANCH  27  28
ATOM     28  C   UNL     1       4.686   3.845  12.144  0.00  0.00    +0.000 C 
BRANCH  28  30
ATOM     29  C   UNL     1       3.210   3.749  10.120  0.00  0.00    +0.000 C 
ATOM     30  C   UNL     1       4.095   2.949  11.058  0.00  0.00    +0.000 C 
ENDBRANCH  28  30
ENDBRANCH  27  28
ENDBRANCH  26  27
ENDBRANCH  25  26
ENDBRANCH  24  25
ENDBRANCH  22  24
ENDBRANCH  21  22
ENDBRANCH  20  21
ENDBRANCH   1  20
TORSDOF 17
ENDMDL
MODEL 7
REMARK VINA RESULT:      -6.4      1.455      2.335
REMARK  Name = 
REMARK  21 active torsions:
REMARK  status: ('A' for Active; 'I' for Inactive)
REMARK    1  A    between atoms: C_1  and  C_2
REMARK    2  A    between atoms: C_2  and  C_3
REMARK    3  A    between atoms: C_3  and  C_4
REMARK    4  A    between atoms: C_4  and  C_5
REMARK    5  A    between atoms: C_5  and  C_6
REMARK    6  A    between atoms: C_6  and  C_7
REMARK    7  A    between atoms: C_7  and  C_8
REMARK    8  A    between atoms: C_8  and  O_10
REMARK    9  A    between atoms: O_10  and  C_11
REMARK   10  A    between atoms: C_11  and  C_12
REMARK   11  A    between atoms: C_12  and  C_13
REMARK   12  A    between atoms: C_12  and  O_21
REMARK   13  A    between atoms: C_13  and  O_14
REMARK   14  A    between atoms: O_14  and  C_15
REMARK   15  A    between atoms: C_15  and  C_17
REMARK   16  A    between atoms: C_17  and  C_18
REMARK   17  A    between atoms: C_17  and  C_19
REMARK   18  A    between atoms: C_17  and  C_20
REMARK   19  A    between atoms: O_21  and  C_22
REMARK   20  A    between atoms: C_22  and  C_24
REMARK   21  A    between atoms: C_24  and  C_25
REMARK                            x       y       z     vdW  Elec       q    Type
REMARK                         _______ _______ _______ _____ _____    ______ ____
ROOT
ATOM      1  C   UNL     1       4.656   5.539  18.261  0.00  0.00    +0.000 C 
ENDROOT
BRANCH   1   2
ATOM      2  O   UNL     1       5.009   5.812  16.875  0.00  0.00    +0.000 OA
BRANCH   2   3
ATOM      3  C   UNL     1       6.324   6.127  16.664  0.00  0.00    +0.000 C 
ATOM      4  O   UNL     1       6.796   7.256  16.764  0.00  0.00    +0.000 OA
BRANCH   3   5
ATOM      5  C   UNL     1       7.120   4.935  16.140  0.00  0.00    +0.000 C 
BRANCH   5   6
ATOM      6  C   UNL     1       6.903   4.768  14.650  0.00  0.00    +0.000 A 
ATOM      7  C   UNL     1       5.961   3.841  14.181  0.00  0.00    +0.000 A 
ATOM      8  C   UNL     1       5.968   3.448  12.843  0.00  0.00    +0.000 A 
ATOM      9  C   UNL     1       6.865   4.029  11.950  0.00  0.00    +0.000 A 
ATOM     10  C   UNL     1       7.733   5.029  12.386  0.00  0.00    +0.000 A 
ATOM     11  C   UNL     1       7.751   5.400  13.733  0.00  0.00    +0.000 A 
ENDBRANCH   5   6
ENDBRANCH   3   5
ENDBRANCH   2   3
ENDBRANCH   1   2
BRANCH   1  12
ATOM     12  C   UNL     1       4.638   4.028  18.570  0.00  0.00    +0.000 C 
BRANCH  12  13
ATOM     13  O   UNL     1       3.299   3.536  18.778  0.00  0.00    +0.000 OA
BRANCH  13  14
ATOM     14  C   UNL     1       3.103   2.915  19.977  0.00  0.00    +0.000 C 
ATOM     15  O   UNL     1       3.998   2.341  20.603  0.00  0.00    +0.000 OA
BRANCH  14  16
ATOM     16  C   UNL     1       1.663   3.054  20.468  0.00  0.00    +0.000 C 
ATOM     17  C   UNL     1       1.283   4.534  20.583  0.00  0.00    +0.000 C 
ATOM     18  C   UNL     1       0.726   2.384  19.455  0.00  0.00    +0.000 C 
ATOM     19  C   UNL     1       1.494   2.357  21.821  0.00  0.00    +0.000 C 
ENDBRANCH  14  16
ENDBRANCH  13  14
ENDBRANCH  12  13
ENDBRANCH   1  12
BRANCH   1  20
ATOM     20  C   UNL     1       3.271   6.151  18.513  0.00  0.00    +0.000 C 
BRANCH  20  21
ATOM     21  O   UNL     1       3.169   7.504  18.017  0.00  0.00    +0.000 OA
BRANCH  21  22
ATOM     22  C   UNL     1       2.234   8.269  18.653  0.00  0.00    +0.000 C 
ATOM     23  O   UNL     1       1.813   8.066  19.775  0.00  0.00    +0.000 OA
BRANCH  22  24
ATOM     24  C   UNL     1       1.816   9.460  17.816  0.00  0.00    +0.000 C 
BRANCH  24  25
ATOM     25  C   UNL     1       0.410   9.928  18.144  0.00  0.00    +0.000 C 
BRANCH  25  26
ATOM     26  C   UNL     1       0.398  10.921  19.306  0.00  0.00    +0.000 C 
BRANCH  26  27
ATOM     27  C   UNL     1       0.332  12.348  18.770  0.00  0.00    +0.000 C 
BRANCH  27  28
ATOM     28  C   UNL     1       1.507  13.185  19.261  0.00  0.00    +0.000 C 
BRANCH  28  30
ATOM     29  C   UNL     1       3.457  14.429  18.294  0.00  0.00    +0.000 C 
ATOM     30  C   UNL     1       2.662  13.136  18.264  0.00  0.00    +0.000 C 
ENDBRANCH  28  30
ENDBRANCH  27  28
ENDBRANCH  26  27
ENDBRANCH  25  26
ENDBRANCH  24  25
ENDBRANCH  22  24
ENDBRANCH  21  22
ENDBRANCH  20  21
ENDBRANCH   1  20
TORSDOF 17
ENDMDL
MODEL 8
REMARK VINA RESULT:      -6.4      1.725      2.838
REMARK  Name = 
REMARK  21 active torsions:
REMARK  status: ('A' for Active; 'I' for Inactive)
REMARK    1  A    between atoms: C_1  and  C_2
REMARK    2  A    between atoms: C_2  and  C_3
REMARK    3  A    between atoms: C_3  and  C_4
REMARK    4  A    between atoms: C_4  and  C_5
REMARK    5  A    between atoms: C_5  and  C_6
REMARK    6  A    between atoms: C_6  and  C_7
REMARK    7  A    between atoms: C_7  and  C_8
REMARK    8  A    between atoms: C_8  and  O_10
REMARK    9  A    between atoms: O_10  and  C_11
REMARK   10  A    between atoms: C_11  and  C_12
REMARK   11  A    between atoms: C_12  and  C_13
REMARK   12  A    between atoms: C_12  and  O_21
REMARK   13  A    between atoms: C_13  and  O_14
REMARK   14  A    between atoms: O_14  and  C_15
REMARK   15  A    between atoms: C_15  and  C_17
REMARK   16  A    between atoms: C_17  and  C_18
REMARK   17  A    between atoms: C_17  and  C_19
REMARK   18  A    between atoms: C_17  and  C_20
REMARK   19  A    between atoms: O_21  and  C_22
REMARK   20  A    between atoms: C_22  and  C_24
REMARK   21  A    between atoms: C_24  and  C_25
REMARK                            x       y       z     vdW  Elec       q    Type
REMARK                         _______ _______ _______ _____ _____    ______ ____
ROOT
ATOM      1  C   UNL     1       3.999   6.577  18.140  0.00  0.00    +0.000 C 
ENDROOT
BRANCH   1   2
ATOM      2  O   UNL     1       3.897   5.808  16.907  0.00  0.00    +0.000 OA
BRANCH   2   3
ATOM      3  C   UNL     1       5.016   5.828  16.119  0.00  0.00    +0.000 C 
ATOM      4  O   UNL     1       5.406   6.805  15.487  0.00  0.00    +0.000 OA
BRANCH   3   5
ATOM      5  C   UNL     1       5.650   4.446  15.992  0.00  0.00    +0.000 C 
BRANCH   5   6
ATOM      6  C   UNL     1       6.287   4.280  14.627  0.00  0.00    +0.000 A 
ATOM      7  C   UNL     1       7.407   5.050  14.281  0.00  0.00    +0.000 A 
ATOM      8  C   UNL     1       7.808   5.146  12.948  0.00  0.00    +0.000 A 
ATOM      9  C   UNL     1       7.143   4.418  11.965  0.00  0.00    +0.000 A 
ATOM     10  C   UNL     1       6.096   3.568  12.316  0.00  0.00    +0.000 A 
ATOM     11  C   UNL     1       5.670   3.496  13.645  0.00  0.00    +0.000 A 
ENDBRANCH   5   6
ENDBRANCH   3   5
ENDBRANCH   2   3
ENDBRANCH   1   2
BRANCH   1  12
ATOM     12  C   UNL     1       4.518   5.724  19.316  0.00  0.00    +0.000 C 
BRANCH  12  13
ATOM     13  O   UNL     1       3.445   5.080  20.030  0.00  0.00    +0.000 OA
BRANCH  13  14
ATOM     14  C   UNL     1       3.351   3.735  19.821  0.00  0.00    +0.000 C 
ATOM     15  O   UNL     1       4.269   3.050  19.365  0.00  0.00    +0.000 OA
BRANCH  14  16
ATOM     16  C   UNL     1       1.998   3.178  20.262  0.00  0.00    +0.000 C 
ATOM     17  C   UNL     1       0.928   4.272  20.197  0.00  0.00    +0.000 C 
ATOM     18  C   UNL     1       1.596   2.041  19.313  0.00  0.00    +0.000 C 
ATOM     19  C   UNL     1       2.093   2.614  21.683  0.00  0.00    +0.000 C 
ENDBRANCH  14  16
ENDBRANCH  13  14
ENDBRANCH  12  13
ENDBRANCH   1  12
BRANCH   1  20
ATOM     20  C   UNL     1       2.601   7.127  18.457  0.00  0.00    +0.000 C 
BRANCH  20  21
ATOM     21  O   UNL     1       2.146   8.074  17.466  0.00  0.00    +0.000 OA
BRANCH  21  22
ATOM     22  C   UNL     1       2.016   9.353  17.927  0.00  0.00    +0.000 C 
ATOM     23  O   UNL     1       2.618  10.316  17.492  0.00  0.00    +0.000 OA
BRANCH  22  24
ATOM     24  C   UNL     1       0.971   9.456  19.018  0.00  0.00    +0.000 C 
BRANCH  24  25
ATOM     25  C   UNL     1      -0.044  10.549  18.740  0.00  0.00    +0.000 C 
BRANCH  25  26
ATOM     26  C   UNL     1      -1.477  10.016  18.771  0.00  0.00    +0.000 C 
BRANCH  26  27
ATOM     27  C   UNL     1      -2.458  11.142  18.457  0.00  0.00    +0.000 C 
BRANCH  27  28
ATOM     28  C   UNL     1      -2.330  11.609  17.012  0.00  0.00    +0.000 C 
BRANCH  28  30
ATOM     29  C   UNL     1      -2.771   9.952  15.183  0.00  0.00    +0.000 C 
ATOM     30  C   UNL     1      -3.396  10.956  16.135  0.00  0.00    +0.000 C 
ENDBRANCH  28  30
ENDBRANCH  27  28
ENDBRANCH  26  27
ENDBRANCH  25  26
ENDBRANCH  24  25
ENDBRANCH  22  24
ENDBRANCH  21  22
ENDBRANCH  20  21
ENDBRANCH   1  20
TORSDOF 17
ENDMDL
MODEL 9
REMARK VINA RESULT:      -6.4      1.810      8.414
REMARK  Name = 
REMARK  21 active torsions:
REMARK  status: ('A' for Active; 'I' for Inactive)
REMARK    1  A    between atoms: C_1  and  C_2
REMARK    2  A    between atoms: C_2  and  C_3
REMARK    3  A    between atoms: C_3  and  C_4
REMARK    4  A    between atoms: C_4  and  C_5
REMARK    5  A    between atoms: C_5  and  C_6
REMARK    6  A    between atoms: C_6  and  C_7
REMARK    7  A    between atoms: C_7  and  C_8
REMARK    8  A    between atoms: C_8  and  O_10
REMARK    9  A    between atoms: O_10  and  C_11
REMARK   10  A    between atoms: C_11  and  C_12
REMARK   11  A    between atoms: C_12  and  C_13
REMARK   12  A    between atoms: C_12  and  O_21
REMARK   13  A    between atoms: C_13  and  O_14
REMARK   14  A    between atoms: O_14  and  C_15
REMARK   15  A    between atoms: C_15  and  C_17
REMARK   16  A    between atoms: C_17  and  C_18
REMARK   17  A    between atoms: C_17  and  C_19
REMARK   18  A    between atoms: C_17  and  C_20
REMARK   19  A    between atoms: O_21  and  C_22
REMARK   20  A    between atoms: C_22  and  C_24
REMARK   21  A    between atoms: C_24  and  C_25
REMARK                            x       y       z     vdW  Elec       q    Type
REMARK                         _______ _______ _______ _____ _____    ______ ____
ROOT
ATOM      1  C   UNL     1       3.560   6.268  18.388  0.00  0.00    +0.000 C 
ENDROOT
BRANCH   1   2
ATOM      2  O   UNL     1       3.381   7.700  18.192  0.00  0.00    +0.000 OA
BRANCH   2   3
ATOM      3  C   UNL     1       2.220   8.212  18.704  0.00  0.00    +0.000 C 
ATOM      4  O   UNL     1       1.798   7.990  19.835  0.00  0.00    +0.000 OA
BRANCH   3   5
ATOM      5  C   UNL     1       1.421   8.976  17.652  0.00  0.00    +0.000 C 
BRANCH   5   6
ATOM      6  C   UNL     1       0.669  10.127  18.292  0.00  0.00    +0.000 A 
ATOM      7  C   UNL     1      -0.733  10.149  18.258  0.00  0.00    +0.000 A 
ATOM      8  C   UNL     1      -1.422  11.326  18.551  0.00  0.00    +0.000 A 
ATOM      9  C   UNL     1      -0.724  12.464  18.949  0.00  0.00    +0.000 A 
ATOM     10  C   UNL     1       0.662  12.418  19.088  0.00  0.00    +0.000 A 
ATOM     11  C   UNL     1       1.358  11.251  18.763  0.00  0.00    +0.000 A 
ENDBRANCH   5   6
ENDBRANCH   3   5
ENDBRANCH   2   3
ENDBRANCH   1   2
BRANCH   1  12
ATOM     12  C   UNL     1       3.399   5.857  19.866  0.00  0.00    +0.000 C 
BRANCH  12  13
ATOM     13  O   UNL     1       3.253   4.432  20.018  0.00  0.00    +0.000 OA
BRANCH  13  14
ATOM     14  C   UNL     1       1.969   3.980  19.916  0.00  0.00    +0.000 C 
ATOM     15  O   UNL     1       1.069   4.303  20.694  0.00  0.00    +0.000 OA
BRANCH  14  16
ATOM     16  C   UNL     1       1.775   3.068  18.706  0.00  0.00    +0.000 C 
ATOM     17  C   UNL     1       0.560   2.158  18.915  0.00  0.00    +0.000 C 
ATOM     18  C   UNL     1       1.530   3.935  17.464  0.00  0.00    +0.000 C 
ATOM     19  C   UNL     1       3.033   2.226  18.469  0.00  0.00    +0.000 C 
ENDBRANCH  14  16
ENDBRANCH  13  14
ENDBRANCH  12  13
ENDBRANCH   1  12
BRANCH   1  20
ATOM     20  C   UNL     1       4.965   5.906  17.886  0.00  0.00    +0.000 C 
BRANCH  20  21
ATOM     21  O   UNL     1       4.944   4.839  16.913  0.00  0.00    +0.000 OA
BRANCH  21  22
ATOM     22  C   UNL     1       5.400   5.194  15.676  0.00  0.00    +0.000 C 
ATOM     23  O   UNL     1       5.340   6.312  15.204  0.00  0.00    +0.000 OA
BRANCH  22  24
ATOM     24  C   UNL     1       6.062   4.031  14.965  0.00  0.00    +0.000 C 
BRANCH  24  25
ATOM     25  C   UNL     1       6.627   4.430  13.614  0.00  0.00    +0.000 C 
BRANCH  25  26
ATOM     26  C   UNL     1       6.286   3.408  12.531  0.00  0.00    +0.000 C 
BRANCH  26  27
ATOM     27  C   UNL     1       4.781   3.405  12.273  0.00  0.00    +0.000 C 
BRANCH  27  28
ATOM     28  C   UNL     1       4.467   3.201  10.796  0.00  0.00    +0.000 C 
BRANCH  28  30
ATOM     29  C   UNL     1       2.820   4.319   9.272  0.00  0.00    +0.000 C 
ATOM     30  C   UNL     1       2.989   3.464  10.515  0.00  0.00    +0.000 C 
ENDBRANCH  28  30
ENDBRANCH  27  28
ENDBRANCH  26  27
ENDBRANCH  25  26
ENDBRANCH  24  25
ENDBRANCH  22  24
ENDBRANCH  21  22
ENDBRANCH  20  21
ENDBRANCH   1  20
TORSDOF 17
ENDMDL
