MODEL 1
REMARK VINA RESULT:      -3.8      0.000      0.000
REMARK  Name = 
REMARK  3 active torsions:
REMARK  status: ('A' for Active; 'I' for Inactive)
REMARK    1  A    between atoms: O_1  and  C_2
REMARK    2  A    between atoms: C_2  and  C_3
REMARK    3  A    between atoms: C_3  and  N_4
REMARK                            x       y       z     vdW  Elec       q    Type
REMARK                         _______ _______ _______ _____ _____    ______ ____
ROOT
ATOM      1  N   UNL     1       6.091   4.840  17.340  0.00  0.00    +0.000 N 
ATOM      2  C   UNL     1       7.100   5.643  16.927  0.00  0.00    +0.000 C 
ATOM      3  N   UNL     1       7.416   5.625  15.666  0.00  0.00    +0.000 NA
ATOM      4  C   UNL     1       6.411   4.691  15.068  0.00  0.00    +0.000 C 
ATOM      5  C   UNL     1       5.643   4.038  16.232  0.00  0.00    +0.000 C 
ENDROOT
BRANCH   1   6
ATOM      6  C   UNL     1       5.366   4.925  18.584  0.00  0.00    +0.000 C 
BRANCH   6   7
ATOM      7  C   UNL     1       4.508   3.679  18.819  0.00  0.00    +0.000 C 
BRANCH   7   8
ATOM      8  O   UNL     1       5.242   2.710  19.558  0.00  0.00    +0.000 OA
ATOM      9  H   UNL     1       6.167   3.017  19.586  0.00  0.00    +0.000 HD
ENDBRANCH   7   8
ENDBRANCH   6   7
ENDBRANCH   1   6
TORSDOF 3
ENDMDL
MODEL 2
REMARK VINA RESULT:      -3.7      0.977      1.098
REMARK  Name = 
REMARK  3 active torsions:
REMARK  status: ('A' for Active; 'I' for Inactive)
REMARK    1  A    between atoms: O_1  and  C_2
REMARK    2  A    between atoms: C_2  and  C_3
REMARK    3  A    between atoms: C_3  and  N_4
REMARK                            x       y       z     vdW  Elec       q    Type
REMARK                         _______ _______ _______ _____ _____    ______ ____
ROOT
ATOM      1  N   UNL     1       6.136   5.361  17.506  0.00  0.00    +0.000 N 
ATOM      2  C   UNL     1       5.518   6.073  16.536  0.00  0.00    +0.000 C 
ATOM      3  N   UNL     1       5.898   5.888  15.307  0.00  0.00    +0.000 NA
ATOM      4  C   UNL     1       6.926   4.805  15.419  0.00  0.00    +0.000 C 
ATOM      5  C   UNL     1       7.199   4.587  16.920  0.00  0.00    +0.000 C 
ENDROOT
BRANCH   1   6
ATOM      6  C   UNL     1       5.680   5.157  18.860  0.00  0.00    +0.000 C 
BRANCH   6   7
ATOM      7  C   UNL     1       4.667   4.011  18.944  0.00  0.00    +0.000 C 
BRANCH   7   8
ATOM      8  O   UNL     1       5.278   2.858  19.511  0.00  0.00    +0.000 OA
ATOM      9  H   UNL     1       4.612   2.439  20.086  0.00  0.00    +0.000 HD
ENDBRANCH   7   8
ENDBRANCH   6   7
ENDBRANCH   1   6
TORSDOF 3
ENDMDL
MODEL 3
REMARK VINA RESULT:      -3.7      1.797      2.627
REMARK  Name = 
REMARK  3 active torsions:
REMARK  status: ('A' for Active; 'I' for Inactive)
REMARK    1  A    between atoms: O_1  and  C_2
REMARK    2  A    between atoms: C_2  and  C_3
REMARK    3  A    between atoms: C_3  and  N_4
REMARK                            x       y       z     vdW  Elec       q    Type
REMARK                         _______ _______ _______ _____ _____    ______ ____
ROOT
ATOM      1  N   UNL     1       5.804   4.372  17.840  0.00  0.00    +0.000 N 
ATOM      2  C   UNL     1       5.655   4.780  19.122  0.00  0.00    +0.000 C 
ATOM      3  N   UNL     1       6.660   5.372  19.695  0.00  0.00    +0.000 NA
ATOM      4  C   UNL     1       7.683   5.455  18.605  0.00  0.00    +0.000 C 
ATOM      5  C   UNL     1       7.158   4.622  17.420  0.00  0.00    +0.000 C 
ENDROOT
BRANCH   1   6
ATOM      6  C   UNL     1       4.759   4.001  16.919  0.00  0.00    +0.000 C 
BRANCH   6   7
ATOM      7  C   UNL     1       3.662   3.188  17.612  0.00  0.00    +0.000 C 
BRANCH   7   8
ATOM      8  O   UNL     1       4.110   1.858  17.845  0.00  0.00    +0.000 OA
ATOM      9  H   UNL     1       3.791   1.318  17.099  0.00  0.00    +0.000 HD
ENDBRANCH   7   8
ENDBRANCH   6   7
ENDBRANCH   1   6
TORSDOF 3
ENDMDL
MODEL 4
REMARK VINA RESULT:      -3.6      2.159      2.596
REMARK  Name = 
REMARK  3 active torsions:
REMARK  status: ('A' for Active; 'I' for Inactive)
REMARK    1  A    between atoms: O_1  and  C_2
REMARK    2  A    between atoms: C_2  and  C_3
REMARK    3  A    between atoms: C_3  and  N_4
REMARK                            x       y       z     vdW  Elec       q    Type
REMARK                         _______ _______ _______ _____ _____    ______ ____
ROOT
ATOM      1  N   UNL     1       6.628   4.967  17.114  0.00  0.00    +0.000 N 
ATOM      2  C   UNL     1       6.388   4.251  15.991  0.00  0.00    +0.000 C 
ATOM      3  N   UNL     1       5.597   4.766  15.097  0.00  0.00    +0.000 NA
ATOM      4  C   UNL     1       5.269   6.115  15.657  0.00  0.00    +0.000 C 
ATOM      5  C   UNL     1       5.827   6.162  17.092  0.00  0.00    +0.000 C 
ENDROOT
BRANCH   1   6
ATOM      6  C   UNL     1       7.691   4.759  18.067  0.00  0.00    +0.000 C 
BRANCH   6   7
ATOM      7  C   UNL     1       7.793   5.924  19.056  0.00  0.00    +0.000 C 
BRANCH   7   8
ATOM      8  O   UNL     1       7.929   5.430  20.383  0.00  0.00    +0.000 OA
ATOM      9  H   UNL     1       8.848   5.119  20.476  0.00  0.00    +0.000 HD
ENDBRANCH   7   8
ENDBRANCH   6   7
ENDBRANCH   1   6
TORSDOF 3
ENDMDL
MODEL 5
REMARK VINA RESULT:      -3.6      3.369      4.379
REMARK  Name = 
REMARK  3 active torsions:
REMARK  status: ('A' for Active; 'I' for Inactive)
REMARK    1  A    between atoms: O_1  and  C_2
REMARK    2  A    between atoms: C_2  and  C_3
REMARK    3  A    between atoms: C_3  and  N_4
REMARK                            x       y       z     vdW  Elec       q    Type
REMARK                         _______ _______ _______ _____ _____    ______ ____
ROOT
ATOM      1  N   UNL     1       3.216   4.335  20.111  0.00  0.00    +0.000 N 
ATOM      2  C   UNL     1       3.985   3.256  19.831  0.00  0.00    +0.000 C 
ATOM      3  N   UNL     1       5.114   3.454  19.218  0.00  0.00    +0.000 NA
ATOM      4  C   UNL     1       5.189   4.945  19.098  0.00  0.00    +0.000 C 
ATOM      5  C   UNL     1       3.826   5.509  19.544  0.00  0.00    +0.000 C 
ENDROOT
BRANCH   1   6
ATOM      6  C   UNL     1       2.117   4.401  21.042  0.00  0.00    +0.000 C 
BRANCH   6   7
ATOM      7  C   UNL     1       1.362   3.070  21.115  0.00  0.00    +0.000 C 
BRANCH   7   8
ATOM      8  O   UNL     1       0.373   3.010  20.095  0.00  0.00    +0.000 OA
ATOM      9  H   UNL     1      -0.449   2.699  20.516  0.00  0.00    +0.000 HD
ENDBRANCH   7   8
ENDBRANCH   6   7
ENDBRANCH   1   6
TORSDOF 3
ENDMDL
MODEL 6
REMARK VINA RESULT:      -3.6      1.151      1.729
REMARK  Name = 
REMARK  3 active torsions:
REMARK  status: ('A' for Active; 'I' for Inactive)
REMARK    1  A    between atoms: O_1  and  C_2
REMARK    2  A    between atoms: C_2  and  C_3
REMARK    3  A    between atoms: C_3  and  N_4
REMARK                            x       y       z     vdW  Elec       q    Type
REMARK                         _______ _______ _______ _____ _____    ______ ____
ROOT
ATOM      1  N   UNL     1       5.454   4.998  16.748  0.00  0.00    +0.000 N 
ATOM      2  C   UNL     1       6.700   5.034  16.219  0.00  0.00    +0.000 C 
ATOM      3  N   UNL     1       7.398   6.119  16.376  0.00  0.00    +0.000 NA
ATOM      4  C   UNL     1       6.514   6.983  17.221  0.00  0.00    +0.000 C 
ATOM      5  C   UNL     1       5.144   6.285  17.312  0.00  0.00    +0.000 C 
ENDROOT
BRANCH   1   6
ATOM      6  C   UNL     1       4.642   3.829  16.981  0.00  0.00    +0.000 C 
BRANCH   6   7
ATOM      7  C   UNL     1       4.325   3.654  18.469  0.00  0.00    +0.000 C 
BRANCH   7   8
ATOM      8  O   UNL     1       5.497   3.270  19.178  0.00  0.00    +0.000 OA
ATOM      9  H   UNL     1       6.230   3.278  18.537  0.00  0.00    +0.000 HD
ENDBRANCH   7   8
ENDBRANCH   6   7
ENDBRANCH   1   6
TORSDOF 3
ENDMDL
MODEL 7
REMARK VINA RESULT:      -3.6      3.139      4.359
REMARK  Name = 
REMARK  3 active torsions:
REMARK  status: ('A' for Active; 'I' for Inactive)
REMARK    1  A    between atoms: O_1  and  C_2
REMARK    2  A    between atoms: C_2  and  C_3
REMARK    3  A    between atoms: C_3  and  N_4
REMARK                            x       y       z     vdW  Elec       q    Type
REMARK                         _______ _______ _______ _____ _____    ______ ____
ROOT
ATOM      1  N   UNL     1       3.020   4.276  18.852  0.00  0.00    +0.000 N 
ATOM      2  C   UNL     1       2.232   4.700  17.837  0.00  0.00    +0.000 C 
ATOM      3  N   UNL     1       1.200   3.976  17.521  0.00  0.00    +0.000 NA
ATOM      4  C   UNL     1       1.224   2.874  18.534  0.00  0.00    +0.000 C 
ATOM      5  C   UNL     1       2.551   2.993  19.309  0.00  0.00    +0.000 C 
ENDROOT
BRANCH   1   6
ATOM      6  C   UNL     1       3.998   5.050  19.576  0.00  0.00    +0.000 C 
BRANCH   6   7
ATOM      7  C   UNL     1       5.356   5.042  18.868  0.00  0.00    +0.000 C 
BRANCH   7   8
ATOM      8  O   UNL     1       5.951   3.753  18.963  0.00  0.00    +0.000 OA
ATOM      9  H   UNL     1       5.294   3.169  19.384  0.00  0.00    +0.000 HD
ENDBRANCH   7   8
ENDBRANCH   6   7
ENDBRANCH   1   6
TORSDOF 3
ENDMDL
MODEL 8
REMARK VINA RESULT:      -3.6      3.435      5.179
REMARK  Name = 
REMARK  3 active torsions:
REMARK  status: ('A' for Active; 'I' for Inactive)
REMARK    1  A    between atoms: O_1  and  C_2
REMARK    2  A    between atoms: C_2  and  C_3
REMARK    3  A    between atoms: C_3  and  N_4
REMARK                            x       y       z     vdW  Elec       q    Type
REMARK                         _______ _______ _______ _____ _____    ______ ____
ROOT
ATOM      1  N   UNL     1       2.658   4.376  19.810  0.00  0.00    +0.000 N 
ATOM      2  C   UNL     1       2.216   3.985  21.028  0.00  0.00    +0.000 C 
ATOM      3  N   UNL     1       1.197   3.180  21.077  0.00  0.00    +0.000 NA
ATOM      4  C   UNL     1       0.903   2.901  19.636  0.00  0.00    +0.000 C 
ATOM      5  C   UNL     1       1.781   3.849  18.798  0.00  0.00    +0.000 C 
ENDROOT
BRANCH   1   6
ATOM      6  C   UNL     1       3.931   4.981  19.499  0.00  0.00    +0.000 C 
BRANCH   6   7
ATOM      7  C   UNL     1       4.813   4.038  18.675  0.00  0.00    +0.000 C 
BRANCH   7   8
ATOM      8  O   UNL     1       5.249   2.948  19.478  0.00  0.00    +0.000 OA
ATOM      9  H   UNL     1       6.075   2.616  19.079  0.00  0.00    +0.000 HD
ENDBRANCH   7   8
ENDBRANCH   6   7
ENDBRANCH   1   6
TORSDOF 3
ENDMDL
MODEL 9
REMARK VINA RESULT:      -3.6      3.149      4.138
REMARK  Name = 
REMARK  3 active torsions:
REMARK  status: ('A' for Active; 'I' for Inactive)
REMARK    1  A    between atoms: O_1  and  C_2
REMARK    2  A    between atoms: C_2  and  C_3
REMARK    3  A    between atoms: C_3  and  N_4
REMARK                            x       y       z     vdW  Elec       q    Type
REMARK                         _______ _______ _______ _____ _____    ______ ____
ROOT
ATOM      1  N   UNL     1       3.285   2.624  18.836  0.00  0.00    +0.000 N 
ATOM      2  C   UNL     1       4.345   2.743  19.669  0.00  0.00    +0.000 C 
ATOM      3  N   UNL     1       5.261   3.615  19.370  0.00  0.00    +0.000 NA
ATOM      4  C   UNL     1       4.724   4.277  18.139  0.00  0.00    +0.000 C 
ATOM      5  C   UNL     1       3.483   3.479  17.695  0.00  0.00    +0.000 C 
ENDROOT
BRANCH   1   6
ATOM      6  C   UNL     1       2.024   1.982  19.118  0.00  0.00    +0.000 C 
BRANCH   6   7
ATOM      7  C   UNL     1       0.921   3.009  19.392  0.00  0.00    +0.000 C 
BRANCH   7   8
ATOM      8  O   UNL     1       0.650   3.078  20.787  0.00  0.00    +0.000 OA
ATOM      9  H   UNL     1       0.016   3.806  20.916  0.00  0.00    +0.000 HD
ENDBRANCH   7   8
ENDBRANCH   6   7
ENDBRANCH   1   6
TORSDOF 3
ENDMDL
