MODEL 1
REMARK VINA RESULT:      -7.6      0.000      0.000
REMARK  Name = 
REMARK  6 active torsions:
REMARK  status: ('A' for Active; 'I' for Inactive)
REMARK    1  A    between atoms: C_1  and  C_2
REMARK    2  A    between atoms: C_2  and  C_3
REMARK    3  A    between atoms: C_3  and  N_4
REMARK    4  A    between atoms: C_3  and  C_14
REMARK    5  A    between atoms: N_4  and  C_5
REMARK    6  A    between atoms: N_25  and  C_26
REMARK                            x       y       z     vdW  Elec       q    Type
REMARK                         _______ _______ _______ _____ _____    ______ ____
ROOT
ATOM      1  C   UNL     1       2.001   8.661  18.693  0.00  0.00    +0.000 A 
ATOM      2  N   UNL     1       2.697   8.223  17.686  0.00  0.00    +0.000 NA
ATOM      3  C   UNL     1       3.376   7.010  17.779  0.00  0.00    +0.000 A 
ATOM      4  C   UNL     1       4.294   6.691  16.772  0.00  0.00    +0.000 A 
ATOM      5  C   UNL     1       5.034   5.508  16.826  0.00  0.00    +0.000 A 
ATOM      6  C   UNL     1       4.839   4.628  17.887  0.00  0.00    +0.000 A 
ATOM      7  C   UNL     1       3.936   4.954  18.898  0.00  0.00    +0.000 A 
ATOM      8  F   UNL     1       3.799   4.086  19.911  0.00  0.00    +0.000 F 
ATOM      9  C   UNL     1       3.223   6.153  18.860  0.00  0.00    +0.000 A 
ATOM     10  C   UNL     1       2.355   6.602  19.962  0.00  0.00    +0.000 A 
ATOM     11  O   UNL     1       2.172   5.858  20.918  0.00  0.00    +0.000 OA
ATOM     12  N   UNL     1       1.798   7.890  19.834  0.00  0.00    +0.000 N 
ENDROOT
BRANCH  12  13
ATOM     13  C   UNL     1       1.085   8.385  20.963  0.00  0.00    +0.000 A 
ATOM     14  C   UNL     1       1.783   9.029  21.994  0.00  0.00    +0.000 A 
ATOM     15  C   UNL     1       1.098   9.545  23.094  0.00  0.00    +0.000 A 
ATOM     16  C   UNL     1      -0.285   9.402  23.182  0.00  0.00    +0.000 A 
ATOM     17  C   UNL     1      -0.981   8.725  22.181  0.00  0.00    +0.000 A 
ATOM     18  C   UNL     1      -0.297   8.209  21.079  0.00  0.00    +0.000 A 
ENDBRANCH  12  13
BRANCH   1  19
ATOM     19  C   UNL     1       1.457  10.138  18.601  0.00  0.00    +0.000 C 
BRANCH  19  21
ATOM     20  C   UNL     1       2.421  12.478  18.203  0.00  0.00    +0.000 C 
ATOM     21  C   UNL     1       2.481  11.003  17.821  0.00  0.00    +0.000 C 
ENDBRANCH  19  21
BRANCH  19  22
ATOM     22  N   UNL     1       0.186  10.156  17.863  0.00  0.00    +0.000 N 
ATOM     23  H   UNL     1      -0.120   9.288  17.438  0.00  0.00    +0.000 HD
BRANCH  22  24
ATOM     24  C   UNL     1      -0.907  10.866  18.352  0.00  0.00    +0.000 A 
ATOM     25  N   UNL     1      -0.774  11.347  19.620  0.00  0.00    +0.000 NA
ATOM     26  C   UNL     1      -1.809  12.008  20.188  0.00  0.00    +0.000 A 
ATOM     27  N   UNL     1      -3.017  12.280  19.661  0.00  0.00    +0.000 NA
ATOM     28  C   UNL     1      -3.102  11.798  18.416  0.00  0.00    +0.000 A 
ATOM     29  N   UNL     1      -4.190  11.871  17.595  0.00  0.00    +0.000 N 
ATOM     30  C   UNL     1      -3.861  11.254  16.420  0.00  0.00    +0.000 A 
ATOM     31  N   UNL     1      -2.625  10.804  16.436  0.00  0.00    +0.000 NA
ATOM     32  C   UNL     1      -2.136  11.114  17.694  0.00  0.00    +0.000 A 
ATOM     33  H   UNL     1      -5.073  12.295  17.832  0.00  0.00    +0.000 HD
ENDBRANCH  22  24
ENDBRANCH  19  22
ENDBRANCH   1  19
TORSDOF 5
ENDMDL
MODEL 2
REMARK VINA RESULT:      -7.5      3.375      7.908
REMARK  Name = 
REMARK  6 active torsions:
REMARK  status: ('A' for Active; 'I' for Inactive)
REMARK    1  A    between atoms: C_1  and  C_2
REMARK    2  A    between atoms: C_2  and  C_3
REMARK    3  A    between atoms: C_3  and  N_4
REMARK    4  A    between atoms: C_3  and  C_14
REMARK    5  A    between atoms: N_4  and  C_5
REMARK    6  A    between atoms: N_25  and  C_26
REMARK                            x       y       z     vdW  Elec       q    Type
REMARK                         _______ _______ _______ _____ _____    ______ ____
ROOT
ATOM      1  C   UNL     1       2.557   6.820  18.813  0.00  0.00    +0.000 A 
ATOM      2  N   UNL     1       2.603   8.027  18.329  0.00  0.00    +0.000 NA
ATOM      3  C   UNL     1       1.831   9.038  18.895  0.00  0.00    +0.000 A 
ATOM      4  C   UNL     1       1.729  10.253  18.206  0.00  0.00    +0.000 A 
ATOM      5  C   UNL     1       0.941  11.294  18.702  0.00  0.00    +0.000 A 
ATOM      6  C   UNL     1       0.264  11.124  19.907  0.00  0.00    +0.000 A 
ATOM      7  C   UNL     1       0.353   9.909  20.583  0.00  0.00    +0.000 A 
ATOM      8  F   UNL     1      -0.335   9.784  21.729  0.00  0.00    +0.000 F 
ATOM      9  C   UNL     1       1.113   8.858  20.069  0.00  0.00    +0.000 A 
ATOM     10  C   UNL     1       1.137   7.516  20.677  0.00  0.00    +0.000 A 
ATOM     11  O   UNL     1       0.541   7.328  21.731  0.00  0.00    +0.000 OA
ATOM     12  N   UNL     1       1.853   6.525  19.977  0.00  0.00    +0.000 N 
ENDROOT
BRANCH  12  13
ATOM     13  C   UNL     1       1.751   5.197  20.481  0.00  0.00    +0.000 A 
ATOM     14  C   UNL     1       0.669   4.392  20.098  0.00  0.00    +0.000 A 
ATOM     15  C   UNL     1       0.568   3.080  20.559  0.00  0.00    +0.000 A 
ATOM     16  C   UNL     1       1.535   2.570  21.423  0.00  0.00    +0.000 A 
ATOM     17  C   UNL     1       2.591   3.378  21.842  0.00  0.00    +0.000 A 
ATOM     18  C   UNL     1       2.694   4.691  21.380  0.00  0.00    +0.000 A 
ENDBRANCH  12  13
BRANCH   1  19
ATOM     19  C   UNL     1       3.271   5.687  17.982  0.00  0.00    +0.000 C 
BRANCH  19  21
ATOM     20  C   UNL     1       2.593   3.325  17.259  0.00  0.00    +0.000 C 
ATOM     21  C   UNL     1       2.191   4.795  17.317  0.00  0.00    +0.000 C 
ENDBRANCH  19  21
BRANCH  19  22
ATOM     22  N   UNL     1       4.087   6.289  16.918  0.00  0.00    +0.000 N 
ATOM     23  H   UNL     1       4.163   7.300  16.902  0.00  0.00    +0.000 HD
BRANCH  22  24
ATOM     24  C   UNL     1       5.293   5.708  16.535  0.00  0.00    +0.000 A 
ATOM     25  N   UNL     1       5.437   5.482  15.198  0.00  0.00    +0.000 NA
ATOM     26  C   UNL     1       6.560   4.877  14.748  0.00  0.00    +0.000 A 
ATOM     27  N   UNL     1       7.616   4.441  15.457  0.00  0.00    +0.000 NA
ATOM     28  C   UNL     1       7.438   4.689  16.760  0.00  0.00    +0.000 A 
ATOM     29  N   UNL     1       8.297   4.361  17.769  0.00  0.00    +0.000 N 
ATOM     30  C   UNL     1       7.735   4.784  18.941  0.00  0.00    +0.000 A 
ATOM     31  N   UNL     1       6.578   5.377  18.740  0.00  0.00    +0.000 NA
ATOM     32  C   UNL     1       6.358   5.305  17.375  0.00  0.00    +0.000 A 
ATOM     33  H   UNL     1       9.176   3.880  17.655  0.00  0.00    +0.000 HD
ENDBRANCH  22  24
ENDBRANCH  19  22
ENDBRANCH   1  19
TORSDOF 5
ENDMDL
MODEL 3
REMARK VINA RESULT:      -7.3      6.158      8.445
REMARK  Name = 
REMARK  6 active torsions:
REMARK  status: ('A' for Active; 'I' for Inactive)
REMARK    1  A    between atoms: C_1  and  C_2
REMARK    2  A    between atoms: C_2  and  C_3
REMARK    3  A    between atoms: C_3  and  N_4
REMARK    4  A    between atoms: C_3  and  C_14
REMARK    5  A    between atoms: N_4  and  C_5
REMARK    6  A    between atoms: N_25  and  C_26
REMARK                            x       y       z     vdW  Elec       q    Type
REMARK                         _______ _______ _______ _____ _____    ______ ____
ROOT
ATOM      1  C   UNL     1       5.473   4.375  16.135  0.00  0.00    +0.000 A 
ATOM      2  N   UNL     1       4.939   3.654  15.194  0.00  0.00    +0.000 NA
ATOM      3  C   UNL     1       5.442   3.712  13.897  0.00  0.00    +0.000 A 
ATOM      4  C   UNL     1       4.700   3.108  12.875  0.00  0.00    +0.000 A 
ATOM      5  C   UNL     1       5.131   3.163  11.548  0.00  0.00    +0.000 A 
ATOM      6  C   UNL     1       6.325   3.812  11.244  0.00  0.00    +0.000 A 
ATOM      7  C   UNL     1       7.055   4.427  12.259  0.00  0.00    +0.000 A 
ATOM      8  F   UNL     1       8.187   5.060  11.914  0.00  0.00    +0.000 F 
ATOM      9  C   UNL     1       6.605   4.401  13.579  0.00  0.00    +0.000 A 
ATOM     10  C   UNL     1       7.270   5.141  14.666  0.00  0.00    +0.000 A 
ATOM     11  O   UNL     1       8.316   5.735  14.430  0.00  0.00    +0.000 OA
ATOM     12  N   UNL     1       6.631   5.118  15.921  0.00  0.00    +0.000 N 
ENDROOT
BRANCH  12  13
ATOM     13  C   UNL     1       7.188   5.955  16.929  0.00  0.00    +0.000 A 
ATOM     14  C   UNL     1       7.645   5.386  18.126  0.00  0.00    +0.000 A 
ATOM     15  C   UNL     1       8.220   6.186  19.113  0.00  0.00    +0.000 A 
ATOM     16  C   UNL     1       8.323   7.561  18.920  0.00  0.00    +0.000 A 
ATOM     17  C   UNL     1       7.833   8.140  17.751  0.00  0.00    +0.000 A 
ATOM     18  C   UNL     1       7.258   7.341  16.762  0.00  0.00    +0.000 A 
ENDBRANCH  12  13
BRANCH   1  19
ATOM     19  C   UNL     1       4.709   4.435  17.513  0.00  0.00    +0.000 C 
BRANCH  19  21
ATOM     20  C   UNL     1       3.719   6.749  17.988  0.00  0.00    +0.000 C 
ATOM     21  C   UNL     1       3.485   5.375  17.369  0.00  0.00    +0.000 C 
ENDBRANCH  19  21
BRANCH  19  22
ATOM     22  N   UNL     1       4.220   3.096  17.869  0.00  0.00    +0.000 N 
ATOM     23  H   UNL     1       4.709   2.299  17.477  0.00  0.00    +0.000 HD
BRANCH  22  24
ATOM     24  C   UNL     1       3.804   2.816  19.168  0.00  0.00    +0.000 A 
ATOM     25  N   UNL     1       4.738   2.229  19.969  0.00  0.00    +0.000 NA
ATOM     26  C   UNL     1       4.401   1.881  21.232  0.00  0.00    +0.000 A 
ATOM     27  N   UNL     1       3.218   2.036  21.854  0.00  0.00    +0.000 NA
ATOM     28  C   UNL     1       2.334   2.621  21.037  0.00  0.00    +0.000 A 
ATOM     29  N   UNL     1       1.032   2.909  21.329  0.00  0.00    +0.000 N 
ATOM     30  C   UNL     1       0.482   3.494  20.223  0.00  0.00    +0.000 A 
ATOM     31  N   UNL     1       1.358   3.612  19.248  0.00  0.00    +0.000 NA
ATOM     32  C   UNL     1       2.526   3.044  19.730  0.00  0.00    +0.000 A 
ATOM     33  H   UNL     1       0.571   2.706  22.203  0.00  0.00    +0.000 HD
ENDBRANCH  22  24
ENDBRANCH  19  22
ENDBRANCH   1  19
TORSDOF 5
ENDMDL
MODEL 4
REMARK VINA RESULT:      -7.2      4.781      7.038
REMARK  Name = 
REMARK  6 active torsions:
REMARK  status: ('A' for Active; 'I' for Inactive)
REMARK    1  A    between atoms: C_1  and  C_2
REMARK    2  A    between atoms: C_2  and  C_3
REMARK    3  A    between atoms: C_3  and  N_4
REMARK    4  A    between atoms: C_3  and  C_14
REMARK    5  A    between atoms: N_4  and  C_5
REMARK    6  A    between atoms: N_25  and  C_26
REMARK                            x       y       z     vdW  Elec       q    Type
REMARK                         _______ _______ _______ _____ _____    ______ ____
ROOT
ATOM      1  C   UNL     1      -1.124  11.689  20.306  0.00  0.00    +0.000 A 
ATOM      2  N   UNL     1      -0.923  11.069  19.180  0.00  0.00    +0.000 NA
ATOM      3  C   UNL     1      -1.953  10.955  18.250  0.00  0.00    +0.000 A 
ATOM      4  C   UNL     1      -1.770  10.087  17.168  0.00  0.00    +0.000 A 
ATOM      5  C   UNL     1      -2.779   9.900  16.220  0.00  0.00    +0.000 A 
ATOM      6  C   UNL     1      -3.974  10.602  16.348  0.00  0.00    +0.000 A 
ATOM      7  C   UNL     1      -4.163  11.453  17.435  0.00  0.00    +0.000 A 
ATOM      8  F   UNL     1      -5.340  12.091  17.528  0.00  0.00    +0.000 F 
ATOM      9  C   UNL     1      -3.167  11.613  18.399  0.00  0.00    +0.000 A 
ATOM     10  C   UNL     1      -3.363  12.399  19.629  0.00  0.00    +0.000 A 
ATOM     11  O   UNL     1      -4.410  13.019  19.780  0.00  0.00    +0.000 OA
ATOM     12  N   UNL     1      -2.312  12.368  20.566  0.00  0.00    +0.000 N 
ENDROOT
BRANCH  12  13
ATOM     13  C   UNL     1      -2.561  13.000  21.817  0.00  0.00    +0.000 A 
ATOM     14  C   UNL     1      -3.217  12.291  22.833  0.00  0.00    +0.000 A 
ATOM     15  C   UNL     1      -3.444  12.885  24.074  0.00  0.00    +0.000 A 
ATOM     16  C   UNL     1      -3.037  14.197  24.302  0.00  0.00    +0.000 A 
ATOM     17  C   UNL     1      -2.423  14.924  23.283  0.00  0.00    +0.000 A 
ATOM     18  C   UNL     1      -2.193  14.330  22.041  0.00  0.00    +0.000 A 
ENDBRANCH  12  13
BRANCH   1  19
ATOM     19  C   UNL     1       0.006  11.576  21.398  0.00  0.00    +0.000 C 
BRANCH  19  21
ATOM     20  C   UNL     1      -0.450   9.822  23.208  0.00  0.00    +0.000 C 
ATOM     21  C   UNL     1       0.142  10.093  21.830  0.00  0.00    +0.000 C 
ENDBRANCH  19  21
BRANCH  19  22
ATOM     22  N   UNL     1       1.292  12.008  20.831  0.00  0.00    +0.000 N 
ATOM     23  H   UNL     1       1.605  11.552  19.982  0.00  0.00    +0.000 HD
BRANCH  22  24
ATOM     24  C   UNL     1       1.641  13.355  20.813  0.00  0.00    +0.000 A 
ATOM     25  N   UNL     1       1.318  14.060  21.934  0.00  0.00    +0.000 NA
ATOM     26  C   UNL     1       1.581  15.387  21.979  0.00  0.00    +0.000 A 
ATOM     27  N   UNL     1       2.145  16.159  21.034  0.00  0.00    +0.000 NA
ATOM     28  C   UNL     1       2.453  15.428  19.955  0.00  0.00    +0.000 A 
ATOM     29  N   UNL     1       3.015  15.890  18.801  0.00  0.00    +0.000 N 
ATOM     30  C   UNL     1       3.155  14.824  17.957  0.00  0.00    +0.000 A 
ATOM     31  N   UNL     1       2.731  13.707  18.509  0.00  0.00    +0.000 NA
ATOM     32  C   UNL     1       2.260  14.069  19.759  0.00  0.00    +0.000 A 
ATOM     33  H   UNL     1       3.262  16.850  18.615  0.00  0.00    +0.000 HD
ENDBRANCH  22  24
ENDBRANCH  19  22
ENDBRANCH   1  19
TORSDOF 5
ENDMDL
MODEL 5
REMARK VINA RESULT:      -7.1      4.724      7.044
REMARK  Name = 
REMARK  6 active torsions:
REMARK  status: ('A' for Active; 'I' for Inactive)
REMARK    1  A    between atoms: C_1  and  C_2
REMARK    2  A    between atoms: C_2  and  C_3
REMARK    3  A    between atoms: C_3  and  N_4
REMARK    4  A    between atoms: C_3  and  C_14
REMARK    5  A    between atoms: N_4  and  C_5
REMARK    6  A    between atoms: N_25  and  C_26
REMARK                            x       y       z     vdW  Elec       q    Type
REMARK                         _______ _______ _______ _____ _____    ______ ____
ROOT
ATOM      1  C   UNL     1      -1.114  11.533  20.194  0.00  0.00    +0.000 A 
ATOM      2  N   UNL     1      -0.964  10.915  19.059  0.00  0.00    +0.000 NA
ATOM      3  C   UNL     1      -2.013  10.866  18.145  0.00  0.00    +0.000 A 
ATOM      4  C   UNL     1      -1.894  10.001  17.052  0.00  0.00    +0.000 A 
ATOM      5  C   UNL     1      -2.926   9.878  16.119  0.00  0.00    +0.000 A 
ATOM      6  C   UNL     1      -4.080  10.643  16.272  0.00  0.00    +0.000 A 
ATOM      7  C   UNL     1      -4.205  11.492  17.370  0.00  0.00    +0.000 A 
ATOM      8  F   UNL     1      -5.344  12.192  17.488  0.00  0.00    +0.000 F 
ATOM      9  C   UNL     1      -3.187  11.587  18.319  0.00  0.00    +0.000 A 
ATOM     10  C   UNL     1      -3.321  12.371  19.560  0.00  0.00    +0.000 A 
ATOM     11  O   UNL     1      -4.330  13.045  19.734  0.00  0.00    +0.000 OA
ATOM     12  N   UNL     1      -2.258  12.273  20.480  0.00  0.00    +0.000 N 
ENDROOT
BRANCH  12  13
ATOM     13  C   UNL     1      -2.453  12.905  21.741  0.00  0.00    +0.000 A 
ATOM     14  C   UNL     1      -1.912  14.177  21.968  0.00  0.00    +0.000 A 
ATOM     15  C   UNL     1      -2.117  14.823  23.187  0.00  0.00    +0.000 A 
ATOM     16  C   UNL     1      -2.845  14.194  24.194  0.00  0.00    +0.000 A 
ATOM     17  C   UNL     1      -3.351  12.911  23.991  0.00  0.00    +0.000 A 
ATOM     18  C   UNL     1      -3.147  12.264  22.771  0.00  0.00    +0.000 A 
ENDBRANCH  12  13
BRANCH   1  19
ATOM     19  C   UNL     1       0.026  11.347  21.267  0.00  0.00    +0.000 C 
BRANCH  19  21
ATOM     20  C   UNL     1      -0.475   9.837  23.275  0.00  0.00    +0.000 C 
ATOM     21  C   UNL     1      -0.033   9.898  21.817  0.00  0.00    +0.000 C 
ENDBRANCH  19  21
BRANCH  19  22
ATOM     22  N   UNL     1       1.339  11.546  20.638  0.00  0.00    +0.000 N 
ATOM     23  H   UNL     1       1.694  10.800  20.050  0.00  0.00    +0.000 HD
BRANCH  22  24
ATOM     24  C   UNL     1       1.692  12.785  20.112  0.00  0.00    +0.000 A 
ATOM     25  N   UNL     1       2.011  12.790  18.786  0.00  0.00    +0.000 NA
ATOM     26  C   UNL     1       2.410  13.946  18.207  0.00  0.00    +0.000 A 
ATOM     27  N   UNL     1       2.546  15.160  18.770  0.00  0.00    +0.000 NA
ATOM     28  C   UNL     1       2.216  15.112  20.067  0.00  0.00    +0.000 A 
ATOM     29  N   UNL     1       2.259  16.152  20.949  0.00  0.00    +0.000 N 
ATOM     30  C   UNL     1       1.850  15.679  22.164  0.00  0.00    +0.000 A 
ATOM     31  N   UNL     1       1.534  14.403  22.107  0.00  0.00    +0.000 NA
ATOM     32  C   UNL     1       1.781  14.019  20.800  0.00  0.00    +0.000 A 
ATOM     33  H   UNL     1       2.556  17.091  20.731  0.00  0.00    +0.000 HD
ENDBRANCH  22  24
ENDBRANCH  19  22
ENDBRANCH   1  19
TORSDOF 5
ENDMDL
MODEL 6
REMARK VINA RESULT:      -7.1      0.615      1.781
REMARK  Name = 
REMARK  6 active torsions:
REMARK  status: ('A' for Active; 'I' for Inactive)
REMARK    1  A    between atoms: C_1  and  C_2
REMARK    2  A    between atoms: C_2  and  C_3
REMARK    3  A    between atoms: C_3  and  N_4
REMARK    4  A    between atoms: C_3  and  C_14
REMARK    5  A    between atoms: N_4  and  C_5
REMARK    6  A    between atoms: N_25  and  C_26
REMARK                            x       y       z     vdW  Elec       q    Type
REMARK                         _______ _______ _______ _____ _____    ______ ____
ROOT
ATOM      1  C   UNL     1       2.001   8.666  18.688  0.00  0.00    +0.000 A 
ATOM      2  N   UNL     1       2.691   8.230  17.675  0.00  0.00    +0.000 NA
ATOM      3  C   UNL     1       3.373   7.019  17.762  0.00  0.00    +0.000 A 
ATOM      4  C   UNL     1       4.285   6.703  16.748  0.00  0.00    +0.000 A 
ATOM      5  C   UNL     1       5.028   5.521  16.796  0.00  0.00    +0.000 A 
ATOM      6  C   UNL     1       4.842   4.639  17.857  0.00  0.00    +0.000 A 
ATOM      7  C   UNL     1       3.946   4.963  18.875  0.00  0.00    +0.000 A 
ATOM      8  F   UNL     1       3.817   4.093  19.888  0.00  0.00    +0.000 F 
ATOM      9  C   UNL     1       3.230   6.160  18.843  0.00  0.00    +0.000 A 
ATOM     10  C   UNL     1       2.369   6.606  19.952  0.00  0.00    +0.000 A 
ATOM     11  O   UNL     1       2.194   5.860  20.909  0.00  0.00    +0.000 OA
ATOM     12  N   UNL     1       1.808   7.893  19.830  0.00  0.00    +0.000 N 
ENDROOT
BRANCH  12  13
ATOM     13  C   UNL     1       1.102   8.385  20.964  0.00  0.00    +0.000 A 
ATOM     14  C   UNL     1       1.811   8.993  22.009  0.00  0.00    +0.000 A 
ATOM     15  C   UNL     1       1.133   9.506  23.115  0.00  0.00    +0.000 A 
ATOM     16  C   UNL     1      -0.253   9.397  23.194  0.00  0.00    +0.000 A 
ATOM     17  C   UNL     1      -0.960   8.755  22.179  0.00  0.00    +0.000 A 
ATOM     18  C   UNL     1      -0.284   8.242  21.071  0.00  0.00    +0.000 A 
ENDBRANCH  12  13
BRANCH   1  19
ATOM     19  C   UNL     1       1.454  10.142  18.601  0.00  0.00    +0.000 C 
BRANCH  19  21
ATOM     20  C   UNL     1       2.407  12.491  18.240  0.00  0.00    +0.000 C 
ATOM     21  C   UNL     1       2.491  11.019  17.853  0.00  0.00    +0.000 C 
ENDBRANCH  19  21
BRANCH  19  22
ATOM     22  N   UNL     1       0.199  10.163  17.835  0.00  0.00    +0.000 N 
ATOM     23  H   UNL     1      -0.057   9.320  17.334  0.00  0.00    +0.000 HD
BRANCH  22  24
ATOM     24  C   UNL     1      -0.935  10.781  18.353  0.00  0.00    +0.000 A 
ATOM     25  N   UNL     1      -2.065  10.660  17.599  0.00  0.00    +0.000 NA
ATOM     26  C   UNL     1      -3.201  11.271  18.007  0.00  0.00    +0.000 A 
ATOM     27  N   UNL     1      -3.397  12.021  19.107  0.00  0.00    +0.000 NA
ATOM     28  C   UNL     1      -2.269  12.107  19.821  0.00  0.00    +0.000 A 
ATOM     29  N   UNL     1      -2.099  12.807  20.980  0.00  0.00    +0.000 N 
ATOM     30  C   UNL     1      -0.802  12.638  21.377  0.00  0.00    +0.000 A 
ATOM     31  N   UNL     1      -0.137  11.860  20.548  0.00  0.00    +0.000 NA
ATOM     32  C   UNL     1      -1.036  11.535  19.546  0.00  0.00    +0.000 A 
ATOM     33  H   UNL     1      -2.809  13.356  21.441  0.00  0.00    +0.000 HD
ENDBRANCH  22  24
ENDBRANCH  19  22
ENDBRANCH   1  19
TORSDOF 5
ENDMDL
MODEL 7
REMARK VINA RESULT:      -7.0      4.793      6.949
REMARK  Name = 
REMARK  6 active torsions:
REMARK  status: ('A' for Active; 'I' for Inactive)
REMARK    1  A    between atoms: C_1  and  C_2
REMARK    2  A    between atoms: C_2  and  C_3
REMARK    3  A    between atoms: C_3  and  N_4
REMARK    4  A    between atoms: C_3  and  C_14
REMARK    5  A    between atoms: N_4  and  C_5
REMARK    6  A    between atoms: N_25  and  C_26
REMARK                            x       y       z     vdW  Elec       q    Type
REMARK                         _______ _______ _______ _____ _____    ______ ____
ROOT
ATOM      1  C   UNL     1      -1.146  11.706  20.220  0.00  0.00    +0.000 A 
ATOM      2  N   UNL     1      -0.968  11.081  19.093  0.00  0.00    +0.000 NA
ATOM      3  C   UNL     1      -2.023  10.943  18.195  0.00  0.00    +0.000 A 
ATOM      4  C   UNL     1      -1.858  10.070  17.113  0.00  0.00    +0.000 A 
ATOM      5  C   UNL     1      -2.891   9.859  16.198  0.00  0.00    +0.000 A 
ATOM      6  C   UNL     1      -4.094  10.543  16.356  0.00  0.00    +0.000 A 
ATOM      7  C   UNL     1      -4.264  11.399  17.443  0.00  0.00    +0.000 A 
ATOM      8  F   UNL     1      -5.448  12.018  17.566  0.00  0.00    +0.000 F 
ATOM      9  C   UNL     1      -3.243  11.582  18.375  0.00  0.00    +0.000 A 
ATOM     10  C   UNL     1      -3.416  12.374  19.606  0.00  0.00    +0.000 A 
ATOM     11  O   UNL     1      -4.467  12.978  19.784  0.00  0.00    +0.000 OA
ATOM     12  N   UNL     1      -2.336  12.367  20.511  0.00  0.00    +0.000 N 
ENDROOT
BRANCH  12  13
ATOM     13  C   UNL     1      -2.559  13.004  21.765  0.00  0.00    +0.000 A 
ATOM     14  C   UNL     1      -3.220  12.310  22.786  0.00  0.00    +0.000 A 
ATOM     15  C   UNL     1      -3.422  12.908  24.030  0.00  0.00    +0.000 A 
ATOM     16  C   UNL     1      -2.983  14.211  24.254  0.00  0.00    +0.000 A 
ATOM     17  C   UNL     1      -2.363  14.924  23.229  0.00  0.00    +0.000 A 
ATOM     18  C   UNL     1      -2.159  14.326  21.984  0.00  0.00    +0.000 A 
ENDBRANCH  12  13
BRANCH   1  19
ATOM     19  C   UNL     1       0.018  11.619  21.279  0.00  0.00    +0.000 C 
BRANCH  19  21
ATOM     20  C   UNL     1      -0.408   9.888  23.118  0.00  0.00    +0.000 C 
ATOM     21  C   UNL     1       0.176  10.145  21.733  0.00  0.00    +0.000 C 
ENDBRANCH  19  21
BRANCH  19  22
ATOM     22  N   UNL     1       1.283  12.047  20.665  0.00  0.00    +0.000 N 
ATOM     23  H   UNL     1       1.521  11.653  19.762  0.00  0.00    +0.000 HD
BRANCH  22  24
ATOM     24  C   UNL     1       1.689  13.377  20.734  0.00  0.00    +0.000 A 
ATOM     25  N   UNL     1       2.704  13.635  21.607  0.00  0.00    +0.000 NA
ATOM     26  C   UNL     1       3.128  14.910  21.769  0.00  0.00    +0.000 A 
ATOM     27  N   UNL     1       2.676  16.024  21.165  0.00  0.00    +0.000 NA
ATOM     28  C   UNL     1       1.687  15.725  20.313  0.00  0.00    +0.000 A 
ATOM     29  N   UNL     1       0.984  16.611  19.550  0.00  0.00    +0.000 N 
ATOM     30  C   UNL     1       0.067  15.897  18.830  0.00  0.00    +0.000 A 
ATOM     31  N   UNL     1       0.153  14.608  19.076  0.00  0.00    +0.000 NA
ATOM     32  C   UNL     1       1.151  14.479  20.027  0.00  0.00    +0.000 A 
ATOM     33  H   UNL     1       1.119  17.611  19.542  0.00  0.00    +0.000 HD
ENDBRANCH  22  24
ENDBRANCH  19  22
ENDBRANCH   1  19
TORSDOF 5
ENDMDL
MODEL 8
REMARK VINA RESULT:      -6.9      3.333      5.246
REMARK  Name = 
REMARK  6 active torsions:
REMARK  status: ('A' for Active; 'I' for Inactive)
REMARK    1  A    between atoms: C_1  and  C_2
REMARK    2  A    between atoms: C_2  and  C_3
REMARK    3  A    between atoms: C_3  and  N_4
REMARK    4  A    between atoms: C_3  and  C_14
REMARK    5  A    between atoms: N_4  and  C_5
REMARK    6  A    between atoms: N_25  and  C_26
REMARK                            x       y       z     vdW  Elec       q    Type
REMARK                         _______ _______ _______ _____ _____    ______ ____
ROOT
ATOM      1  C   UNL     1      -1.545  12.046  20.614  0.00  0.00    +0.000 A 
ATOM      2  N   UNL     1      -1.018  11.303  19.685  0.00  0.00    +0.000 NA
ATOM      3  C   UNL     1      -0.117  10.295  20.022  0.00  0.00    +0.000 A 
ATOM      4  C   UNL     1       0.600   9.681  18.990  0.00  0.00    +0.000 A 
ATOM      5  C   UNL     1       1.545   8.690  19.265  0.00  0.00    +0.000 A 
ATOM      6  C   UNL     1       1.759   8.297  20.584  0.00  0.00    +0.000 A 
ATOM      7  C   UNL     1       1.056   8.921  21.613  0.00  0.00    +0.000 A 
ATOM      8  F   UNL     1       1.312   8.525  22.869  0.00  0.00    +0.000 F 
ATOM      9  C   UNL     1       0.138   9.935  21.339  0.00  0.00    +0.000 A 
ATOM     10  C   UNL     1      -0.536  10.711  22.395  0.00  0.00    +0.000 A 
ATOM     11  O   UNL     1      -0.359  10.401  23.568  0.00  0.00    +0.000 OA
ATOM     12  N   UNL     1      -1.342  11.784  21.966  0.00  0.00    +0.000 N 
ENDROOT
BRANCH  12  13
ATOM     13  C   UNL     1      -1.869  12.626  22.986  0.00  0.00    +0.000 A 
ATOM     14  C   UNL     1      -3.122  12.336  23.543  0.00  0.00    +0.000 A 
ATOM     15  C   UNL     1      -3.641  13.133  24.563  0.00  0.00    +0.000 A 
ATOM     16  C   UNL     1      -2.923  14.237  25.018  0.00  0.00    +0.000 A 
ATOM     17  C   UNL     1      -1.696  14.556  24.438  0.00  0.00    +0.000 A 
ATOM     18  C   UNL     1      -1.174  13.759  23.419  0.00  0.00    +0.000 A 
ENDBRANCH  12  13
BRANCH   1  19
ATOM     19  C   UNL     1      -2.366  13.307  20.142  0.00  0.00    +0.000 C 
BRANCH  19  21
ATOM     20  C   UNL     1      -1.000  15.468  19.999  0.00  0.00    +0.000 C 
ATOM     21  C   UNL     1      -1.451  14.206  19.272  0.00  0.00    +0.000 C 
ENDBRANCH  19  21
BRANCH  19  22
ATOM     22  N   UNL     1      -3.506  12.879  19.318  0.00  0.00    +0.000 N 
ATOM     23  H   UNL     1      -3.338  12.159  18.625  0.00  0.00    +0.000 HD
BRANCH  22  24
ATOM     24  C   UNL     1      -4.768  12.720  19.884  0.00  0.00    +0.000 A 
ATOM     25  N   UNL     1      -5.084  13.604  20.872  0.00  0.00    +0.000 NA
ATOM     26  C   UNL     1      -6.273  13.489  21.506  0.00  0.00    +0.000 A 
ATOM     27  N   UNL     1      -7.248  12.586  21.297  0.00  0.00    +0.000 NA
ATOM     28  C   UNL     1      -6.902  11.744  20.316  0.00  0.00    +0.000 A 
ATOM     29  N   UNL     1      -7.639  10.691  19.858  0.00  0.00    +0.000 N 
ATOM     30  C   UNL     1      -6.923  10.090  18.860  0.00  0.00    +0.000 A 
ATOM     31  N   UNL     1      -5.781  10.705  18.643  0.00  0.00    +0.000 NA
ATOM     32  C   UNL     1      -5.735  11.736  19.567  0.00  0.00    +0.000 A 
ATOM     33  H   UNL     1      -8.541  10.412  20.212  0.00  0.00    +0.000 HD
ENDBRANCH  22  24
ENDBRANCH  19  22
ENDBRANCH   1  19
TORSDOF 5
ENDMDL
MODEL 9
REMARK VINA RESULT:      -6.9      4.332      6.836
REMARK  Name = 
REMARK  6 active torsions:
REMARK  status: ('A' for Active; 'I' for Inactive)
REMARK    1  A    between atoms: C_1  and  C_2
REMARK    2  A    between atoms: C_2  and  C_3
REMARK    3  A    between atoms: C_3  and  N_4
REMARK    4  A    between atoms: C_3  and  C_14
REMARK    5  A    between atoms: N_4  and  C_5
REMARK    6  A    between atoms: N_25  and  C_26
REMARK                            x       y       z     vdW  Elec       q    Type
REMARK                         _______ _______ _______ _____ _____    ______ ____
ROOT
ATOM      1  C   UNL     1      -1.500  13.408  20.276  0.00  0.00    +0.000 A 
ATOM      2  N   UNL     1      -1.461  14.587  19.729  0.00  0.00    +0.000 NA
ATOM      3  C   UNL     1      -0.239  15.157  19.379  0.00  0.00    +0.000 A 
ATOM      4  C   UNL     1      -0.222  16.508  19.016  0.00  0.00    +0.000 A 
ATOM      5  C   UNL     1       0.975  17.148  18.690  0.00  0.00    +0.000 A 
ATOM      6  C   UNL     1       2.164  16.423  18.711  0.00  0.00    +0.000 A 
ATOM      7  C   UNL     1       2.149  15.082  19.090  0.00  0.00    +0.000 A 
ATOM      8  F   UNL     1       3.322  14.431  19.117  0.00  0.00    +0.000 F 
ATOM      9  C   UNL     1       0.956  14.454  19.448  0.00  0.00    +0.000 A 
ATOM     10  C   UNL     1       0.903  13.079  19.975  0.00  0.00    +0.000 A 
ATOM     11  O   UNL     1       1.934  12.417  20.020  0.00  0.00    +0.000 OA
ATOM     12  N   UNL     1      -0.358  12.624  20.409  0.00  0.00    +0.000 N 
ENDROOT
BRANCH  12  13
ATOM     13  C   UNL     1      -0.383  11.356  21.058  0.00  0.00    +0.000 A 
ATOM     14  C   UNL     1      -0.411  11.296  22.458  0.00  0.00    +0.000 A 
ATOM     15  C   UNL     1      -0.465  10.064  23.109  0.00  0.00    +0.000 A 
ATOM     16  C   UNL     1      -0.469   8.885  22.368  0.00  0.00    +0.000 A 
ATOM     17  C   UNL     1      -0.397   8.936  20.977  0.00  0.00    +0.000 A 
ATOM     18  C   UNL     1      -0.345  10.168  20.323  0.00  0.00    +0.000 A 
ENDBRANCH  12  13
BRANCH   1  19
ATOM     19  C   UNL     1      -2.888  12.932  20.854  0.00  0.00    +0.000 C 
BRANCH  19  21
ATOM     20  C   UNL     1      -3.420  12.678  23.347  0.00  0.00    +0.000 C 
ATOM     21  C   UNL     1      -3.143  13.649  22.204  0.00  0.00    +0.000 C 
ENDBRANCH  19  21
BRANCH  19  22
ATOM     22  N   UNL     1      -3.967  13.302  19.927  0.00  0.00    +0.000 N 
ATOM     23  H   UNL     1      -3.725  13.895  19.142  0.00  0.00    +0.000 HD
BRANCH  22  24
ATOM     24  C   UNL     1      -4.928  12.368  19.550  0.00  0.00    +0.000 A 
ATOM     25  N   UNL     1      -4.773  11.839  18.303  0.00  0.00    +0.000 NA
ATOM     26  C   UNL     1      -5.691  10.958  17.841  0.00  0.00    +0.000 A 
ATOM     27  N   UNL     1      -6.793  10.498  18.459  0.00  0.00    +0.000 NA
ATOM     28  C   UNL     1      -6.902  11.036  19.680  0.00  0.00    +0.000 A 
ATOM     29  N   UNL     1      -7.909  10.812  20.574  0.00  0.00    +0.000 N 
ATOM     30  C   UNL     1      -7.643  11.555  21.689  0.00  0.00    +0.000 A 
ATOM     31  N   UNL     1      -6.518  12.228  21.568  0.00  0.00    +0.000 NA
ATOM     32  C   UNL     1      -6.048  11.935  20.299  0.00  0.00    +0.000 A 
ATOM     33  H   UNL     1      -8.706  10.214  20.418  0.00  0.00    +0.000 HD
ENDBRANCH  22  24
ENDBRANCH  19  22
ENDBRANCH   1  19
TORSDOF 5
ENDMDL
