MODEL 1
REMARK VINA RESULT:      -8.0      0.000      0.000
REMARK  Name = 
REMARK  8 active torsions:
REMARK  status: ('A' for Active; 'I' for Inactive)
REMARK    1  A    between atoms: C_2  and  C_3
REMARK    2  A    between atoms: C_2  and  C_8
REMARK    3  A    between atoms: C_3  and  O_5
REMARK    4  A    between atoms: O_5  and  C_6
REMARK    5  A    between atoms: C_6  and  C_7
REMARK    6  A    between atoms: C_11  and  C_12
REMARK    7  A    between atoms: C_18  and  O_19
REMARK    8  A    between atoms: C_20  and  O_21
REMARK                            x       y       z     vdW  Elec       q    Type
REMARK                         _______ _______ _______ _____ _____    ______ ____
ROOT
ATOM      1  C   UNL     1       5.029   4.543  17.396  0.00  0.00    +0.000 C 
ATOM      2  C   UNL     1       4.224   3.493  16.605  0.00  0.00    +0.000 C 
ATOM      3  C   UNL     1       3.277   2.637  17.429  0.00  0.00    +0.000 C 
ATOM      4  C   UNL     1       2.405   3.410  18.435  0.00  0.00    +0.000 C 
ATOM      5  C   UNL     1       1.324   4.234  17.666  0.00  0.00    +0.000 C 
ATOM      6  C   UNL     1       3.278   4.365  19.312  0.00  0.00    +0.000 C 
ATOM      7  C   UNL     1       2.358   5.008  20.364  0.00  0.00    +0.000 C 
ATOM      8  C   UNL     1       2.151   6.322  20.504  0.00  0.00    +0.000 C 
ATOM      9  C   UNL     1       1.611   4.026  21.254  0.00  0.00    +0.000 C 
ATOM     10  C   UNL     1       0.855   2.968  20.455  0.00  0.00    +0.000 C 
ATOM     11  C   UNL     1       1.738   2.353  19.372  0.00  0.00    +0.000 C 
ATOM     12  C   UNL     1       4.148   5.317  18.417  0.00  0.00    +0.000 C 
ENDROOT
BRANCH   1  14
ATOM     13  C   UNL     1       5.226   6.258  15.498  0.00  0.00    +0.000 C 
ATOM     14  C   UNL     1       5.791   5.494  16.455  0.00  0.00    +0.000 C 
BRANCH  14  15
ATOM     15  C   UNL     1       7.284   5.539  16.625  0.00  0.00    +0.000 C 
ATOM     16  O   UNL     1       7.975   4.540  16.759  0.00  0.00    +0.000 OA
BRANCH  15  17
ATOM     17  O   UNL     1       7.712   6.828  16.691  0.00  0.00    +0.000 OA
BRANCH  17  18
ATOM     18  C   UNL     1       7.787   7.438  17.984  0.00  0.00    +0.000 C 
ATOM     19  C   UNL     1       8.182   8.899  17.858  0.00  0.00    +0.000 C 
ENDBRANCH  17  18
ENDBRANCH  15  17
ENDBRANCH  14  15
ENDBRANCH   1  14
BRANCH  11  20
ATOM     20  O   UNL     1       0.986   1.389  18.637  0.00  0.00    +0.000 OA
ATOM     21  H   UNL     1       0.930   0.572  19.159  0.00  0.00    +0.000 HD
ENDBRANCH  11  20
BRANCH  12  22
ATOM     22  O   UNL     1       4.985   6.128  19.260  0.00  0.00    +0.000 OA
ATOM     23  H   UNL     1       5.830   5.664  19.403  0.00  0.00    +0.000 HD
ENDBRANCH  12  22
TORSDOF 6
ENDMDL
MODEL 2
REMARK VINA RESULT:      -7.6      1.305      2.011
REMARK  Name = 
REMARK  8 active torsions:
REMARK  status: ('A' for Active; 'I' for Inactive)
REMARK    1  A    between atoms: C_2  and  C_3
REMARK    2  A    between atoms: C_2  and  C_8
REMARK    3  A    between atoms: C_3  and  O_5
REMARK    4  A    between atoms: O_5  and  C_6
REMARK    5  A    between atoms: C_6  and  C_7
REMARK    6  A    between atoms: C_11  and  C_12
REMARK    7  A    between atoms: C_18  and  O_19
REMARK    8  A    between atoms: C_20  and  O_21
REMARK                            x       y       z     vdW  Elec       q    Type
REMARK                         _______ _______ _______ _____ _____    ______ ____
ROOT
ATOM      1  C   UNL     1       5.013   4.561  17.267  0.00  0.00    +0.000 C 
ATOM      2  C   UNL     1       4.184   3.494  16.524  0.00  0.00    +0.000 C 
ATOM      3  C   UNL     1       3.289   2.634  17.398  0.00  0.00    +0.000 C 
ATOM      4  C   UNL     1       2.455   3.404  18.439  0.00  0.00    +0.000 C 
ATOM      5  C   UNL     1       1.329   4.209  17.716  0.00  0.00    +0.000 C 
ATOM      6  C   UNL     1       3.357   4.378  19.265  0.00  0.00    +0.000 C 
ATOM      7  C   UNL     1       2.479   5.019  20.355  0.00  0.00    +0.000 C 
ATOM      8  C   UNL     1       2.264   6.331  20.494  0.00  0.00    +0.000 C 
ATOM      9  C   UNL     1       1.789   4.036  21.287  0.00  0.00    +0.000 C 
ATOM     10  C   UNL     1       1.009   2.961  20.533  0.00  0.00    +0.000 C 
ATOM     11  C   UNL     1       1.847   2.348  19.415  0.00  0.00    +0.000 C 
ATOM     12  C   UNL     1       4.172   5.332  18.322  0.00  0.00    +0.000 C 
ENDROOT
BRANCH   1  14
ATOM     13  C   UNL     1       5.191   6.654  15.795  0.00  0.00    +0.000 C 
ATOM     14  C   UNL     1       5.717   5.512  16.283  0.00  0.00    +0.000 C 
BRANCH  14  15
ATOM     15  C   UNL     1       7.091   5.102  15.833  0.00  0.00    +0.000 C 
ATOM     16  O   UNL     1       7.872   4.482  16.539  0.00  0.00    +0.000 OA
BRANCH  15  17
ATOM     17  O   UNL     1       7.345   5.591  14.590  0.00  0.00    +0.000 OA
BRANCH  17  18
ATOM     18  C   UNL     1       7.472   4.650  13.518  0.00  0.00    +0.000 C 
ATOM     19  C   UNL     1       6.179   3.875  13.337  0.00  0.00    +0.000 C 
ENDBRANCH  17  18
ENDBRANCH  15  17
ENDBRANCH  14  15
ENDBRANCH   1  14
BRANCH  11  20
ATOM     20  O   UNL     1       1.074   1.368  18.725  0.00  0.00    +0.000 OA
ATOM     21  H   UNL     1       0.291   1.154  19.258  0.00  0.00    +0.000 HD
ENDBRANCH  11  20
BRANCH  12  22
ATOM     22  O   UNL     1       5.038   6.160  19.118  0.00  0.00    +0.000 OA
ATOM     23  H   UNL     1       5.665   5.590  19.598  0.00  0.00    +0.000 HD
ENDBRANCH  12  22
TORSDOF 6
ENDMDL
MODEL 3
REMARK VINA RESULT:      -7.2      1.526      1.920
REMARK  Name = 
REMARK  8 active torsions:
REMARK  status: ('A' for Active; 'I' for Inactive)
REMARK    1  A    between atoms: C_2  and  C_3
REMARK    2  A    between atoms: C_2  and  C_8
REMARK    3  A    between atoms: C_3  and  O_5
REMARK    4  A    between atoms: O_5  and  C_6
REMARK    5  A    between atoms: C_6  and  C_7
REMARK    6  A    between atoms: C_11  and  C_12
REMARK    7  A    between atoms: C_18  and  O_19
REMARK    8  A    between atoms: C_20  and  O_21
REMARK                            x       y       z     vdW  Elec       q    Type
REMARK                         _______ _______ _______ _____ _____    ______ ____
ROOT
ATOM      1  C   UNL     1       5.111   4.597  16.960  0.00  0.00    +0.000 C 
ATOM      2  C   UNL     1       4.374   3.252  17.118  0.00  0.00    +0.000 C 
ATOM      3  C   UNL     1       3.530   3.110  18.372  0.00  0.00    +0.000 C 
ATOM      4  C   UNL     1       2.626   4.315  18.691  0.00  0.00    +0.000 C 
ATOM      5  C   UNL     1       1.455   4.380  17.659  0.00  0.00    +0.000 C 
ATOM      6  C   UNL     1       3.441   5.649  18.655  0.00  0.00    +0.000 C 
ATOM      7  C   UNL     1       2.502   6.784  19.098  0.00  0.00    +0.000 C 
ATOM      8  C   UNL     1       2.189   7.854  18.359  0.00  0.00    +0.000 C 
ATOM      9  C   UNL     1       1.869   6.601  20.469  0.00  0.00    +0.000 C 
ATOM     10  C   UNL     1       1.182   5.246  20.621  0.00  0.00    +0.000 C 
ATOM     11  C   UNL     1       2.080   4.110  20.140  0.00  0.00    +0.000 C 
ATOM     12  C   UNL     1       4.199   5.812  17.291  0.00  0.00    +0.000 C 
ENDROOT
BRANCH   1  14
ATOM     13  C   UNL     1       5.185   4.356  14.407  0.00  0.00    +0.000 C 
ATOM     14  C   UNL     1       5.760   4.724  15.570  0.00  0.00    +0.000 C 
BRANCH  14  15
ATOM     15  C   UNL     1       7.153   5.289  15.538  0.00  0.00    +0.000 C 
ATOM     16  O   UNL     1       7.885   5.214  14.562  0.00  0.00    +0.000 OA
BRANCH  15  17
ATOM     17  O   UNL     1       7.483   5.797  16.754  0.00  0.00    +0.000 OA
BRANCH  17  18
ATOM     18  C   UNL     1       7.809   4.871  17.797  0.00  0.00    +0.000 C 
ATOM     19  C   UNL     1       7.811   5.570  19.144  0.00  0.00    +0.000 C 
ENDBRANCH  17  18
ENDBRANCH  15  17
ENDBRANCH  14  15
ENDBRANCH   1  14
BRANCH  11  20
ATOM     20  O   UNL     1       1.392   2.868  20.279  0.00  0.00    +0.000 OA
ATOM     21  H   UNL     1       1.422   2.596  21.211  0.00  0.00    +0.000 HD
ENDBRANCH  11  20
BRANCH  12  22
ATOM     22  O   UNL     1       4.989   7.013  17.327  0.00  0.00    +0.000 OA
ATOM     23  H   UNL     1       4.953   7.440  16.452  0.00  0.00    +0.000 HD
ENDBRANCH  12  22
TORSDOF 6
ENDMDL
MODEL 4
REMARK VINA RESULT:      -7.1      1.641      2.678
REMARK  Name = 
REMARK  8 active torsions:
REMARK  status: ('A' for Active; 'I' for Inactive)
REMARK    1  A    between atoms: C_2  and  C_3
REMARK    2  A    between atoms: C_2  and  C_8
REMARK    3  A    between atoms: C_3  and  O_5
REMARK    4  A    between atoms: O_5  and  C_6
REMARK    5  A    between atoms: C_6  and  C_7
REMARK    6  A    between atoms: C_11  and  C_12
REMARK    7  A    between atoms: C_18  and  O_19
REMARK    8  A    between atoms: C_20  and  O_21
REMARK                            x       y       z     vdW  Elec       q    Type
REMARK                         _______ _______ _______ _____ _____    ______ ____
ROOT
ATOM      1  C   UNL     1       5.253   3.998  17.508  0.00  0.00    +0.000 C 
ATOM      2  C   UNL     1       4.367   2.951  16.805  0.00  0.00    +0.000 C 
ATOM      3  C   UNL     1       3.240   2.377  17.645  0.00  0.00    +0.000 C 
ATOM      4  C   UNL     1       2.413   3.414  18.428  0.00  0.00    +0.000 C 
ATOM      5  C   UNL     1       1.534   4.240  17.436  0.00  0.00    +0.000 C 
ATOM      6  C   UNL     1       3.346   4.373  19.237  0.00  0.00    +0.000 C 
ATOM      7  C   UNL     1       2.449   5.297  20.080  0.00  0.00    +0.000 C 
ATOM      8  C   UNL     1       2.431   6.632  19.999  0.00  0.00    +0.000 C 
ATOM      9  C   UNL     1       1.495   4.583  21.025  0.00  0.00    +0.000 C 
ATOM     10  C   UNL     1       0.657   3.520  20.319  0.00  0.00    +0.000 C 
ATOM     11  C   UNL     1       1.523   2.624  19.439  0.00  0.00    +0.000 C 
ATOM     12  C   UNL     1       4.418   5.040  18.304  0.00  0.00    +0.000 C 
ENDROOT
BRANCH   1  14
ATOM     13  C   UNL     1       7.560   4.745  16.670  0.00  0.00    +0.000 C 
ATOM     14  C   UNL     1       6.222   4.671  16.519  0.00  0.00    +0.000 C 
BRANCH  14  15
ATOM     15  C   UNL     1       5.598   5.306  15.308  0.00  0.00    +0.000 C 
ATOM     16  O   UNL     1       5.311   6.492  15.244  0.00  0.00    +0.000 OA
BRANCH  15  17
ATOM     17  O   UNL     1       5.334   4.363  14.365  0.00  0.00    +0.000 OA
BRANCH  17  18
ATOM     18  C   UNL     1       6.382   4.027  13.449  0.00  0.00    +0.000 C 
ATOM     19  C   UNL     1       5.821   3.279  12.253  0.00  0.00    +0.000 C 
ENDBRANCH  17  18
ENDBRANCH  15  17
ENDBRANCH  14  15
ENDBRANCH   1  14
BRANCH  11  20
ATOM     20  O   UNL     1       0.698   1.662  18.783  0.00  0.00    +0.000 OA
ATOM     21  H   UNL     1      -0.167   1.640  19.223  0.00  0.00    +0.000 HD
ENDBRANCH  11  20
BRANCH  12  22
ATOM     22  O   UNL     1       5.296   5.857  19.099  0.00  0.00    +0.000 OA
ATOM     23  H   UNL     1       6.218   5.640  18.872  0.00  0.00    +0.000 HD
ENDBRANCH  12  22
TORSDOF 6
ENDMDL
MODEL 5
REMARK VINA RESULT:      -7.1      0.954      1.225
REMARK  Name = 
REMARK  8 active torsions:
REMARK  status: ('A' for Active; 'I' for Inactive)
REMARK    1  A    between atoms: C_2  and  C_3
REMARK    2  A    between atoms: C_2  and  C_8
REMARK    3  A    between atoms: C_3  and  O_5
REMARK    4  A    between atoms: O_5  and  C_6
REMARK    5  A    between atoms: C_6  and  C_7
REMARK    6  A    between atoms: C_11  and  C_12
REMARK    7  A    between atoms: C_18  and  O_19
REMARK    8  A    between atoms: C_20  and  O_21
REMARK                            x       y       z     vdW  Elec       q    Type
REMARK                         _______ _______ _______ _____ _____    ______ ____
ROOT
ATOM      1  C   UNL     1       5.250   4.151  17.631  0.00  0.00    +0.000 C 
ATOM      2  C   UNL     1       4.360   3.310  16.693  0.00  0.00    +0.000 C 
ATOM      3  C   UNL     1       3.214   2.574  17.365  0.00  0.00    +0.000 C 
ATOM      4  C   UNL     1       2.391   3.412  18.360  0.00  0.00    +0.000 C 
ATOM      5  C   UNL     1       1.535   4.460  17.578  0.00  0.00    +0.000 C 
ATOM      6  C   UNL     1       3.324   4.143  19.379  0.00  0.00    +0.000 C 
ATOM      7  C   UNL     1       2.428   4.859  20.405  0.00  0.00    +0.000 C 
ATOM      8  C   UNL     1       2.428   6.176  20.637  0.00  0.00    +0.000 C 
ATOM      9  C   UNL     1       1.452   3.960  21.148  0.00  0.00    +0.000 C 
ATOM     10  C   UNL     1       0.610   3.103  20.205  0.00  0.00    +0.000 C 
ATOM     11  C   UNL     1       1.476   2.423  19.149  0.00  0.00    +0.000 C 
ATOM     12  C   UNL     1       4.417   4.991  18.639  0.00  0.00    +0.000 C 
ENDROOT
BRANCH   1  14
ATOM     13  C   UNL     1       7.467   4.631  16.433  0.00  0.00    +0.000 C 
ATOM     14  C   UNL     1       6.241   5.020  16.836  0.00  0.00    +0.000 C 
BRANCH  14  15
ATOM     15  C   UNL     1       5.787   6.417  16.514  0.00  0.00    +0.000 C 
ATOM     16  O   UNL     1       5.166   6.704  15.501  0.00  0.00    +0.000 OA
BRANCH  15  17
ATOM     17  O   UNL     1       6.239   7.288  17.454  0.00  0.00    +0.000 OA
BRANCH  17  18
ATOM     18  C   UNL     1       7.652   7.499  17.541  0.00  0.00    +0.000 C 
ATOM     19  C   UNL     1       7.953   8.957  17.837  0.00  0.00    +0.000 C 
ENDBRANCH  17  18
ENDBRANCH  15  17
ENDBRANCH  14  15
ENDBRANCH   1  14
BRANCH  11  20
ATOM     20  O   UNL     1       0.648   1.653  18.279  0.00  0.00    +0.000 OA
ATOM     21  H   UNL     1       1.202   1.009  17.809  0.00  0.00    +0.000 HD
ENDBRANCH  11  20
BRANCH  12  22
ATOM     22  O   UNL     1       5.294   5.587  19.611  0.00  0.00    +0.000 OA
ATOM     23  H   UNL     1       4.789   5.762  20.425  0.00  0.00    +0.000 HD
ENDBRANCH  12  22
TORSDOF 6
ENDMDL
MODEL 6
REMARK VINA RESULT:      -7.0      0.853      1.282
REMARK  Name = 
REMARK  8 active torsions:
REMARK  status: ('A' for Active; 'I' for Inactive)
REMARK    1  A    between atoms: C_2  and  C_3
REMARK    2  A    between atoms: C_2  and  C_8
REMARK    3  A    between atoms: C_3  and  O_5
REMARK    4  A    between atoms: O_5  and  C_6
REMARK    5  A    between atoms: C_6  and  C_7
REMARK    6  A    between atoms: C_11  and  C_12
REMARK    7  A    between atoms: C_18  and  O_19
REMARK    8  A    between atoms: C_20  and  O_21
REMARK                            x       y       z     vdW  Elec       q    Type
REMARK                         _______ _______ _______ _____ _____    ______ ____
ROOT
ATOM      1  C   UNL     1       4.947   4.958  17.409  0.00  0.00    +0.000 C 
ATOM      2  C   UNL     1       4.256   3.846  16.594  0.00  0.00    +0.000 C 
ATOM      3  C   UNL     1       3.405   2.878  17.397  0.00  0.00    +0.000 C 
ATOM      4  C   UNL     1       2.456   3.533  18.418  0.00  0.00    +0.000 C 
ATOM      5  C   UNL     1       1.295   4.256  17.665  0.00  0.00    +0.000 C 
ATOM      6  C   UNL     1       3.225   4.556  19.316  0.00  0.00    +0.000 C 
ATOM      7  C   UNL     1       2.242   5.076  20.381  0.00  0.00    +0.000 C 
ATOM      8  C   UNL     1       1.899   6.358  20.548  0.00  0.00    +0.000 C 
ATOM      9  C   UNL     1       1.603   4.003  21.248  0.00  0.00    +0.000 C 
ATOM     10  C   UNL     1       0.962   2.888  20.424  0.00  0.00    +0.000 C 
ATOM     11  C   UNL     1       1.904   2.393  19.331  0.00  0.00    +0.000 C 
ATOM     12  C   UNL     1       3.990   5.613  18.444  0.00  0.00    +0.000 C 
ENDROOT
BRANCH   1  14
ATOM     13  C   UNL     1       5.016   6.579  15.421  0.00  0.00    +0.000 C 
ATOM     14  C   UNL     1       5.605   6.003  16.490  0.00  0.00    +0.000 C 
BRANCH  14  15
ATOM     15  C   UNL     1       7.022   6.378  16.820  0.00  0.00    +0.000 C 
ATOM     16  O   UNL     1       7.412   7.535  16.888  0.00  0.00    +0.000 OA
BRANCH  15  17
ATOM     17  O   UNL     1       7.789   5.263  16.941  0.00  0.00    +0.000 OA
BRANCH  17  18
ATOM     18  C   UNL     1       7.854   4.635  18.226  0.00  0.00    +0.000 C 
ATOM     19  C   UNL     1       8.080   5.673  19.311  0.00  0.00    +0.000 C 
ENDBRANCH  17  18
ENDBRANCH  15  17
ENDBRANCH  14  15
ENDBRANCH   1  14
BRANCH  11  20
ATOM     20  O   UNL     1       1.258   1.371  18.574  0.00  0.00    +0.000 OA
ATOM     21  H   UNL     1       0.898   1.763  17.762  0.00  0.00    +0.000 HD
ENDBRANCH  11  20
BRANCH  12  22
ATOM     22  O   UNL     1       4.738   6.488  19.306  0.00  0.00    +0.000 OA
ATOM     23  H   UNL     1       4.173   6.750  20.055  0.00  0.00    +0.000 HD
ENDBRANCH  12  22
TORSDOF 6
ENDMDL
MODEL 7
REMARK VINA RESULT:      -6.9      1.642      2.679
REMARK  Name = 
REMARK  8 active torsions:
REMARK  status: ('A' for Active; 'I' for Inactive)
REMARK    1  A    between atoms: C_2  and  C_3
REMARK    2  A    between atoms: C_2  and  C_8
REMARK    3  A    between atoms: C_3  and  O_5
REMARK    4  A    between atoms: O_5  and  C_6
REMARK    5  A    between atoms: C_6  and  C_7
REMARK    6  A    between atoms: C_11  and  C_12
REMARK    7  A    between atoms: C_18  and  O_19
REMARK    8  A    between atoms: C_20  and  O_21
REMARK                            x       y       z     vdW  Elec       q    Type
REMARK                         _______ _______ _______ _____ _____    ______ ____
ROOT
ATOM      1  C   UNL     1       4.784   4.842  16.271  0.00  0.00    +0.000 C 
ATOM      2  C   UNL     1       4.479   6.231  16.867  0.00  0.00    +0.000 C 
ATOM      3  C   UNL     1       3.290   6.294  17.809  0.00  0.00    +0.000 C 
ATOM      4  C   UNL     1       3.235   5.177  18.868  0.00  0.00    +0.000 C 
ATOM      5  C   UNL     1       4.355   5.408  19.931  0.00  0.00    +0.000 C 
ATOM      6  C   UNL     1       3.413   3.772  18.206  0.00  0.00    +0.000 C 
ATOM      7  C   UNL     1       3.228   2.709  19.304  0.00  0.00    +0.000 C 
ATOM      8  C   UNL     1       4.148   1.806  19.659  0.00  0.00    +0.000 C 
ATOM      9  C   UNL     1       1.901   2.769  20.043  0.00  0.00    +0.000 C 
ATOM     10  C   UNL     1       1.595   4.163  20.587  0.00  0.00    +0.000 C 
ATOM     11  C   UNL     1       1.820   5.236  19.526  0.00  0.00    +0.000 C 
ATOM     12  C   UNL     1       4.721   3.715  17.340  0.00  0.00    +0.000 C 
ENDROOT
BRANCH   1  14
ATOM     13  C   UNL     1       6.261   4.600  14.188  0.00  0.00    +0.000 C 
ATOM     14  C   UNL     1       6.121   4.838  15.508  0.00  0.00    +0.000 C 
BRANCH  14  15
ATOM     15  C   UNL     1       7.353   5.104  16.327  0.00  0.00    +0.000 C 
ATOM     16  O   UNL     1       8.005   4.221  16.864  0.00  0.00    +0.000 OA
BRANCH  15  17
ATOM     17  O   UNL     1       7.564   6.442  16.440  0.00  0.00    +0.000 OA
BRANCH  17  18
ATOM     18  C   UNL     1       7.689   6.986  17.759  0.00  0.00    +0.000 C 
ATOM     19  C   UNL     1       7.904   8.488  17.693  0.00  0.00    +0.000 C 
ENDBRANCH  17  18
ENDBRANCH  15  17
ENDBRANCH  14  15
ENDBRANCH   1  14
BRANCH  11  20
ATOM     20  O   UNL     1       1.545   6.520  20.083  0.00  0.00    +0.000 OA
ATOM     21  H   UNL     1       2.191   6.702  20.785  0.00  0.00    +0.000 HD
ENDBRANCH  11  20
BRANCH  12  22
ATOM     22  O   UNL     1       4.808   2.433  16.695  0.00  0.00    +0.000 OA
ATOM     23  H   UNL     1       5.609   2.414  16.140  0.00  0.00    +0.000 HD
ENDBRANCH  12  22
TORSDOF 6
ENDMDL
MODEL 8
REMARK VINA RESULT:      -6.9      2.282      3.890
REMARK  Name = 
REMARK  8 active torsions:
REMARK  status: ('A' for Active; 'I' for Inactive)
REMARK    1  A    between atoms: C_2  and  C_3
REMARK    2  A    between atoms: C_2  and  C_8
REMARK    3  A    between atoms: C_3  and  O_5
REMARK    4  A    between atoms: O_5  and  C_6
REMARK    5  A    between atoms: C_6  and  C_7
REMARK    6  A    between atoms: C_11  and  C_12
REMARK    7  A    between atoms: C_18  and  O_19
REMARK    8  A    between atoms: C_20  and  O_21
REMARK                            x       y       z     vdW  Elec       q    Type
REMARK                         _______ _______ _______ _____ _____    ______ ____
ROOT
ATOM      1  C   UNL     1       5.196   4.964  16.544  0.00  0.00    +0.000 C 
ATOM      2  C   UNL     1       5.017   6.191  17.461  0.00  0.00    +0.000 C 
ATOM      3  C   UNL     1       3.681   6.286  18.175  0.00  0.00    +0.000 C 
ATOM      4  C   UNL     1       3.199   4.983  18.839  0.00  0.00    +0.000 C 
ATOM      5  C   UNL     1       4.082   4.676  20.090  0.00  0.00    +0.000 C 
ATOM      6  C   UNL     1       3.268   3.787  17.834  0.00  0.00    +0.000 C 
ATOM      7  C   UNL     1       2.663   2.555  18.530  0.00  0.00    +0.000 C 
ATOM      8  C   UNL     1       3.309   1.405  18.751  0.00  0.00    +0.000 C 
ATOM      9  C   UNL     1       1.238   2.731  19.030  0.00  0.00    +0.000 C 
ATOM     10  C   UNL     1       1.070   3.975  19.899  0.00  0.00    +0.000 C 
ATOM     11  C   UNL     1       1.708   5.198  19.248  0.00  0.00    +0.000 C 
ATOM     12  C   UNL     1       4.703   3.651  17.214  0.00  0.00    +0.000 C 
ENDROOT
BRANCH   1  14
ATOM     13  C   UNL     1       7.736   4.740  16.826  0.00  0.00    +0.000 C 
ATOM     14  C   UNL     1       6.646   4.845  16.040  0.00  0.00    +0.000 C 
BRANCH  14  15
ATOM     15  C   UNL     1       6.832   4.870  14.548  0.00  0.00    +0.000 C 
ATOM     16  O   UNL     1       7.714   5.510  13.993  0.00  0.00    +0.000 OA
BRANCH  15  17
ATOM     17  O   UNL     1       5.845   4.164  13.937  0.00  0.00    +0.000 OA
BRANCH  17  18
ATOM     18  C   UNL     1       6.163   3.503  12.708  0.00  0.00    +0.000 C 
ATOM     19  C   UNL     1       4.909   3.301  11.875  0.00  0.00    +0.000 C 
ENDBRANCH  17  18
ENDBRANCH  15  17
ENDBRANCH  14  15
ENDBRANCH   1  14
BRANCH  11  20
ATOM     20  O   UNL     1       1.548   6.330  20.102  0.00  0.00    +0.000 OA
ATOM     21  H   UNL     1       1.548   6.027  21.025  0.00  0.00    +0.000 HD
ENDBRANCH  11  20
BRANCH  12  22
ATOM     22  O   UNL     1       4.703   2.586  16.246  0.00  0.00    +0.000 OA
ATOM     23  H   UNL     1       5.247   1.853  16.586  0.00  0.00    +0.000 HD
ENDBRANCH  12  22
TORSDOF 6
ENDMDL
MODEL 9
REMARK VINA RESULT:      -6.8      1.986      2.776
REMARK  Name = 
REMARK  8 active torsions:
REMARK  status: ('A' for Active; 'I' for Inactive)
REMARK    1  A    between atoms: C_2  and  C_3
REMARK    2  A    between atoms: C_2  and  C_8
REMARK    3  A    between atoms: C_3  and  O_5
REMARK    4  A    between atoms: O_5  and  C_6
REMARK    5  A    between atoms: C_6  and  C_7
REMARK    6  A    between atoms: C_11  and  C_12
REMARK    7  A    between atoms: C_18  and  O_19
REMARK    8  A    between atoms: C_20  and  O_21
REMARK                            x       y       z     vdW  Elec       q    Type
REMARK                         _______ _______ _______ _____ _____    ______ ____
ROOT
ATOM      1  C   UNL     1       5.151   4.616  16.875  0.00  0.00    +0.000 C 
ATOM      2  C   UNL     1       4.456   3.280  17.206  0.00  0.00    +0.000 C 
ATOM      3  C   UNL     1       3.677   3.252  18.509  0.00  0.00    +0.000 C 
ATOM      4  C   UNL     1       2.759   4.465  18.748  0.00  0.00    +0.000 C 
ATOM      5  C   UNL     1       1.539   4.399  17.775  0.00  0.00    +0.000 C 
ATOM      6  C   UNL     1       3.537   5.804  18.535  0.00  0.00    +0.000 C 
ATOM      7  C   UNL     1       2.592   6.960  18.905  0.00  0.00    +0.000 C 
ATOM      8  C   UNL     1       2.217   7.941  18.077  0.00  0.00    +0.000 C 
ATOM      9  C   UNL     1       2.031   6.907  20.318  0.00  0.00    +0.000 C 
ATOM     10  C   UNL     1       1.387   5.562  20.643  0.00  0.00    +0.000 C 
ATOM     11  C   UNL     1       2.289   4.401  20.236  0.00  0.00    +0.000 C 
ATOM     12  C   UNL     1       4.225   5.840  17.124  0.00  0.00    +0.000 C 
ENDROOT
BRANCH   1  14
ATOM     13  C   UNL     1       5.103   4.123  14.358  0.00  0.00    +0.000 C 
ATOM     14  C   UNL     1       5.728   4.612  15.448  0.00  0.00    +0.000 C 
BRANCH  14  15
ATOM     15  C   UNL     1       7.109   5.186  15.290  0.00  0.00    +0.000 C 
ATOM     16  O   UNL     1       7.546   6.086  15.992  0.00  0.00    +0.000 OA
BRANCH  15  17
ATOM     17  O   UNL     1       7.734   4.623  14.223  0.00  0.00    +0.000 OA
BRANCH  17  18
ATOM     18  C   UNL     1       8.064   5.474  13.120  0.00  0.00    +0.000 C 
ATOM     19  C   UNL     1       7.481   4.922  11.831  0.00  0.00    +0.000 C 
ENDBRANCH  17  18
ENDBRANCH  15  17
ENDBRANCH  14  15
ENDBRANCH   1  14
BRANCH  11  20
ATOM     20  O   UNL     1       1.640   3.166  20.536  0.00  0.00    +0.000 OA
ATOM     21  H   UNL     1       1.772   2.964  21.477  0.00  0.00    +0.000 HD
ENDBRANCH  11  20
BRANCH  12  22
ATOM     22  O   UNL     1       4.986   7.054  16.997  0.00  0.00    +0.000 OA
ATOM     23  H   UNL     1       4.476   7.690  16.464  0.00  0.00    +0.000 HD
ENDBRANCH  12  22
TORSDOF 6
ENDMDL
