MODEL 1
REMARK VINA RESULT:      -5.7      0.000      0.000
REMARK  Name = 
REMARK  10 active torsions:
REMARK  status: ('A' for Active; 'I' for Inactive)
REMARK    1  A    between atoms: C_1  and  C_2
REMARK    2  A    between atoms: C_2  and  O_3
REMARK    3  A    between atoms: O_3  and  C_4
REMARK    4  A    between atoms: C_4  and  C_5
REMARK    5  A    between atoms: C_5  and  C_6
REMARK    6  A    between atoms: C_6  and  N_7
REMARK    7  A    between atoms: C_8  and  C_10
REMARK    8  A    between atoms: C_15  and  S_16
REMARK    9  A    between atoms: S_16  and  C_17
REMARK   10  A    between atoms: C_17  and  C_18
REMARK                            x       y       z     vdW  Elec       q    Type
REMARK                         _______ _______ _______ _____ _____    ______ ____
ROOT
ATOM      1  N   UNL     1       3.651   5.078  18.570  0.00  0.00    +0.000 N 
ATOM      2  C   UNL     1       4.930   4.590  18.531  0.00  0.00    +0.000 C 
ATOM      3  O   UNL     1       5.441   4.033  19.513  0.00  0.00    +0.000 OA
ATOM      4  H   UNL     1       3.356   5.676  17.797  0.00  0.00    +0.000 HD
ENDROOT
BRANCH   2   5
ATOM      5  C   UNL     1       5.709   4.720  17.258  0.00  0.00    +0.000 A 
ATOM      6  C   UNL     1       5.245   3.889  16.211  0.00  0.00    +0.000 A 
ATOM      7  C   UNL     1       5.856   3.877  14.965  0.00  0.00    +0.000 A 
ATOM      8  C   UNL     1       6.933   4.719  14.737  0.00  0.00    +0.000 A 
ATOM      9  C   UNL     1       7.412   5.541  15.744  0.00  0.00    +0.000 A 
ATOM     10  C   UNL     1       6.824   5.561  17.018  0.00  0.00    +0.000 A 
BRANCH  10  11
ATOM     11  S   UNL     1       7.690   6.556  18.243  0.00  0.00    +0.000 S 
BRANCH  11  12
ATOM     12  C   UNL     1       7.681   8.228  17.495  0.00  0.00    +0.000 C 
ATOM     13  C   UNL     1       8.481   9.265  18.258  0.00  0.00    +0.000 C 
ENDBRANCH  11  12
ENDBRANCH  10  11
ENDBRANCH   2   5
BRANCH   1  14
ATOM     14  C   UNL     1       2.836   4.987  19.757  0.00  0.00    +0.000 C 
BRANCH  14  15
ATOM     15  C   UNL     1       1.628   4.074  19.569  0.00  0.00    +0.000 C 
BRANCH  15  16
ATOM     16  C   UNL     1       1.270   3.912  18.097  0.00  0.00    +0.000 C 
BRANCH  16  17
ATOM     17  O   UNL     1       1.986   2.800  17.557  0.00  0.00    +0.000 OA
BRANCH  17  19
ATOM     18  C   UNL     1       3.595   1.234  18.400  0.00  0.00    +0.000 C 
ATOM     19  C   UNL     1       2.193   1.793  18.544  0.00  0.00    +0.000 C 
ENDBRANCH  17  19
ENDBRANCH  16  17
ENDBRANCH  15  16
ENDBRANCH  14  15
ENDBRANCH   1  14
TORSDOF 8
ENDMDL
MODEL 2
REMARK VINA RESULT:      -5.7      2.192      5.496
REMARK  Name = 
REMARK  10 active torsions:
REMARK  status: ('A' for Active; 'I' for Inactive)
REMARK    1  A    between atoms: C_1  and  C_2
REMARK    2  A    between atoms: C_2  and  O_3
REMARK    3  A    between atoms: O_3  and  C_4
REMARK    4  A    between atoms: C_4  and  C_5
REMARK    5  A    between atoms: C_5  and  C_6
REMARK    6  A    between atoms: C_6  and  N_7
REMARK    7  A    between atoms: C_8  and  C_10
REMARK    8  A    between atoms: C_15  and  S_16
REMARK    9  A    between atoms: S_16  and  C_17
REMARK   10  A    between atoms: C_17  and  C_18
REMARK                            x       y       z     vdW  Elec       q    Type
REMARK                         _______ _______ _______ _____ _____    ______ ____
ROOT
ATOM      1  N   UNL     1       4.696   3.913  16.787  0.00  0.00    +0.000 N 
ATOM      2  C   UNL     1       4.572   3.776  18.144  0.00  0.00    +0.000 C 
ATOM      3  O   UNL     1       5.556   3.835  18.895  0.00  0.00    +0.000 OA
ATOM      4  H   UNL     1       3.882   3.680  16.218  0.00  0.00    +0.000 HD
ENDROOT
BRANCH   2   5
ATOM      5  C   UNL     1       3.204   3.574  18.722  0.00  0.00    +0.000 A 
ATOM      6  C   UNL     1       2.661   2.291  18.483  0.00  0.00    +0.000 A 
ATOM      7  C   UNL     1       1.400   1.936  18.941  0.00  0.00    +0.000 A 
ATOM      8  C   UNL     1       0.667   2.858  19.673  0.00  0.00    +0.000 A 
ATOM      9  C   UNL     1       1.172   4.124  19.921  0.00  0.00    +0.000 A 
ATOM     10  C   UNL     1       2.437   4.514  19.454  0.00  0.00    +0.000 A 
BRANCH  10  11
ATOM     11  S   UNL     1       2.847   6.247  19.719  0.00  0.00    +0.000 S 
BRANCH  11  12
ATOM     12  C   UNL     1       2.408   7.022  18.118  0.00  0.00    +0.000 C 
ATOM     13  C   UNL     1       2.010   8.482  18.211  0.00  0.00    +0.000 C 
ENDBRANCH  11  12
ENDBRANCH  10  11
ENDBRANCH   2   5
BRANCH   1  14
ATOM     14  C   UNL     1       5.978   4.115  16.156  0.00  0.00    +0.000 C 
BRANCH  14  15
ATOM     15  C   UNL     1       5.994   5.337  15.241  0.00  0.00    +0.000 C 
BRANCH  15  16
ATOM     16  C   UNL     1       5.254   6.515  15.864  0.00  0.00    +0.000 C 
BRANCH  16  17
ATOM     17  O   UNL     1       5.718   6.707  17.202  0.00  0.00    +0.000 OA
BRANCH  17  19
ATOM     18  C   UNL     1       7.829   6.730  18.339  0.00  0.00    +0.000 C 
ATOM     19  C   UNL     1       7.002   7.327  17.218  0.00  0.00    +0.000 C 
ENDBRANCH  17  19
ENDBRANCH  16  17
ENDBRANCH  15  16
ENDBRANCH  14  15
ENDBRANCH   1  14
TORSDOF 8
ENDMDL
MODEL 3
REMARK VINA RESULT:      -5.6      2.635      6.247
REMARK  Name = 
REMARK  10 active torsions:
REMARK  status: ('A' for Active; 'I' for Inactive)
REMARK    1  A    between atoms: C_1  and  C_2
REMARK    2  A    between atoms: C_2  and  O_3
REMARK    3  A    between atoms: O_3  and  C_4
REMARK    4  A    between atoms: C_4  and  C_5
REMARK    5  A    between atoms: C_5  and  C_6
REMARK    6  A    between atoms: C_6  and  N_7
REMARK    7  A    between atoms: C_8  and  C_10
REMARK    8  A    between atoms: C_15  and  S_16
REMARK    9  A    between atoms: S_16  and  C_17
REMARK   10  A    between atoms: C_17  and  C_18
REMARK                            x       y       z     vdW  Elec       q    Type
REMARK                         _______ _______ _______ _____ _____    ______ ____
ROOT
ATOM      1  N   UNL     1       4.464   4.834  17.448  0.00  0.00    +0.000 N 
ATOM      2  C   UNL     1       3.118   4.944  17.675  0.00  0.00    +0.000 C 
ATOM      3  O   UNL     1       2.314   4.119  17.217  0.00  0.00    +0.000 OA
ATOM      4  H   UNL     1       5.046   5.633  17.699  0.00  0.00    +0.000 HD
ENDROOT
BRANCH   2   5
ATOM      5  C   UNL     1       2.623   6.080  18.517  0.00  0.00    +0.000 A 
ATOM      6  C   UNL     1       2.578   7.322  17.842  0.00  0.00    +0.000 A 
ATOM      7  C   UNL     1       2.151   8.481  18.474  0.00  0.00    +0.000 A 
ATOM      8  C   UNL     1       1.736   8.411  19.796  0.00  0.00    +0.000 A 
ATOM      9  C   UNL     1       1.772   7.210  20.484  0.00  0.00    +0.000 A 
ATOM     10  C   UNL     1       2.215   6.026  19.873  0.00  0.00    +0.000 A 
BRANCH  10  11
ATOM     11  S   UNL     1       2.359   4.608  20.972  0.00  0.00    +0.000 S 
BRANCH  11  12
ATOM     12  C   UNL     1       0.967   3.538  20.446  0.00  0.00    +0.000 C 
ATOM     13  C   UNL     1       1.384   2.234  19.795  0.00  0.00    +0.000 C 
ENDBRANCH  11  12
ENDBRANCH  10  11
ENDBRANCH   2   5
BRANCH   1  14
ATOM     14  C   UNL     1       5.018   3.766  16.651  0.00  0.00    +0.000 C 
BRANCH  14  15
ATOM     15  C   UNL     1       6.256   4.199  15.872  0.00  0.00    +0.000 C 
BRANCH  15  16
ATOM     16  C   UNL     1       7.297   4.841  16.782  0.00  0.00    +0.000 C 
BRANCH  16  17
ATOM     17  O   UNL     1       7.384   6.236  16.487  0.00  0.00    +0.000 OA
BRANCH  17  19
ATOM     18  C   UNL     1       7.777   6.103  18.849  0.00  0.00    +0.000 C 
ATOM     19  C   UNL     1       7.447   7.012  17.681  0.00  0.00    +0.000 C 
ENDBRANCH  17  19
ENDBRANCH  16  17
ENDBRANCH  15  16
ENDBRANCH  14  15
ENDBRANCH   1  14
TORSDOF 8
ENDMDL
MODEL 4
REMARK VINA RESULT:      -5.5      2.497      5.957
REMARK  Name = 
REMARK  10 active torsions:
REMARK  status: ('A' for Active; 'I' for Inactive)
REMARK    1  A    between atoms: C_1  and  C_2
REMARK    2  A    between atoms: C_2  and  O_3
REMARK    3  A    between atoms: O_3  and  C_4
REMARK    4  A    between atoms: C_4  and  C_5
REMARK    5  A    between atoms: C_5  and  C_6
REMARK    6  A    between atoms: C_6  and  N_7
REMARK    7  A    between atoms: C_8  and  C_10
REMARK    8  A    between atoms: C_15  and  S_16
REMARK    9  A    between atoms: S_16  and  C_17
REMARK   10  A    between atoms: C_17  and  C_18
REMARK                            x       y       z     vdW  Elec       q    Type
REMARK                         _______ _______ _______ _____ _____    ______ ____
ROOT
ATOM      1  N   UNL     1       5.329   5.767  17.705  0.00  0.00    +0.000 N 
ATOM      2  C   UNL     1       5.240   5.332  19.001  0.00  0.00    +0.000 C 
ATOM      3  O   UNL     1       6.249   5.169  19.701  0.00  0.00    +0.000 OA
ATOM      4  H   UNL     1       4.485   5.712  17.135  0.00  0.00    +0.000 HD
ENDROOT
BRANCH   2   5
ATOM      5  C   UNL     1       3.882   5.075  19.579  0.00  0.00    +0.000 A 
ATOM      6  C   UNL     1       3.090   6.237  19.730  0.00  0.00    +0.000 A 
ATOM      7  C   UNL     1       1.807   6.181  20.258  0.00  0.00    +0.000 A 
ATOM      8  C   UNL     1       1.283   4.950  20.622  0.00  0.00    +0.000 A 
ATOM      9  C   UNL     1       2.037   3.796  20.488  0.00  0.00    +0.000 A 
ATOM     10  C   UNL     1       3.342   3.825  19.974  0.00  0.00    +0.000 A 
BRANCH  10  11
ATOM     11  S   UNL     1       4.225   2.258  20.040  0.00  0.00    +0.000 S 
BRANCH  11  12
ATOM     12  C   UNL     1       3.574   1.358  18.584  0.00  0.00    +0.000 C 
ATOM     13  C   UNL     1       3.037   2.247  17.480  0.00  0.00    +0.000 C 
ENDBRANCH  11  12
ENDBRANCH  10  11
ENDBRANCH   2   5
BRANCH   1  14
ATOM     14  C   UNL     1       6.601   6.041  17.080  0.00  0.00    +0.000 C 
BRANCH  14  15
ATOM     15  C   UNL     1       7.228   4.795  16.460  0.00  0.00    +0.000 C 
BRANCH  15  16
ATOM     16  C   UNL     1       7.097   4.795  14.942  0.00  0.00    +0.000 C 
BRANCH  16  17
ATOM     17  O   UNL     1       6.386   3.626  14.531  0.00  0.00    +0.000 OA
BRANCH  17  19
ATOM     18  C   UNL     1       5.970   3.309  12.190  0.00  0.00    +0.000 C 
ATOM     19  C   UNL     1       5.468   3.924  13.481  0.00  0.00    +0.000 C 
ENDBRANCH  17  19
ENDBRANCH  16  17
ENDBRANCH  15  16
ENDBRANCH  14  15
ENDBRANCH   1  14
TORSDOF 8
ENDMDL
MODEL 5
REMARK VINA RESULT:      -5.5      1.137      1.694
REMARK  Name = 
REMARK  10 active torsions:
REMARK  status: ('A' for Active; 'I' for Inactive)
REMARK    1  A    between atoms: C_1  and  C_2
REMARK    2  A    between atoms: C_2  and  O_3
REMARK    3  A    between atoms: O_3  and  C_4
REMARK    4  A    between atoms: C_4  and  C_5
REMARK    5  A    between atoms: C_5  and  C_6
REMARK    6  A    between atoms: C_6  and  N_7
REMARK    7  A    between atoms: C_8  and  C_10
REMARK    8  A    between atoms: C_15  and  S_16
REMARK    9  A    between atoms: S_16  and  C_17
REMARK   10  A    between atoms: C_17  and  C_18
REMARK                            x       y       z     vdW  Elec       q    Type
REMARK                         _______ _______ _______ _____ _____    ______ ____
ROOT
ATOM      1  N   UNL     1       4.964   2.916  19.129  0.00  0.00    +0.000 N 
ATOM      2  C   UNL     1       5.236   4.223  18.825  0.00  0.00    +0.000 C 
ATOM      3  O   UNL     1       5.056   5.131  19.649  0.00  0.00    +0.000 OA
ATOM      4  H   UNL     1       4.966   2.248  18.358  0.00  0.00    +0.000 HD
ENDROOT
BRANCH   2   5
ATOM      5  C   UNL     1       5.786   4.545  17.469  0.00  0.00    +0.000 A 
ATOM      6  C   UNL     1       5.252   3.752  16.427  0.00  0.00    +0.000 A 
ATOM      7  C   UNL     1       5.656   3.911  15.109  0.00  0.00    +0.000 A 
ATOM      8  C   UNL     1       6.589   4.891  14.806  0.00  0.00    +0.000 A 
ATOM      9  C   UNL     1       7.132   5.681  15.806  0.00  0.00    +0.000 A 
ATOM     10  C   UNL     1       6.754   5.529  17.149  0.00  0.00    +0.000 A 
BRANCH  10  11
ATOM     11  S   UNL     1       7.693   6.519  18.324  0.00  0.00    +0.000 S 
BRANCH  11  12
ATOM     12  C   UNL     1       7.647   8.193  17.580  0.00  0.00    +0.000 C 
ATOM     13  C   UNL     1       8.500   9.224  18.291  0.00  0.00    +0.000 C 
ENDBRANCH  11  12
ENDBRANCH  10  11
ENDBRANCH   2   5
BRANCH   1  14
ATOM     14  C   UNL     1       4.437   2.526  20.415  0.00  0.00    +0.000 C 
BRANCH  14  15
ATOM     15  C   UNL     1       2.952   2.178  20.357  0.00  0.00    +0.000 C 
BRANCH  15  16
ATOM     16  C   UNL     1       2.490   1.922  18.927  0.00  0.00    +0.000 C 
BRANCH  16  17
ATOM     17  O   UNL     1       1.145   2.383  18.778  0.00  0.00    +0.000 OA
BRANCH  17  19
ATOM     18  C   UNL     1       1.774   4.382  17.612  0.00  0.00    +0.000 C 
ATOM     19  C   UNL     1       1.080   3.806  18.830  0.00  0.00    +0.000 C 
ENDBRANCH  17  19
ENDBRANCH  16  17
ENDBRANCH  15  16
ENDBRANCH  14  15
ENDBRANCH   1  14
TORSDOF 8
ENDMDL
MODEL 6
REMARK VINA RESULT:      -5.4      2.296      3.439
REMARK  Name = 
REMARK  10 active torsions:
REMARK  status: ('A' for Active; 'I' for Inactive)
REMARK    1  A    between atoms: C_1  and  C_2
REMARK    2  A    between atoms: C_2  and  O_3
REMARK    3  A    between atoms: O_3  and  C_4
REMARK    4  A    between atoms: C_4  and  C_5
REMARK    5  A    between atoms: C_5  and  C_6
REMARK    6  A    between atoms: C_6  and  N_7
REMARK    7  A    between atoms: C_8  and  C_10
REMARK    8  A    between atoms: C_15  and  S_16
REMARK    9  A    between atoms: S_16  and  C_17
REMARK   10  A    between atoms: C_17  and  C_18
REMARK                            x       y       z     vdW  Elec       q    Type
REMARK                         _______ _______ _______ _____ _____    ______ ____
ROOT
ATOM      1  N   UNL     1       3.902   3.043  17.846  0.00  0.00    +0.000 N 
ATOM      2  C   UNL     1       4.801   3.670  18.668  0.00  0.00    +0.000 C 
ATOM      3  O   UNL     1       5.102   3.201  19.775  0.00  0.00    +0.000 OA
ATOM      4  H   UNL     1       3.569   3.565  17.035  0.00  0.00    +0.000 HD
ENDROOT
BRANCH   2   5
ATOM      5  C   UNL     1       5.444   4.937  18.194  0.00  0.00    +0.000 A 
ATOM      6  C   UNL     1       6.855   4.880  18.134  0.00  0.00    +0.000 A 
ATOM      7  C   UNL     1       7.613   5.968  17.723  0.00  0.00    +0.000 A 
ATOM      8  C   UNL     1       6.963   7.132  17.341  0.00  0.00    +0.000 A 
ATOM      9  C   UNL     1       5.581   7.219  17.393  0.00  0.00    +0.000 A 
ATOM     10  C   UNL     1       4.793   6.140  17.821  0.00  0.00    +0.000 A 
BRANCH  10  11
ATOM     11  S   UNL     1       3.037   6.496  17.990  0.00  0.00    +0.000 S 
BRANCH  11  12
ATOM     12  C   UNL     1       2.961   8.310  17.742  0.00  0.00    +0.000 C 
ATOM     13  C   UNL     1       1.584   8.916  17.932  0.00  0.00    +0.000 C 
ENDBRANCH  11  12
ENDBRANCH  10  11
ENDBRANCH   2   5
BRANCH   1  14
ATOM     14  C   UNL     1       3.245   1.816  18.229  0.00  0.00    +0.000 C 
BRANCH  14  15
ATOM     15  C   UNL     1       1.727   1.899  18.090  0.00  0.00    +0.000 C 
BRANCH  15  16
ATOM     16  C   UNL     1       1.065   2.314  19.399  0.00  0.00    +0.000 C 
BRANCH  16  17
ATOM     17  O   UNL     1       2.050   2.357  20.432  0.00  0.00    +0.000 OA
BRANCH  17  19
ATOM     18  C   UNL     1       2.149   4.636  21.169  0.00  0.00    +0.000 C 
ATOM     19  C   UNL     1       1.657   3.237  21.482  0.00  0.00    +0.000 C 
ENDBRANCH  17  19
ENDBRANCH  16  17
ENDBRANCH  15  16
ENDBRANCH  14  15
ENDBRANCH   1  14
TORSDOF 8
ENDMDL
MODEL 7
REMARK VINA RESULT:      -5.4      2.111      5.856
REMARK  Name = 
REMARK  10 active torsions:
REMARK  status: ('A' for Active; 'I' for Inactive)
REMARK    1  A    between atoms: C_1  and  C_2
REMARK    2  A    between atoms: C_2  and  O_3
REMARK    3  A    between atoms: O_3  and  C_4
REMARK    4  A    between atoms: C_4  and  C_5
REMARK    5  A    between atoms: C_5  and  C_6
REMARK    6  A    between atoms: C_6  and  N_7
REMARK    7  A    between atoms: C_8  and  C_10
REMARK    8  A    between atoms: C_15  and  S_16
REMARK    9  A    between atoms: S_16  and  C_17
REMARK   10  A    between atoms: C_17  and  C_18
REMARK                            x       y       z     vdW  Elec       q    Type
REMARK                         _______ _______ _______ _____ _____    ______ ____
ROOT
ATOM      1  N   UNL     1       4.779   4.054  17.122  0.00  0.00    +0.000 N 
ATOM      2  C   UNL     1       4.641   3.858  18.471  0.00  0.00    +0.000 C 
ATOM      3  O   UNL     1       5.623   3.834  19.227  0.00  0.00    +0.000 OA
ATOM      4  H   UNL     1       3.958   3.888  16.540  0.00  0.00    +0.000 HD
ENDROOT
BRANCH   2   5
ATOM      5  C   UNL     1       3.262   3.696  19.034  0.00  0.00    +0.000 A 
ATOM      6  C   UNL     1       2.803   2.359  19.059  0.00  0.00    +0.000 A 
ATOM      7  C   UNL     1       1.544   2.028  19.542  0.00  0.00    +0.000 A 
ATOM      8  C   UNL     1       0.728   3.036  20.034  0.00  0.00    +0.000 A 
ATOM      9  C   UNL     1       1.149   4.355  20.019  0.00  0.00    +0.000 A 
ATOM     10  C   UNL     1       2.410   4.719  19.520  0.00  0.00    +0.000 A 
BRANCH  10  11
ATOM     11  S   UNL     1       2.709   6.491  19.419  0.00  0.00    +0.000 S 
BRANCH  11  12
ATOM     12  C   UNL     1       1.673   7.161  20.773  0.00  0.00    +0.000 C 
ATOM     13  C   UNL     1       1.223   8.595  20.574  0.00  0.00    +0.000 C 
ENDBRANCH  11  12
ENDBRANCH  10  11
ENDBRANCH   2   5
BRANCH   1  14
ATOM     14  C   UNL     1       6.073   4.223  16.506  0.00  0.00    +0.000 C 
BRANCH  14  15
ATOM     15  C   UNL     1       6.180   5.525  15.718  0.00  0.00    +0.000 C 
BRANCH  15  16
ATOM     16  C   UNL     1       5.682   6.716  16.529  0.00  0.00    +0.000 C 
BRANCH  16  17
ATOM     17  O   UNL     1       6.325   6.717  17.805  0.00  0.00    +0.000 OA
BRANCH  17  19
ATOM     18  C   UNL     1       7.793   8.610  17.690  0.00  0.00    +0.000 C 
ATOM     19  C   UNL     1       7.694   7.098  17.692  0.00  0.00    +0.000 C 
ENDBRANCH  17  19
ENDBRANCH  16  17
ENDBRANCH  15  16
ENDBRANCH  14  15
ENDBRANCH   1  14
TORSDOF 8
ENDMDL
MODEL 8
REMARK VINA RESULT:      -5.4      2.272      3.562
REMARK  Name = 
REMARK  10 active torsions:
REMARK  status: ('A' for Active; 'I' for Inactive)
REMARK    1  A    between atoms: C_1  and  C_2
REMARK    2  A    between atoms: C_2  and  O_3
REMARK    3  A    between atoms: O_3  and  C_4
REMARK    4  A    between atoms: C_4  and  C_5
REMARK    5  A    between atoms: C_5  and  C_6
REMARK    6  A    between atoms: C_6  and  N_7
REMARK    7  A    between atoms: C_8  and  C_10
REMARK    8  A    between atoms: C_15  and  S_16
REMARK    9  A    between atoms: S_16  and  C_17
REMARK   10  A    between atoms: C_17  and  C_18
REMARK                            x       y       z     vdW  Elec       q    Type
REMARK                         _______ _______ _______ _____ _____    ______ ____
ROOT
ATOM      1  N   UNL     1       2.842   4.165  17.644  0.00  0.00    +0.000 N 
ATOM      2  C   UNL     1       3.490   5.321  17.988  0.00  0.00    +0.000 C 
ATOM      3  O   UNL     1       2.867   6.344  18.306  0.00  0.00    +0.000 OA
ATOM      4  H   UNL     1       3.403   3.422  17.227  0.00  0.00    +0.000 HD
ENDROOT
BRANCH   2   5
ATOM      5  C   UNL     1       4.989   5.328  18.000  0.00  0.00    +0.000 A 
ATOM      6  C   UNL     1       5.554   5.439  19.291  0.00  0.00    +0.000 A 
ATOM      7  C   UNL     1       6.929   5.467  19.485  0.00  0.00    +0.000 A 
ATOM      8  C   UNL     1       7.765   5.360  18.384  0.00  0.00    +0.000 A 
ATOM      9  C   UNL     1       7.239   5.253  17.107  0.00  0.00    +0.000 A 
ATOM     10  C   UNL     1       5.854   5.239  16.881  0.00  0.00    +0.000 A 
BRANCH  10  11
ATOM     11  S   UNL     1       5.362   5.273  15.150  0.00  0.00    +0.000 S 
BRANCH  11  12
ATOM     12  C   UNL     1       6.521   4.088  14.370  0.00  0.00    +0.000 C 
ATOM     13  C   UNL     1       6.094   3.595  13.002  0.00  0.00    +0.000 C 
ENDBRANCH  11  12
ENDBRANCH  10  11
ENDBRANCH   2   5
BRANCH   1  14
ATOM     14  C   UNL     1       1.402   4.079  17.614  0.00  0.00    +0.000 C 
BRANCH  14  15
ATOM     15  C   UNL     1       0.850   3.129  18.673  0.00  0.00    +0.000 C 
BRANCH  15  16
ATOM     16  C   UNL     1       0.976   3.716  20.074  0.00  0.00    +0.000 C 
BRANCH  16  17
ATOM     17  O   UNL     1       1.161   2.655  21.014  0.00  0.00    +0.000 OA
BRANCH  17  19
ATOM     18  C   UNL     1       3.535   2.521  20.704  0.00  0.00    +0.000 C 
ATOM     19  C   UNL     1       2.411   2.778  21.688  0.00  0.00    +0.000 C 
ENDBRANCH  17  19
ENDBRANCH  16  17
ENDBRANCH  15  16
ENDBRANCH  14  15
ENDBRANCH   1  14
TORSDOF 8
ENDMDL
MODEL 9
REMARK VINA RESULT:      -5.4      2.516      5.509
REMARK  Name = 
REMARK  10 active torsions:
REMARK  status: ('A' for Active; 'I' for Inactive)
REMARK    1  A    between atoms: C_1  and  C_2
REMARK    2  A    between atoms: C_2  and  O_3
REMARK    3  A    between atoms: O_3  and  C_4
REMARK    4  A    between atoms: C_4  and  C_5
REMARK    5  A    between atoms: C_5  and  C_6
REMARK    6  A    between atoms: C_6  and  N_7
REMARK    7  A    between atoms: C_8  and  C_10
REMARK    8  A    between atoms: C_15  and  S_16
REMARK    9  A    between atoms: S_16  and  C_17
REMARK   10  A    between atoms: C_17  and  C_18
REMARK                            x       y       z     vdW  Elec       q    Type
REMARK                         _______ _______ _______ _____ _____    ______ ____
ROOT
ATOM      1  N   UNL     1       5.825   4.185  17.767  0.00  0.00    +0.000 N 
ATOM      2  C   UNL     1       5.415   4.555  19.020  0.00  0.00    +0.000 C 
ATOM      3  O   UNL     1       6.179   5.129  19.809  0.00  0.00    +0.000 OA
ATOM      4  H   UNL     1       5.210   3.566  17.239  0.00  0.00    +0.000 HD
ENDROOT
BRANCH   2   5
ATOM      5  C   UNL     1       3.999   4.273  19.424  0.00  0.00    +0.000 A 
ATOM      6  C   UNL     1       3.828   3.048  20.109  0.00  0.00    +0.000 A 
ATOM      7  C   UNL     1       2.581   2.627  20.549  0.00  0.00    +0.000 A 
ATOM      8  C   UNL     1       1.481   3.442  20.330  0.00  0.00    +0.000 A 
ATOM      9  C   UNL     1       1.618   4.646  19.659  0.00  0.00    +0.000 A 
ATOM     10  C   UNL     1       2.864   5.088  19.188  0.00  0.00    +0.000 A 
BRANCH  10  11
ATOM     11  S   UNL     1       2.816   6.584  18.189  0.00  0.00    +0.000 S 
BRANCH  11  12
ATOM     12  C   UNL     1       2.145   7.832  19.350  0.00  0.00    +0.000 C 
ATOM     13  C   UNL     1       1.504   9.034  18.683  0.00  0.00    +0.000 C 
ENDBRANCH  11  12
ENDBRANCH  10  11
ENDBRANCH   2   5
BRANCH   1  14
ATOM     14  C   UNL     1       7.171   4.426  17.304  0.00  0.00    +0.000 C 
BRANCH  14  15
ATOM     15  C   UNL     1       7.243   5.556  16.280  0.00  0.00    +0.000 C 
BRANCH  15  16
ATOM     16  C   UNL     1       6.281   5.326  15.120  0.00  0.00    +0.000 C 
BRANCH  16  17
ATOM     17  O   UNL     1       6.549   4.052  14.532  0.00  0.00    +0.000 OA
BRANCH  17  19
ATOM     18  C   UNL     1       6.372   3.409  12.229  0.00  0.00    +0.000 C 
ATOM     19  C   UNL     1       5.616   3.758  13.495  0.00  0.00    +0.000 C 
ENDBRANCH  17  19
ENDBRANCH  16  17
ENDBRANCH  15  16
ENDBRANCH  14  15
ENDBRANCH   1  14
TORSDOF 8
ENDMDL
