MODEL 1
REMARK VINA RESULT:      -6.8      0.000      0.000
REMARK  Name = 
REMARK  4 active torsions:
REMARK  status: ('A' for Active; 'I' for Inactive)
REMARK    1  A    between atoms: C_1  and  C_2
REMARK    2  A    between atoms: C_2  and  C_3
REMARK    3  A    between atoms: C_3  and  C_4
REMARK    4  A    between atoms: N_14  and  N_15
REMARK                            x       y       z     vdW  Elec       q    Type
REMARK                         _______ _______ _______ _____ _____    ______ ____
ROOT
ATOM      1  C   UNL     1       5.718   4.204  16.324  0.00  0.00    +0.000 A 
ATOM      2  N   UNL     1       4.430   4.043  16.299  0.00  0.00    +0.000 NA
ATOM      3  C   UNL     1       3.708   4.227  17.486  0.00  0.00    +0.000 A 
ATOM      4  C   UNL     1       2.324   4.029  17.463  0.00  0.00    +0.000 A 
ATOM      5  C   UNL     1       1.557   4.216  18.616  0.00  0.00    +0.000 A 
ATOM      6  C   UNL     1       2.169   4.609  19.806  0.00  0.00    +0.000 A 
ATOM      7  C   UNL     1       3.551   4.803  19.846  0.00  0.00    +0.000 A 
ATOM      8  C   UNL     1       4.309   4.602  18.687  0.00  0.00    +0.000 A 
ATOM      9  C   UNL     1       5.771   4.765  18.696  0.00  0.00    +0.000 A 
ATOM     10  O   UNL     1       6.370   5.078  19.726  0.00  0.00    +0.000 OA
ATOM     11  N   UNL     1       6.414   4.532  17.476  0.00  0.00    +0.000 N 
ENDROOT
BRANCH  11  12
ATOM     12  N   UNL     1       7.831   4.697  17.454  0.00  0.00    +0.000 N 
ATOM     13  H   UNL     1       8.008   5.620  17.876  0.00  0.00    +0.000 HD
ATOM     14  H   UNL     1       8.217   4.040  18.135  0.00  0.00    +0.000 HD
ENDBRANCH  11  12
BRANCH   1  15
ATOM     15  C   UNL     1       6.484   3.984  15.027  0.00  0.00    +0.000 C 
BRANCH  15  17
ATOM     16  C   UNL     1       6.271   3.521  12.530  0.00  0.00    +0.000 C 
ATOM     17  C   UNL     1       5.579   4.008  13.795  0.00  0.00    +0.000 C 
ENDBRANCH  15  17
ENDBRANCH   1  15
TORSDOF 3
ENDMDL
MODEL 2
REMARK VINA RESULT:      -6.5      2.555      3.243
REMARK  Name = 
REMARK  4 active torsions:
REMARK  status: ('A' for Active; 'I' for Inactive)
REMARK    1  A    between atoms: C_1  and  C_2
REMARK    2  A    between atoms: C_2  and  C_3
REMARK    3  A    between atoms: C_3  and  C_4
REMARK    4  A    between atoms: N_14  and  N_15
REMARK                            x       y       z     vdW  Elec       q    Type
REMARK                         _______ _______ _______ _____ _____    ______ ____
ROOT
ATOM      1  C   UNL     1       4.903   5.315  17.587  0.00  0.00    +0.000 A 
ATOM      2  N   UNL     1       4.109   5.883  18.443  0.00  0.00    +0.000 NA
ATOM      3  C   UNL     1       3.136   5.099  19.078  0.00  0.00    +0.000 A 
ATOM      4  C   UNL     1       2.266   5.717  19.981  0.00  0.00    +0.000 A 
ATOM      5  C   UNL     1       1.289   4.976  20.652  0.00  0.00    +0.000 A 
ATOM      6  C   UNL     1       1.177   3.603  20.429  0.00  0.00    +0.000 A 
ATOM      7  C   UNL     1       2.034   2.974  19.525  0.00  0.00    +0.000 A 
ATOM      8  C   UNL     1       3.000   3.730  18.851  0.00  0.00    +0.000 A 
ATOM      9  C   UNL     1       3.901   3.110  17.866  0.00  0.00    +0.000 A 
ATOM     10  O   UNL     1       3.825   1.909  17.603  0.00  0.00    +0.000 OA
ATOM     11  N   UNL     1       4.820   3.972  17.258  0.00  0.00    +0.000 N 
ENDROOT
BRANCH  11  12
ATOM     12  N   UNL     1       5.715   3.393  16.309  0.00  0.00    +0.000 N 
ATOM     13  H   UNL     1       5.815   4.094  15.561  0.00  0.00    +0.000 HD
ATOM     14  H   UNL     1       6.637   3.372  16.747  0.00  0.00    +0.000 HD
ENDBRANCH  11  12
BRANCH   1  15
ATOM     15  C   UNL     1       5.942   6.188  16.898  0.00  0.00    +0.000 C 
BRANCH  15  17
ATOM     16  C   UNL     1       7.744   7.848  17.600  0.00  0.00    +0.000 C 
ATOM     17  C   UNL     1       7.167   6.450  17.774  0.00  0.00    +0.000 C 
ENDBRANCH  15  17
ENDBRANCH   1  15
TORSDOF 3
ENDMDL
MODEL 3
REMARK VINA RESULT:      -6.4      2.732      5.388
REMARK  Name = 
REMARK  4 active torsions:
REMARK  status: ('A' for Active; 'I' for Inactive)
REMARK    1  A    between atoms: C_1  and  C_2
REMARK    2  A    between atoms: C_2  and  C_3
REMARK    3  A    between atoms: C_3  and  C_4
REMARK    4  A    between atoms: N_14  and  N_15
REMARK                            x       y       z     vdW  Elec       q    Type
REMARK                         _______ _______ _______ _____ _____    ______ ____
ROOT
ATOM      1  C   UNL     1       7.010   5.960  16.862  0.00  0.00    +0.000 A 
ATOM      2  N   UNL     1       7.579   5.916  15.696  0.00  0.00    +0.000 NA
ATOM      3  C   UNL     1       7.009   5.110  14.701  0.00  0.00    +0.000 A 
ATOM      4  C   UNL     1       7.638   5.044  13.453  0.00  0.00    +0.000 A 
ATOM      5  C   UNL     1       7.100   4.267  12.424  0.00  0.00    +0.000 A 
ATOM      6  C   UNL     1       5.921   3.550  12.631  0.00  0.00    +0.000 A 
ATOM      7  C   UNL     1       5.287   3.601  13.873  0.00  0.00    +0.000 A 
ATOM      8  C   UNL     1       5.842   4.373  14.900  0.00  0.00    +0.000 A 
ATOM      9  C   UNL     1       5.221   4.426  16.233  0.00  0.00    +0.000 A 
ATOM     10  O   UNL     1       4.199   3.787  16.484  0.00  0.00    +0.000 OA
ATOM     11  N   UNL     1       5.874   5.231  17.173  0.00  0.00    +0.000 N 
ENDROOT
BRANCH  11  12
ATOM     12  N   UNL     1       5.284   5.312  18.470  0.00  0.00    +0.000 N 
ATOM     13  H   UNL     1       5.974   5.802  19.057  0.00  0.00    +0.000 HD
ATOM     14  H   UNL     1       4.509   5.974  18.402  0.00  0.00    +0.000 HD
ENDBRANCH  11  12
BRANCH   1  15
ATOM     15  C   UNL     1       7.653   6.830  17.931  0.00  0.00    +0.000 C 
BRANCH  15  17
ATOM     16  C   UNL     1       8.583   9.144  18.459  0.00  0.00    +0.000 C 
ATOM     17  C   UNL     1       7.706   8.307  17.538  0.00  0.00    +0.000 C 
ENDBRANCH  15  17
ENDBRANCH   1  15
TORSDOF 3
ENDMDL
MODEL 4
REMARK VINA RESULT:      -6.4      1.588      1.933
REMARK  Name = 
REMARK  4 active torsions:
REMARK  status: ('A' for Active; 'I' for Inactive)
REMARK    1  A    between atoms: C_1  and  C_2
REMARK    2  A    between atoms: C_2  and  C_3
REMARK    3  A    between atoms: C_3  and  C_4
REMARK    4  A    between atoms: N_14  and  N_15
REMARK                            x       y       z     vdW  Elec       q    Type
REMARK                         _______ _______ _______ _____ _____    ______ ____
ROOT
ATOM      1  C   UNL     1       4.773   4.946  17.426  0.00  0.00    +0.000 A 
ATOM      2  N   UNL     1       3.488   4.921  17.238  0.00  0.00    +0.000 NA
ATOM      3  C   UNL     1       2.708   4.084  18.048  0.00  0.00    +0.000 A 
ATOM      4  C   UNL     1       1.328   4.039  17.828  0.00  0.00    +0.000 A 
ATOM      5  C   UNL     1       0.505   3.233  18.619  0.00  0.00    +0.000 A 
ATOM      6  C   UNL     1       1.056   2.466  19.646  0.00  0.00    +0.000 A 
ATOM      7  C   UNL     1       2.433   2.495  19.872  0.00  0.00    +0.000 A 
ATOM      8  C   UNL     1       3.248   3.298  19.065  0.00  0.00    +0.000 A 
ATOM      9  C   UNL     1       4.707   3.331  19.251  0.00  0.00    +0.000 A 
ATOM     10  O   UNL     1       5.253   2.648  20.119  0.00  0.00    +0.000 OA
ATOM     11  N   UNL     1       5.410   4.170  18.379  0.00  0.00    +0.000 N 
ENDROOT
BRANCH  11  12
ATOM     12  N   UNL     1       6.826   4.231  18.548  0.00  0.00    +0.000 N 
ATOM     13  H   UNL     1       6.974   4.536  19.521  0.00  0.00    +0.000 HD
ATOM     14  H   UNL     1       7.167   3.268  18.541  0.00  0.00    +0.000 HD
ENDBRANCH  11  12
BRANCH   1  15
ATOM     15  C   UNL     1       5.602   5.850  16.525  0.00  0.00    +0.000 C 
BRANCH  15  17
ATOM     16  C   UNL     1       6.125   3.990  14.864  0.00  0.00    +0.000 C 
ATOM     17  C   UNL     1       5.589   5.400  15.064  0.00  0.00    +0.000 C 
ENDBRANCH  15  17
ENDBRANCH   1  15
TORSDOF 3
ENDMDL
MODEL 5
REMARK VINA RESULT:      -6.4      2.496      3.710
REMARK  Name = 
REMARK  4 active torsions:
REMARK  status: ('A' for Active; 'I' for Inactive)
REMARK    1  A    between atoms: C_1  and  C_2
REMARK    2  A    between atoms: C_2  and  C_3
REMARK    3  A    between atoms: C_3  and  C_4
REMARK    4  A    between atoms: N_14  and  N_15
REMARK                            x       y       z     vdW  Elec       q    Type
REMARK                         _______ _______ _______ _____ _____    ______ ____
ROOT
ATOM      1  C   UNL     1       6.553   6.003  17.810  0.00  0.00    +0.000 A 
ATOM      2  N   UNL     1       5.642   5.909  18.730  0.00  0.00    +0.000 NA
ATOM      3  C   UNL     1       4.491   5.157  18.460  0.00  0.00    +0.000 A 
ATOM      4  C   UNL     1       3.500   5.077  19.443  0.00  0.00    +0.000 A 
ATOM      5  C   UNL     1       2.341   4.326  19.228  0.00  0.00    +0.000 A 
ATOM      6  C   UNL     1       2.164   3.641  18.026  0.00  0.00    +0.000 A 
ATOM      7  C   UNL     1       3.142   3.717  17.033  0.00  0.00    +0.000 A 
ATOM      8  C   UNL     1       4.293   4.482  17.256  0.00  0.00    +0.000 A 
ATOM      9  C   UNL     1       5.331   4.614  16.222  0.00  0.00    +0.000 A 
ATOM     10  O   UNL     1       5.213   4.059  15.128  0.00  0.00    +0.000 OA
ATOM     11  N   UNL     1       6.431   5.408  16.565  0.00  0.00    +0.000 N 
ENDROOT
BRANCH  11  12
ATOM     12  N   UNL     1       7.459   5.540  15.585  0.00  0.00    +0.000 N 
ATOM     13  H   UNL     1       7.463   6.537  15.322  0.00  0.00    +0.000 HD
ATOM     14  H   UNL     1       8.349   5.413  16.070  0.00  0.00    +0.000 HD
ENDBRANCH  11  12
BRANCH   1  15
ATOM     15  C   UNL     1       7.788   6.837  18.118  0.00  0.00    +0.000 C 
BRANCH  15  17
ATOM     16  C   UNL     1       8.558   9.256  18.352  0.00  0.00    +0.000 C 
ATOM     17  C   UNL     1       7.678   8.271  17.596  0.00  0.00    +0.000 C 
ENDBRANCH  15  17
ENDBRANCH   1  15
TORSDOF 3
ENDMDL
MODEL 6
REMARK VINA RESULT:      -6.4      2.057      3.420
REMARK  Name = 
REMARK  4 active torsions:
REMARK  status: ('A' for Active; 'I' for Inactive)
REMARK    1  A    between atoms: C_1  and  C_2
REMARK    2  A    between atoms: C_2  and  C_3
REMARK    3  A    between atoms: C_3  and  C_4
REMARK    4  A    between atoms: N_14  and  N_15
REMARK                            x       y       z     vdW  Elec       q    Type
REMARK                         _______ _______ _______ _____ _____    ______ ____
ROOT
ATOM      1  C   UNL     1       6.667   5.300  18.570  0.00  0.00    +0.000 A 
ATOM      2  N   UNL     1       5.625   5.520  19.312  0.00  0.00    +0.000 NA
ATOM      3  C   UNL     1       4.377   5.059  18.872  0.00  0.00    +0.000 A 
ATOM      4  C   UNL     1       3.252   5.319  19.661  0.00  0.00    +0.000 A 
ATOM      5  C   UNL     1       1.988   4.865  19.273  0.00  0.00    +0.000 A 
ATOM      6  C   UNL     1       1.838   4.140  18.091  0.00  0.00    +0.000 A 
ATOM      7  C   UNL     1       2.950   3.880  17.290  0.00  0.00    +0.000 A 
ATOM      8  C   UNL     1       4.209   4.349  17.684  0.00  0.00    +0.000 A 
ATOM      9  C   UNL     1       5.400   4.123  16.850  0.00  0.00    +0.000 A 
ATOM     10  O   UNL     1       5.322   3.519  15.779  0.00  0.00    +0.000 OA
ATOM     11  N   UNL     1       6.598   4.644  17.351  0.00  0.00    +0.000 N 
ENDROOT
BRANCH  11  12
ATOM     12  N   UNL     1       7.771   4.426  16.569  0.00  0.00    +0.000 N 
ATOM     13  H   UNL     1       8.465   4.028  17.219  0.00  0.00    +0.000 HD
ATOM     14  H   UNL     1       7.563   3.654  15.933  0.00  0.00    +0.000 HD
ENDBRANCH  11  12
BRANCH   1  15
ATOM     15  C   UNL     1       8.009   5.823  19.060  0.00  0.00    +0.000 C 
BRANCH  15  17
ATOM     16  C   UNL     1       7.567   7.744  17.444  0.00  0.00    +0.000 C 
ATOM     17  C   UNL     1       8.213   7.307  18.751  0.00  0.00    +0.000 C 
ENDBRANCH  15  17
ENDBRANCH   1  15
TORSDOF 3
ENDMDL
MODEL 7
REMARK VINA RESULT:      -6.4      1.129      1.129
REMARK  Name = 
REMARK  4 active torsions:
REMARK  status: ('A' for Active; 'I' for Inactive)
REMARK    1  A    between atoms: C_1  and  C_2
REMARK    2  A    between atoms: C_2  and  C_3
REMARK    3  A    between atoms: C_3  and  C_4
REMARK    4  A    between atoms: N_14  and  N_15
REMARK                            x       y       z     vdW  Elec       q    Type
REMARK                         _______ _______ _______ _____ _____    ______ ____
ROOT
ATOM      1  C   UNL     1       5.334   4.567  16.102  0.00  0.00    +0.000 A 
ATOM      2  N   UNL     1       4.211   3.922  16.188  0.00  0.00    +0.000 NA
ATOM      3  C   UNL     1       3.787   3.477  17.447  0.00  0.00    +0.000 A 
ATOM      4  C   UNL     1       2.589   2.760  17.535  0.00  0.00    +0.000 A 
ATOM      5  C   UNL     1       2.116   2.309  18.770  0.00  0.00    +0.000 A 
ATOM      6  C   UNL     1       2.837   2.576  19.934  0.00  0.00    +0.000 A 
ATOM      7  C   UNL     1       4.037   3.283  19.862  0.00  0.00    +0.000 A 
ATOM      8  C   UNL     1       4.506   3.720  18.617  0.00  0.00    +0.000 A 
ATOM      9  C   UNL     1       5.783   4.441  18.495  0.00  0.00    +0.000 A 
ATOM     10  O   UNL     1       6.478   4.675  19.485  0.00  0.00    +0.000 OA
ATOM     11  N   UNL     1       6.142   4.820  17.198  0.00  0.00    +0.000 N 
ENDROOT
BRANCH  11  12
ATOM     12  N   UNL     1       7.370   5.534  17.053  0.00  0.00    +0.000 N 
ATOM     13  H   UNL     1       7.943   5.263  17.865  0.00  0.00    +0.000 HD
ATOM     14  H   UNL     1       7.861   5.119  16.259  0.00  0.00    +0.000 HD
ENDBRANCH  11  12
BRANCH   1  15
ATOM     15  C   UNL     1       5.782   5.028  14.723  0.00  0.00    +0.000 C 
BRANCH  15  17
ATOM     16  C   UNL     1       5.662   3.548  12.651  0.00  0.00    +0.000 C 
ATOM     17  C   UNL     1       6.437   3.910  13.910  0.00  0.00    +0.000 C 
ENDBRANCH  15  17
ENDBRANCH   1  15
TORSDOF 3
ENDMDL
MODEL 8
REMARK VINA RESULT:      -6.4      1.997      2.342
REMARK  Name = 
REMARK  4 active torsions:
REMARK  status: ('A' for Active; 'I' for Inactive)
REMARK    1  A    between atoms: C_1  and  C_2
REMARK    2  A    between atoms: C_2  and  C_3
REMARK    3  A    between atoms: C_3  and  C_4
REMARK    4  A    between atoms: N_14  and  N_15
REMARK                            x       y       z     vdW  Elec       q    Type
REMARK                         _______ _______ _______ _____ _____    ______ ____
ROOT
ATOM      1  C   UNL     1       4.379   4.955  16.765  0.00  0.00    +0.000 A 
ATOM      2  N   UNL     1       3.862   3.770  16.880  0.00  0.00    +0.000 NA
ATOM      3  C   UNL     1       2.885   3.557  17.862  0.00  0.00    +0.000 A 
ATOM      4  C   UNL     1       2.346   2.274  18.002  0.00  0.00    +0.000 A 
ATOM      5  C   UNL     1       1.358   2.015  18.955  0.00  0.00    +0.000 A 
ATOM      6  C   UNL     1       0.894   3.041  19.778  0.00  0.00    +0.000 A 
ATOM      7  C   UNL     1       1.427   4.325  19.655  0.00  0.00    +0.000 A 
ATOM      8  C   UNL     1       2.424   4.569  18.704  0.00  0.00    +0.000 A 
ATOM      9  C   UNL     1       3.035   5.901  18.566  0.00  0.00    +0.000 A 
ATOM     10  O   UNL     1       2.688   6.837  19.288  0.00  0.00    +0.000 OA
ATOM     11  N   UNL     1       4.022   6.015  17.582  0.00  0.00    +0.000 N 
ENDROOT
BRANCH  11  12
ATOM     12  N   UNL     1       4.620   7.301  17.417  0.00  0.00    +0.000 N 
ATOM     13  H   UNL     1       5.235   7.216  16.595  0.00  0.00    +0.000 HD
ATOM     14  H   UNL     1       3.881   7.933  17.104  0.00  0.00    +0.000 HD
ENDBRANCH  11  12
BRANCH   1  15
ATOM     15  C   UNL     1       5.449   5.160  15.702  0.00  0.00    +0.000 C 
BRANCH  15  17
ATOM     16  C   UNL     1       6.157   3.857  13.629  0.00  0.00    +0.000 C 
ATOM     17  C   UNL     1       5.984   3.842  15.141  0.00  0.00    +0.000 C 
ENDBRANCH  15  17
ENDBRANCH   1  15
TORSDOF 3
ENDMDL
MODEL 9
REMARK VINA RESULT:      -6.4      2.232      2.695
REMARK  Name = 
REMARK  4 active torsions:
REMARK  status: ('A' for Active; 'I' for Inactive)
REMARK    1  A    between atoms: C_1  and  C_2
REMARK    2  A    between atoms: C_2  and  C_3
REMARK    3  A    between atoms: C_3  and  C_4
REMARK    4  A    between atoms: N_14  and  N_15
REMARK                            x       y       z     vdW  Elec       q    Type
REMARK                         _______ _______ _______ _____ _____    ______ ____
ROOT
ATOM      1  C   UNL     1       4.370   4.907  16.769  0.00  0.00    +0.000 A 
ATOM      2  N   UNL     1       3.839   3.730  16.905  0.00  0.00    +0.000 NA
ATOM      3  C   UNL     1       2.866   3.544  17.895  0.00  0.00    +0.000 A 
ATOM      4  C   UNL     1       2.312   2.270  18.056  0.00  0.00    +0.000 A 
ATOM      5  C   UNL     1       1.326   2.036  19.019  0.00  0.00    +0.000 A 
ATOM      6  C   UNL     1       0.879   3.080  19.829  0.00  0.00    +0.000 A 
ATOM      7  C   UNL     1       1.427   4.355  19.685  0.00  0.00    +0.000 A 
ATOM      8  C   UNL     1       2.422   4.573  18.724  0.00  0.00    +0.000 A 
ATOM      9  C   UNL     1       3.048   5.895  18.564  0.00  0.00    +0.000 A 
ATOM     10  O   UNL     1       2.717   6.846  19.274  0.00  0.00    +0.000 OA
ATOM     11  N   UNL     1       4.031   5.984  17.573  0.00  0.00    +0.000 N 
ENDROOT
BRANCH  11  12
ATOM     12  N   UNL     1       4.644   7.259  17.386  0.00  0.00    +0.000 N 
ATOM     13  H   UNL     1       4.770   7.645  18.333  0.00  0.00    +0.000 HD
ATOM     14  H   UNL     1       5.598   7.085  17.066  0.00  0.00    +0.000 HD
ENDBRANCH  11  12
BRANCH   1  15
ATOM     15  C   UNL     1       5.436   5.084  15.698  0.00  0.00    +0.000 C 
BRANCH  15  17
ATOM     16  C   UNL     1       7.391   4.621  17.267  0.00  0.00    +0.000 C 
ATOM     17  C   UNL     1       6.689   4.250  15.968  0.00  0.00    +0.000 C 
ENDBRANCH  15  17
ENDBRANCH   1  15
TORSDOF 3
ENDMDL
