MODEL 1
REMARK VINA RESULT:      -7.8      0.000      0.000
REMARK  Name = 
REMARK  11 active torsions:
REMARK  status: ('A' for Active; 'I' for Inactive)
REMARK    1  A    between atoms: C_1  and  C_2
REMARK    2  A    between atoms: C_2  and  C_3
REMARK    3  A    between atoms: C_3  and  C_4
REMARK    4  A    between atoms: C_4  and  C_5
REMARK    5  A    between atoms: C_5  and  C_6
REMARK    6  A    between atoms: C_10  and  O_11
REMARK    7  A    between atoms: O_11  and  C_12
REMARK    8  A    between atoms: N_14  and  C_15
REMARK    9  A    between atoms: C_15  and  C_16
REMARK   10  A    between atoms: C_16  and  C_17
REMARK   11  A    between atoms: C_23  and  O_24
REMARK                            x       y       z     vdW  Elec       q    Type
REMARK                         _______ _______ _______ _____ _____    ______ ____
ROOT
ATOM      1  C   UNL     1       1.898   4.721  20.806  0.00  0.00    +0.000 C 
ATOM      2  O   UNL     1       2.609   3.921  21.425  0.00  0.00    +0.000 OA
ATOM      3  N   UNL     1       1.111   4.390  19.741  0.00  0.00    +0.000 N 
ATOM      4  H   UNL     1       0.577   5.154  19.338  0.00  0.00    +0.000 HD
ENDROOT
BRANCH   1   5
ATOM      5  O   UNL     1       1.758   6.092  21.108  0.00  0.00    +0.000 OA
BRANCH   5  10
ATOM      6  C   UNL     1       1.059   9.464  19.574  0.00  0.00    +0.000 A 
ATOM      7  C   UNL     1       1.746   9.299  18.363  0.00  0.00    +0.000 A 
ATOM      8  C   UNL     1       2.422   8.109  18.090  0.00  0.00    +0.000 A 
ATOM      9  C   UNL     1       2.416   7.069  19.024  0.00  0.00    +0.000 A 
ATOM     10  C   UNL     1       1.726   7.220  20.233  0.00  0.00    +0.000 A 
ATOM     11  C   UNL     1       1.054   8.408  20.511  0.00  0.00    +0.000 A 
BRANCH   6  12
ATOM     12  C   UNL     1       0.288  10.741  19.832  0.00  0.00    +0.000 C 
BRANCH  12  13
ATOM     13  C   UNL     1      -0.297  11.414  18.586  0.00  0.00    +0.000 C 
BRANCH  13  14
ATOM     14  C   UNL     1      -1.819  11.575  18.653  0.00  0.00    +0.000 C 
BRANCH  14  16
ATOM     15  C   UNL     1      -1.948   9.861  16.812  0.00  0.00    +0.000 C 
ATOM     16  C   UNL     1      -2.535  10.327  18.135  0.00  0.00    +0.000 C 
ENDBRANCH  14  16
ENDBRANCH  13  14
ENDBRANCH  12  13
ENDBRANCH   6  12
ENDBRANCH   5  10
ENDBRANCH   1   5
BRANCH   3  17
ATOM     17  C   UNL     1       0.971   3.062  19.163  0.00  0.00    +0.000 C 
BRANCH  17  18
ATOM     18  C   UNL     1       1.990   2.676  18.084  0.00  0.00    +0.000 C 
BRANCH  18  19
ATOM     19  C   UNL     1       3.428   3.108  18.223  0.00  0.00    +0.000 A 
ATOM     20  C   UNL     1       4.331   2.345  18.939  0.00  0.00    +0.000 A 
ATOM     21  N   UNL     1       5.196   3.235  19.487  0.00  0.00    +0.000 N 
ATOM     22  C   UNL     1       5.475   4.119  18.468  0.00  0.00    +0.000 A 
ATOM     23  C   UNL     1       6.606   4.880  18.269  0.00  0.00    +0.000 A 
ATOM     24  C   UNL     1       6.625   5.685  17.141  0.00  0.00    +0.000 A 
ATOM     25  C   UNL     1       5.481   5.804  16.352  0.00  0.00    +0.000 A 
ATOM     26  C   UNL     1       4.278   5.095  16.629  0.00  0.00    +0.000 A 
ATOM     27  C   UNL     1       4.288   4.151  17.689  0.00  0.00    +0.000 A 
ATOM     28  H   UNL     1       5.163   3.549  20.448  0.00  0.00    +0.000 HD
BRANCH  25  29
ATOM     29  O   UNL     1       5.523   6.590  15.236  0.00  0.00    +0.000 OA
ATOM     30  H   UNL     1       6.283   6.305  14.684  0.00  0.00    +0.000 HD
ENDBRANCH  25  29
ENDBRANCH  18  19
ENDBRANCH  17  18
ENDBRANCH   3  17
TORSDOF 10
ENDMDL
MODEL 2
REMARK VINA RESULT:      -7.7      6.744      9.321
REMARK  Name = 
REMARK  11 active torsions:
REMARK  status: ('A' for Active; 'I' for Inactive)
REMARK    1  A    between atoms: C_1  and  C_2
REMARK    2  A    between atoms: C_2  and  C_3
REMARK    3  A    between atoms: C_3  and  C_4
REMARK    4  A    between atoms: C_4  and  C_5
REMARK    5  A    between atoms: C_5  and  C_6
REMARK    6  A    between atoms: C_10  and  O_11
REMARK    7  A    between atoms: O_11  and  C_12
REMARK    8  A    between atoms: N_14  and  C_15
REMARK    9  A    between atoms: C_15  and  C_16
REMARK   10  A    between atoms: C_16  and  C_17
REMARK   11  A    between atoms: C_23  and  O_24
REMARK                            x       y       z     vdW  Elec       q    Type
REMARK                         _______ _______ _______ _____ _____    ______ ____
ROOT
ATOM      1  C   UNL     1       7.839   7.955  17.860  0.00  0.00    +0.000 C 
ATOM      2  O   UNL     1       8.318   7.181  18.697  0.00  0.00    +0.000 OA
ATOM      3  N   UNL     1       8.139   9.284  17.777  0.00  0.00    +0.000 N 
ATOM      4  H   UNL     1       7.672   9.792  17.033  0.00  0.00    +0.000 HD
ENDROOT
BRANCH   1   5
ATOM      5  O   UNL     1       6.930   7.596  16.842  0.00  0.00    +0.000 OA
BRANCH   5  10
ATOM      6  C   UNL     1       3.863   5.465  17.354  0.00  0.00    +0.000 A 
ATOM      7  C   UNL     1       4.269   4.326  16.643  0.00  0.00    +0.000 A 
ATOM      8  C   UNL     1       5.514   4.291  16.014  0.00  0.00    +0.000 A 
ATOM      9  C   UNL     1       6.369   5.394  16.089  0.00  0.00    +0.000 A 
ATOM     10  C   UNL     1       5.978   6.535  16.803  0.00  0.00    +0.000 A 
ATOM     11  C   UNL     1       4.733   6.575  17.428  0.00  0.00    +0.000 A 
BRANCH   6  12
ATOM     12  C   UNL     1       2.532   5.467  18.073  0.00  0.00    +0.000 C 
BRANCH  12  13
ATOM     13  C   UNL     1       1.617   4.277  17.758  0.00  0.00    +0.000 C 
BRANCH  13  14
ATOM     14  C   UNL     1       1.190   3.504  19.009  0.00  0.00    +0.000 C 
BRANCH  14  16
ATOM     15  C   UNL     1       3.189   1.977  19.151  0.00  0.00    +0.000 C 
ATOM     16  C   UNL     1       1.681   2.056  18.964  0.00  0.00    +0.000 C 
ENDBRANCH  14  16
ENDBRANCH  13  14
ENDBRANCH  12  13
ENDBRANCH   6  12
ENDBRANCH   5  10
ENDBRANCH   1   5
BRANCH   3  17
ATOM     17  C   UNL     1       9.062  10.006  18.639  0.00  0.00    +0.000 C 
BRANCH  17  18
ATOM     18  C   UNL     1       9.922  11.084  17.969  0.00  0.00    +0.000 C 
BRANCH  18  19
ATOM     19  C   UNL     1      10.378  12.280  18.764  0.00  0.00    +0.000 A 
ATOM     20  C   UNL     1      10.965  12.125  20.006  0.00  0.00    +0.000 A 
ATOM     21  N   UNL     1      10.591  13.217  20.719  0.00  0.00    +0.000 N 
ATOM     22  C   UNL     1      10.754  14.271  19.847  0.00  0.00    +0.000 A 
ATOM     23  C   UNL     1      11.018  15.593  20.129  0.00  0.00    +0.000 A 
ATOM     24  C   UNL     1      11.144  16.448  19.045  0.00  0.00    +0.000 A 
ATOM     25  C   UNL     1      10.865  15.987  17.759  0.00  0.00    +0.000 A 
ATOM     26  C   UNL     1      10.485  14.642  17.489  0.00  0.00    +0.000 A 
ATOM     27  C   UNL     1      10.499  13.716  18.565  0.00  0.00    +0.000 A 
ATOM     28  H   UNL     1       9.850  13.226  21.408  0.00  0.00    +0.000 HD
BRANCH  25  29
ATOM     29  O   UNL     1      11.010  16.839  16.702  0.00  0.00    +0.000 OA
ATOM     30  H   UNL     1      11.221  16.311  15.903  0.00  0.00    +0.000 HD
ENDBRANCH  25  29
ENDBRANCH  18  19
ENDBRANCH  17  18
ENDBRANCH   3  17
TORSDOF 10
ENDMDL
MODEL 3
REMARK VINA RESULT:      -7.6      1.790      2.466
REMARK  Name = 
REMARK  11 active torsions:
REMARK  status: ('A' for Active; 'I' for Inactive)
REMARK    1  A    between atoms: C_1  and  C_2
REMARK    2  A    between atoms: C_2  and  C_3
REMARK    3  A    between atoms: C_3  and  C_4
REMARK    4  A    between atoms: C_4  and  C_5
REMARK    5  A    between atoms: C_5  and  C_6
REMARK    6  A    between atoms: C_10  and  O_11
REMARK    7  A    between atoms: O_11  and  C_12
REMARK    8  A    between atoms: N_14  and  C_15
REMARK    9  A    between atoms: C_15  and  C_16
REMARK   10  A    between atoms: C_16  and  C_17
REMARK   11  A    between atoms: C_23  and  O_24
REMARK                            x       y       z     vdW  Elec       q    Type
REMARK                         _______ _______ _______ _____ _____    ______ ____
ROOT
ATOM      1  C   UNL     1       1.693   5.033  20.611  0.00  0.00    +0.000 C 
ATOM      2  O   UNL     1       0.700   4.446  20.165  0.00  0.00    +0.000 OA
ATOM      3  N   UNL     1       2.870   4.421  20.936  0.00  0.00    +0.000 N 
ATOM      4  H   UNL     1       3.599   5.035  21.285  0.00  0.00    +0.000 HD
ENDROOT
BRANCH   1   5
ATOM      5  O   UNL     1       1.788   6.423  20.834  0.00  0.00    +0.000 OA
BRANCH   5  10
ATOM      6  C   UNL     1       1.375   9.744  19.100  0.00  0.00    +0.000 A 
ATOM      7  C   UNL     1       2.047   9.450  17.904  0.00  0.00    +0.000 A 
ATOM      8  C   UNL     1       2.621   8.193  17.706  0.00  0.00    +0.000 A 
ATOM      9  C   UNL     1       2.527   7.215  18.700  0.00  0.00    +0.000 A 
ATOM     10  C   UNL     1       1.851   7.495  19.894  0.00  0.00    +0.000 A 
ATOM     11  C   UNL     1       1.282   8.750  20.098  0.00  0.00    +0.000 A 
BRANCH   6  12
ATOM     12  C   UNL     1       0.715  11.094  19.277  0.00  0.00    +0.000 C 
BRANCH  12  13
ATOM     13  C   UNL     1      -0.671  11.063  19.932  0.00  0.00    +0.000 C 
BRANCH  13  14
ATOM     14  C   UNL     1      -0.890  12.209  20.923  0.00  0.00    +0.000 C 
BRANCH  14  16
ATOM     15  C   UNL     1      -0.778  10.607  22.863  0.00  0.00    +0.000 C 
ATOM     16  C   UNL     1      -1.575  11.719  22.200  0.00  0.00    +0.000 C 
ENDBRANCH  14  16
ENDBRANCH  13  14
ENDBRANCH  12  13
ENDBRANCH   6  12
ENDBRANCH   5  10
ENDBRANCH   1   5
BRANCH   3  17
ATOM     17  C   UNL     1       3.157   3.001  20.810  0.00  0.00    +0.000 C 
BRANCH  17  18
ATOM     18  C   UNL     1       4.130   2.596  19.697  0.00  0.00    +0.000 C 
BRANCH  18  19
ATOM     19  C   UNL     1       4.503   3.593  18.629  0.00  0.00    +0.000 A 
ATOM     20  C   UNL     1       3.627   3.895  17.603  0.00  0.00    +0.000 A 
ATOM     21  N   UNL     1       4.411   4.158  16.528  0.00  0.00    +0.000 N 
ATOM     22  C   UNL     1       5.420   4.955  17.023  0.00  0.00    +0.000 A 
ATOM     23  C   UNL     1       6.174   5.903  16.367  0.00  0.00    +0.000 A 
ATOM     24  C   UNL     1       7.127   6.572  17.120  0.00  0.00    +0.000 A 
ATOM     25  C   UNL     1       7.381   6.174  18.432  0.00  0.00    +0.000 A 
ATOM     26  C   UNL     1       6.670   5.117  19.067  0.00  0.00    +0.000 A 
ATOM     27  C   UNL     1       5.589   4.523  18.365  0.00  0.00    +0.000 A 
ATOM     28  H   UNL     1       4.590   3.507  15.775  0.00  0.00    +0.000 HD
BRANCH  25  29
ATOM     29  O   UNL     1       8.312   6.855  19.163  0.00  0.00    +0.000 OA
ATOM     30  H   UNL     1       9.136   6.324  19.189  0.00  0.00    +0.000 HD
ENDBRANCH  25  29
ENDBRANCH  18  19
ENDBRANCH  17  18
ENDBRANCH   3  17
TORSDOF 10
ENDMDL
MODEL 4
REMARK VINA RESULT:      -7.6      4.188      7.985
REMARK  Name = 
REMARK  11 active torsions:
REMARK  status: ('A' for Active; 'I' for Inactive)
REMARK    1  A    between atoms: C_1  and  C_2
REMARK    2  A    between atoms: C_2  and  C_3
REMARK    3  A    between atoms: C_3  and  C_4
REMARK    4  A    between atoms: C_4  and  C_5
REMARK    5  A    between atoms: C_5  and  C_6
REMARK    6  A    between atoms: C_10  and  O_11
REMARK    7  A    between atoms: O_11  and  C_12
REMARK    8  A    between atoms: N_14  and  C_15
REMARK    9  A    between atoms: C_15  and  C_16
REMARK   10  A    between atoms: C_16  and  C_17
REMARK   11  A    between atoms: C_23  and  O_24
REMARK                            x       y       z     vdW  Elec       q    Type
REMARK                         _______ _______ _______ _____ _____    ______ ____
ROOT
ATOM      1  C   UNL     1       7.071   6.074  16.699  0.00  0.00    +0.000 C 
ATOM      2  O   UNL     1       6.527   7.184  16.704  0.00  0.00    +0.000 OA
ATOM      3  N   UNL     1       7.036   5.193  17.741  0.00  0.00    +0.000 N 
ATOM      4  H   UNL     1       7.525   4.316  17.588  0.00  0.00    +0.000 HD
ENDROOT
BRANCH   1   5
ATOM      5  O   UNL     1       7.791   5.523  15.618  0.00  0.00    +0.000 OA
BRANCH   5  10
ATOM      6  C   UNL     1       5.793   4.032  12.791  0.00  0.00    +0.000 A 
ATOM      7  C   UNL     1       6.634   4.381  11.723  0.00  0.00    +0.000 A 
ATOM      8  C   UNL     1       7.810   5.096  11.953  0.00  0.00    +0.000 A 
ATOM      9  C   UNL     1       8.161   5.469  13.254  0.00  0.00    +0.000 A 
ATOM     10  C   UNL     1       7.333   5.119  14.329  0.00  0.00    +0.000 A 
ATOM     11  C   UNL     1       6.156   4.409  14.102  0.00  0.00    +0.000 A 
BRANCH   6  12
ATOM     12  C   UNL     1       4.548   3.212  12.530  0.00  0.00    +0.000 C 
BRANCH  12  13
ATOM     13  C   UNL     1       4.364   2.747  11.080  0.00  0.00    +0.000 C 
BRANCH  13  14
ATOM     14  C   UNL     1       3.012   3.156  10.488  0.00  0.00    +0.000 C 
BRANCH  14  16
ATOM     15  C   UNL     1       2.079   5.060   9.128  0.00  0.00    +0.000 C 
ATOM     16  C   UNL     1       3.189   4.027   9.244  0.00  0.00    +0.000 C 
ENDBRANCH  14  16
ENDBRANCH  13  14
ENDBRANCH  12  13
ENDBRANCH   6  12
ENDBRANCH   5  10
ENDBRANCH   1   5
BRANCH   3  17
ATOM     17  C   UNL     1       6.360   5.400  19.012  0.00  0.00    +0.000 C 
BRANCH  17  18
ATOM     18  C   UNL     1       4.890   5.830  18.942  0.00  0.00    +0.000 C 
BRANCH  18  19
ATOM     19  C   UNL     1       3.824   4.806  18.648  0.00  0.00    +0.000 A 
ATOM     20  C   UNL     1       3.726   4.220  17.400  0.00  0.00    +0.000 A 
ATOM     21  N   UNL     1       2.403   3.989  17.214  0.00  0.00    +0.000 N 
ATOM     22  C   UNL     1       1.971   3.468  18.415  0.00  0.00    +0.000 A 
ATOM     23  C   UNL     1       0.919   2.614  18.658  0.00  0.00    +0.000 A 
ATOM     24  C   UNL     1       0.713   2.236  19.976  0.00  0.00    +0.000 A 
ATOM     25  C   UNL     1       1.462   2.828  20.993  0.00  0.00    +0.000 A 
ATOM     26  C   UNL     1       2.476   3.794  20.740  0.00  0.00    +0.000 A 
ATOM     27  C   UNL     1       2.804   4.080  19.389  0.00  0.00    +0.000 A 
ATOM     28  H   UNL     1       1.792   4.569  16.654  0.00  0.00    +0.000 HD
BRANCH  25  29
ATOM     29  O   UNL     1       1.257   2.432  22.284  0.00  0.00    +0.000 OA
ATOM     30  H   UNL     1       2.129   2.302  22.712  0.00  0.00    +0.000 HD
ENDBRANCH  25  29
ENDBRANCH  18  19
ENDBRANCH  17  18
ENDBRANCH   3  17
TORSDOF 10
ENDMDL
MODEL 5
REMARK VINA RESULT:      -7.5      2.928      8.299
REMARK  Name = 
REMARK  11 active torsions:
REMARK  status: ('A' for Active; 'I' for Inactive)
REMARK    1  A    between atoms: C_1  and  C_2
REMARK    2  A    between atoms: C_2  and  C_3
REMARK    3  A    between atoms: C_3  and  C_4
REMARK    4  A    between atoms: C_4  and  C_5
REMARK    5  A    between atoms: C_5  and  C_6
REMARK    6  A    between atoms: C_10  and  O_11
REMARK    7  A    between atoms: O_11  and  C_12
REMARK    8  A    between atoms: N_14  and  C_15
REMARK    9  A    between atoms: C_15  and  C_16
REMARK   10  A    between atoms: C_16  and  C_17
REMARK   11  A    between atoms: C_23  and  O_24
REMARK                            x       y       z     vdW  Elec       q    Type
REMARK                         _______ _______ _______ _____ _____    ______ ____
ROOT
ATOM      1  C   UNL     1       2.387   8.516  18.181  0.00  0.00    +0.000 C 
ATOM      2  O   UNL     1       1.739   8.941  17.217  0.00  0.00    +0.000 OA
ATOM      3  N   UNL     1       1.963   8.566  19.477  0.00  0.00    +0.000 N 
ATOM      4  H   UNL     1       2.602   8.172  20.161  0.00  0.00    +0.000 HD
ENDROOT
BRANCH   1   5
ATOM      5  O   UNL     1       3.650   7.891  18.104  0.00  0.00    +0.000 OA
BRANCH   5  10
ATOM      6  C   UNL     1       4.041   4.203  17.431  0.00  0.00    +0.000 A 
ATOM      7  C   UNL     1       4.866   4.275  16.298  0.00  0.00    +0.000 A 
ATOM      8  C   UNL     1       5.256   5.512  15.786  0.00  0.00    +0.000 A 
ATOM      9  C   UNL     1       4.828   6.693  16.400  0.00  0.00    +0.000 A 
ATOM     10  C   UNL     1       4.011   6.633  17.536  0.00  0.00    +0.000 A 
ATOM     11  C   UNL     1       3.615   5.399  18.048  0.00  0.00    +0.000 A 
BRANCH   6  12
ATOM     12  C   UNL     1       3.669   2.853  18.004  0.00  0.00    +0.000 C 
BRANCH  12  13
ATOM     13  C   UNL     1       2.234   2.394  17.720  0.00  0.00    +0.000 C 
BRANCH  13  14
ATOM     14  C   UNL     1       1.452   2.055  18.992  0.00  0.00    +0.000 C 
BRANCH  14  16
ATOM     15  C   UNL     1       1.513   3.309  21.176  0.00  0.00    +0.000 C 
ATOM     16  C   UNL     1       1.021   3.320  19.736  0.00  0.00    +0.000 C 
ENDBRANCH  14  16
ENDBRANCH  13  14
ENDBRANCH  12  13
ENDBRANCH   6  12
ENDBRANCH   5  10
ENDBRANCH   1   5
BRANCH   3  17
ATOM     17  C   UNL     1       0.697   9.111  19.942  0.00  0.00    +0.000 C 
BRANCH  17  18
ATOM     18  C   UNL     1       0.494  10.620  19.756  0.00  0.00    +0.000 C 
BRANCH  18  19
ATOM     19  C   UNL     1      -0.832  11.142  19.264  0.00  0.00    +0.000 A 
ATOM     20  C   UNL     1      -1.386  12.288  19.801  0.00  0.00    +0.000 A 
ATOM     21  N   UNL     1      -2.728  12.096  19.751  0.00  0.00    +0.000 N 
ATOM     22  C   UNL     1      -2.955  11.568  18.498  0.00  0.00    +0.000 A 
ATOM     23  C   UNL     1      -4.088  11.645  17.720  0.00  0.00    +0.000 A 
ATOM     24  C   UNL     1      -4.038  11.025  16.481  0.00  0.00    +0.000 A 
ATOM     25  C   UNL     1      -2.932  10.247  16.138  0.00  0.00    +0.000 A 
ATOM     26  C   UNL     1      -1.809  10.085  16.996  0.00  0.00    +0.000 A 
ATOM     27  C   UNL     1      -1.776  10.833  18.202  0.00  0.00    +0.000 A 
ATOM     28  H   UNL     1      -3.298  11.816  20.539  0.00  0.00    +0.000 HD
BRANCH  25  29
ATOM     29  O   UNL     1      -2.893   9.656  14.907  0.00  0.00    +0.000 OA
ATOM     30  H   UNL     1      -3.299   8.766  14.976  0.00  0.00    +0.000 HD
ENDBRANCH  25  29
ENDBRANCH  18  19
ENDBRANCH  17  18
ENDBRANCH   3  17
TORSDOF 10
ENDMDL
MODEL 6
REMARK VINA RESULT:      -7.5      3.211      8.460
REMARK  Name = 
REMARK  11 active torsions:
REMARK  status: ('A' for Active; 'I' for Inactive)
REMARK    1  A    between atoms: C_1  and  C_2
REMARK    2  A    between atoms: C_2  and  C_3
REMARK    3  A    between atoms: C_3  and  C_4
REMARK    4  A    between atoms: C_4  and  C_5
REMARK    5  A    between atoms: C_5  and  C_6
REMARK    6  A    between atoms: C_10  and  O_11
REMARK    7  A    between atoms: O_11  and  C_12
REMARK    8  A    between atoms: N_14  and  C_15
REMARK    9  A    between atoms: C_15  and  C_16
REMARK   10  A    between atoms: C_16  and  C_17
REMARK   11  A    between atoms: C_23  and  O_24
REMARK                            x       y       z     vdW  Elec       q    Type
REMARK                         _______ _______ _______ _____ _____    ______ ____
ROOT
ATOM      1  C   UNL     1       1.928   9.607  18.018  0.00  0.00    +0.000 C 
ATOM      2  O   UNL     1       2.565  10.504  17.452  0.00  0.00    +0.000 OA
ATOM      3  N   UNL     1       1.074   9.809  19.064  0.00  0.00    +0.000 N 
ATOM      4  H   UNL     1       0.617   8.976  19.421  0.00  0.00    +0.000 HD
ENDROOT
BRANCH   1   5
ATOM      5  O   UNL     1       1.954   8.241  17.665  0.00  0.00    +0.000 OA
BRANCH   5  10
ATOM      6  C   UNL     1       2.836   5.391  19.969  0.00  0.00    +0.000 A 
ATOM      7  C   UNL     1       4.090   5.059  19.434  0.00  0.00    +0.000 A 
ATOM      8  C   UNL     1       4.600   5.760  18.341  0.00  0.00    +0.000 A 
ATOM      9  C   UNL     1       3.864   6.803  17.770  0.00  0.00    +0.000 A 
ATOM     10  C   UNL     1       2.614   7.148  18.301  0.00  0.00    +0.000 A 
ATOM     11  C   UNL     1       2.100   6.447  19.390  0.00  0.00    +0.000 A 
BRANCH   6  12
ATOM     12  C   UNL     1       2.321   4.655  21.187  0.00  0.00    +0.000 C 
BRANCH  12  13
ATOM     13  C   UNL     1       1.955   3.184  20.955  0.00  0.00    +0.000 C 
BRANCH  13  14
ATOM     14  C   UNL     1       1.012   2.984  19.765  0.00  0.00    +0.000 C 
BRANCH  14  16
ATOM     15  C   UNL     1       2.295   2.527  17.645  0.00  0.00    +0.000 C 
ATOM     16  C   UNL     1       1.538   1.910  18.812  0.00  0.00    +0.000 C 
ENDBRANCH  14  16
ENDBRANCH  13  14
ENDBRANCH  12  13
ENDBRANCH   6  12
ENDBRANCH   5  10
ENDBRANCH   1   5
BRANCH   3  17
ATOM     17  C   UNL     1       0.767  11.090  19.680  0.00  0.00    +0.000 C 
BRANCH  17  18
ATOM     18  C   UNL     1      -0.610  11.216  20.342  0.00  0.00    +0.000 C 
BRANCH  18  19
ATOM     19  C   UNL     1      -1.813  11.574  19.506  0.00  0.00    +0.000 A 
ATOM     20  C   UNL     1      -2.596  12.668  19.821  0.00  0.00    +0.000 A 
ATOM     21  N   UNL     1      -3.856  12.327  19.450  0.00  0.00    +0.000 N 
ATOM     22  C   UNL     1      -3.704  11.740  18.212  0.00  0.00    +0.000 A 
ATOM     23  C   UNL     1      -4.605  11.667  17.173  0.00  0.00    +0.000 A 
ATOM     24  C   UNL     1      -4.180  11.019  16.024  0.00  0.00    +0.000 A 
ATOM     25  C   UNL     1      -2.952  10.358  16.012  0.00  0.00    +0.000 A 
ATOM     26  C   UNL     1      -2.073  10.346  17.131  0.00  0.00    +0.000 A 
ATOM     27  C   UNL     1      -2.422  11.131  18.262  0.00  0.00    +0.000 A 
ATOM     28  H   UNL     1      -4.576  12.011  20.086  0.00  0.00    +0.000 HD
BRANCH  25  29
ATOM     29  O   UNL     1      -2.544   9.737  14.866  0.00  0.00    +0.000 OA
ATOM     30  H   UNL     1      -1.587   9.911  14.742  0.00  0.00    +0.000 HD
ENDBRANCH  25  29
ENDBRANCH  18  19
ENDBRANCH  17  18
ENDBRANCH   3  17
TORSDOF 10
ENDMDL
MODEL 7
REMARK VINA RESULT:      -7.5      6.636      9.244
REMARK  Name = 
REMARK  11 active torsions:
REMARK  status: ('A' for Active; 'I' for Inactive)
REMARK    1  A    between atoms: C_1  and  C_2
REMARK    2  A    between atoms: C_2  and  C_3
REMARK    3  A    between atoms: C_3  and  C_4
REMARK    4  A    between atoms: C_4  and  C_5
REMARK    5  A    between atoms: C_5  and  C_6
REMARK    6  A    between atoms: C_10  and  O_11
REMARK    7  A    between atoms: O_11  and  C_12
REMARK    8  A    between atoms: N_14  and  C_15
REMARK    9  A    between atoms: C_15  and  C_16
REMARK   10  A    between atoms: C_16  and  C_17
REMARK   11  A    between atoms: C_23  and  O_24
REMARK                            x       y       z     vdW  Elec       q    Type
REMARK                         _______ _______ _______ _____ _____    ______ ____
ROOT
ATOM      1  C   UNL     1       7.612   7.783  17.959  0.00  0.00    +0.000 C 
ATOM      2  O   UNL     1       8.223   7.003  18.698  0.00  0.00    +0.000 OA
ATOM      3  N   UNL     1       7.895   9.113  17.838  0.00  0.00    +0.000 N 
ATOM      4  H   UNL     1       7.311   9.627  17.186  0.00  0.00    +0.000 HD
ENDROOT
BRANCH   1   5
ATOM      5  O   UNL     1       6.546   7.432  17.104  0.00  0.00    +0.000 OA
BRANCH   5  10
ATOM      6  C   UNL     1       4.519   4.287  16.650  0.00  0.00    +0.000 A 
ATOM      7  C   UNL     1       5.401   3.576  15.823  0.00  0.00    +0.000 A 
ATOM      8  C   UNL     1       6.615   4.143  15.432  0.00  0.00    +0.000 A 
ATOM      9  C   UNL     1       6.961   5.427  15.865  0.00  0.00    +0.000 A 
ATOM     10  C   UNL     1       6.091   6.142  16.697  0.00  0.00    +0.000 A 
ATOM     11  C   UNL     1       4.876   5.581  17.085  0.00  0.00    +0.000 A 
BRANCH   6  12
ATOM     12  C   UNL     1       3.230   3.637  17.106  0.00  0.00    +0.000 C 
BRANCH  12  13
ATOM     13  C   UNL     1       2.431   4.430  18.148  0.00  0.00    +0.000 C 
BRANCH  13  14
ATOM     14  C   UNL     1       1.367   3.585  18.854  0.00  0.00    +0.000 C 
BRANCH  14  16
ATOM     15  C   UNL     1       2.056   5.183  20.676  0.00  0.00    +0.000 C 
ATOM     16  C   UNL     1       1.026   4.156  20.231  0.00  0.00    +0.000 C 
ENDBRANCH  14  16
ENDBRANCH  13  14
ENDBRANCH  12  13
ENDBRANCH   6  12
ENDBRANCH   5  10
ENDBRANCH   1   5
BRANCH   3  17
ATOM     17  C   UNL     1       8.949   9.829  18.540  0.00  0.00    +0.000 C 
BRANCH  17  18
ATOM     18  C   UNL     1       9.532  11.056  17.830  0.00  0.00    +0.000 C 
BRANCH  18  19
ATOM     19  C   UNL     1      10.219  12.131  18.634  0.00  0.00    +0.000 A 
ATOM     20  C   UNL     1      10.917  11.819  19.786  0.00  0.00    +0.000 A 
ATOM     21  N   UNL     1      10.763  12.892  20.600  0.00  0.00    +0.000 N 
ATOM     22  C   UNL     1      10.957  13.981  19.778  0.00  0.00    +0.000 A 
ATOM     23  C   UNL     1      11.412  15.239  20.102  0.00  0.00    +0.000 A 
ATOM     24  C   UNL     1      11.522  16.150  19.062  0.00  0.00    +0.000 A 
ATOM     25  C   UNL     1      11.046  15.818  17.794  0.00  0.00    +0.000 A 
ATOM     26  C   UNL     1      10.475  14.549  17.494  0.00  0.00    +0.000 A 
ATOM     27  C   UNL     1      10.493  13.553  18.505  0.00  0.00    +0.000 A 
ATOM     28  H   UNL     1      10.110  12.939  21.372  0.00  0.00    +0.000 HD
BRANCH  25  29
ATOM     29  O   UNL     1      11.176  16.722  16.779  0.00  0.00    +0.000 OA
ATOM     30  H   UNL     1      10.391  16.651  16.196  0.00  0.00    +0.000 HD
ENDBRANCH  25  29
ENDBRANCH  18  19
ENDBRANCH  17  18
ENDBRANCH   3  17
TORSDOF 10
ENDMDL
MODEL 8
REMARK VINA RESULT:      -7.5      6.459      9.003
REMARK  Name = 
REMARK  11 active torsions:
REMARK  status: ('A' for Active; 'I' for Inactive)
REMARK    1  A    between atoms: C_1  and  C_2
REMARK    2  A    between atoms: C_2  and  C_3
REMARK    3  A    between atoms: C_3  and  C_4
REMARK    4  A    between atoms: C_4  and  C_5
REMARK    5  A    between atoms: C_5  and  C_6
REMARK    6  A    between atoms: C_10  and  O_11
REMARK    7  A    between atoms: O_11  and  C_12
REMARK    8  A    between atoms: N_14  and  C_15
REMARK    9  A    between atoms: C_15  and  C_16
REMARK   10  A    between atoms: C_16  and  C_17
REMARK   11  A    between atoms: C_23  and  O_24
REMARK                            x       y       z     vdW  Elec       q    Type
REMARK                         _______ _______ _______ _____ _____    ______ ____
ROOT
ATOM      1  C   UNL     1       7.802   7.978  17.914  0.00  0.00    +0.000 C 
ATOM      2  O   UNL     1       8.387   7.202  18.677  0.00  0.00    +0.000 OA
ATOM      3  N   UNL     1       8.180   9.271  17.687  0.00  0.00    +0.000 N 
ATOM      4  H   UNL     1       7.605   9.785  17.028  0.00  0.00    +0.000 HD
ENDROOT
BRANCH   1   5
ATOM      5  O   UNL     1       6.670   7.658  17.134  0.00  0.00    +0.000 OA
BRANCH   5  10
ATOM      6  C   UNL     1       4.384   4.665  16.980  0.00  0.00    +0.000 A 
ATOM      7  C   UNL     1       5.174   3.829  16.176  0.00  0.00    +0.000 A 
ATOM      8  C   UNL     1       6.411   4.268  15.702  0.00  0.00    +0.000 A 
ATOM      9  C   UNL     1       6.875   5.545  16.028  0.00  0.00    +0.000 A 
ATOM     10  C   UNL     1       6.098   6.385  16.837  0.00  0.00    +0.000 A 
ATOM     11  C   UNL     1       4.860   5.953  17.308  0.00  0.00    +0.000 A 
BRANCH   6  12
ATOM     12  C   UNL     1       3.069   4.155  17.528  0.00  0.00    +0.000 C 
BRANCH  12  13
ATOM     13  C   UNL     1       2.263   5.172  18.345  0.00  0.00    +0.000 C 
BRANCH  13  14
ATOM     14  C   UNL     1       2.463   5.018  19.855  0.00  0.00    +0.000 C 
BRANCH  14  16
ATOM     15  C   UNL     1       0.906   3.052  20.095  0.00  0.00    +0.000 C 
ATOM     16  C   UNL     1       1.202   4.479  20.532  0.00  0.00    +0.000 C 
ENDBRANCH  14  16
ENDBRANCH  13  14
ENDBRANCH  12  13
ENDBRANCH   6  12
ENDBRANCH   5  10
ENDBRANCH   1   5
BRANCH   3  17
ATOM     17  C   UNL     1       9.320   9.944  18.290  0.00  0.00    +0.000 C 
BRANCH  17  18
ATOM     18  C   UNL     1       9.050  10.715  19.587  0.00  0.00    +0.000 C 
BRANCH  18  19
ATOM     19  C   UNL     1       9.745  12.030  19.835  0.00  0.00    +0.000 A 
ATOM     20  C   UNL     1      10.350  12.296  21.049  0.00  0.00    +0.000 A 
ATOM     21  N   UNL     1      10.206  13.631  21.237  0.00  0.00    +0.000 N 
ATOM     22  C   UNL     1      10.513  14.188  20.014  0.00  0.00    +0.000 A 
ATOM     23  C   UNL     1      11.017  15.438  19.736  0.00  0.00    +0.000 A 
ATOM     24  C   UNL     1      11.243  15.736  18.401  0.00  0.00    +0.000 A 
ATOM     25  C   UNL     1      10.830  14.846  17.410  0.00  0.00    +0.000 A 
ATOM     26  C   UNL     1      10.209  13.600  17.706  0.00  0.00    +0.000 A 
ATOM     27  C   UNL     1      10.107  13.211  19.067  0.00  0.00    +0.000 A 
ATOM     28  H   UNL     1       9.510  14.055  21.837  0.00  0.00    +0.000 HD
BRANCH  25  29
ATOM     29  O   UNL     1      11.076  15.149  16.101  0.00  0.00    +0.000 OA
ATOM     30  H   UNL     1      10.895  16.103  15.964  0.00  0.00    +0.000 HD
ENDBRANCH  25  29
ENDBRANCH  18  19
ENDBRANCH  17  18
ENDBRANCH   3  17
TORSDOF 10
ENDMDL
MODEL 9
REMARK VINA RESULT:      -7.4      2.960      8.220
REMARK  Name = 
REMARK  11 active torsions:
REMARK  status: ('A' for Active; 'I' for Inactive)
REMARK    1  A    between atoms: C_1  and  C_2
REMARK    2  A    between atoms: C_2  and  C_3
REMARK    3  A    between atoms: C_3  and  C_4
REMARK    4  A    between atoms: C_4  and  C_5
REMARK    5  A    between atoms: C_5  and  C_6
REMARK    6  A    between atoms: C_10  and  O_11
REMARK    7  A    between atoms: O_11  and  C_12
REMARK    8  A    between atoms: N_14  and  C_15
REMARK    9  A    between atoms: C_15  and  C_16
REMARK   10  A    between atoms: C_16  and  C_17
REMARK   11  A    between atoms: C_23  and  O_24
REMARK                            x       y       z     vdW  Elec       q    Type
REMARK                         _______ _______ _______ _____ _____    ______ ____
ROOT
ATOM      1  C   UNL     1       2.118   8.320  18.276  0.00  0.00    +0.000 C 
ATOM      2  O   UNL     1       1.388   8.767  17.383  0.00  0.00    +0.000 OA
ATOM      3  N   UNL     1       1.870   8.451  19.613  0.00  0.00    +0.000 N 
ATOM      4  H   UNL     1       2.557   8.025  20.227  0.00  0.00    +0.000 HD
ENDROOT
BRANCH   1   5
ATOM      5  O   UNL     1       3.304   7.584  18.070  0.00  0.00    +0.000 OA
BRANCH   5  10
ATOM      6  C   UNL     1       2.887   3.839  18.126  0.00  0.00    +0.000 A 
ATOM      7  C   UNL     1       4.190   3.480  18.504  0.00  0.00    +0.000 A 
ATOM      8  C   UNL     1       5.160   4.461  18.714  0.00  0.00    +0.000 A 
ATOM      9  C   UNL     1       4.838   5.812  18.553  0.00  0.00    +0.000 A 
ATOM     10  C   UNL     1       3.538   6.182  18.184  0.00  0.00    +0.000 A 
ATOM     11  C   UNL     1       2.568   5.205  17.968  0.00  0.00    +0.000 A 
BRANCH   6  12
ATOM     12  C   UNL     1       1.834   2.765  17.952  0.00  0.00    +0.000 C 
BRANCH  12  13
ATOM     13  C   UNL     1       0.685   2.807  18.967  0.00  0.00    +0.000 C 
BRANCH  13  14
ATOM     14  C   UNL     1       1.011   3.647  20.205  0.00  0.00    +0.000 C 
BRANCH  14  16
ATOM     15  C   UNL     1       2.766   2.514  21.612  0.00  0.00    +0.000 C 
ATOM     16  C   UNL     1       1.278   2.764  21.424  0.00  0.00    +0.000 C 
ENDBRANCH  14  16
ENDBRANCH  13  14
ENDBRANCH  12  13
ENDBRANCH   6  12
ENDBRANCH   5  10
ENDBRANCH   1   5
BRANCH   3  17
ATOM     17  C   UNL     1       0.724   9.120  20.207  0.00  0.00    +0.000 C 
BRANCH  17  18
ATOM     18  C   UNL     1       0.580  10.618  19.913  0.00  0.00    +0.000 C 
BRANCH  18  19
ATOM     19  C   UNL     1      -0.733  11.160  19.408  0.00  0.00    +0.000 A 
ATOM     20  C   UNL     1      -1.242  12.351  19.890  0.00  0.00    +0.000 A 
ATOM     21  N   UNL     1      -2.590  12.202  19.863  0.00  0.00    +0.000 N 
ATOM     22  C   UNL     1      -2.849  11.619  18.642  0.00  0.00    +0.000 A 
ATOM     23  C   UNL     1      -3.988  11.694  17.872  0.00  0.00    +0.000 A 
ATOM     24  C   UNL     1      -3.973  11.009  16.667  0.00  0.00    +0.000 A 
ATOM     25  C   UNL     1      -2.899  10.177  16.354  0.00  0.00    +0.000 A 
ATOM     26  C   UNL     1      -1.772  10.021  17.209  0.00  0.00    +0.000 A 
ATOM     27  C   UNL     1      -1.699  10.829  18.373  0.00  0.00    +0.000 A 
ATOM     28  H   UNL     1      -3.159  11.984  20.670  0.00  0.00    +0.000 HD
BRANCH  25  29
ATOM     29  O   UNL     1      -2.894   9.523  15.155  0.00  0.00    +0.000 OA
ATOM     30  H   UNL     1      -3.047  10.178  14.442  0.00  0.00    +0.000 HD
ENDBRANCH  25  29
ENDBRANCH  18  19
ENDBRANCH  17  18
ENDBRANCH   3  17
TORSDOF 10
ENDMDL
