MODEL 1
REMARK VINA RESULT:      -8.1      0.000      0.000
REMARK  Name = 
REMARK  8 active torsions:
REMARK  status: ('A' for Active; 'I' for Inactive)
REMARK    1  A    between atoms: C_2  and  O_3
REMARK    2  A    between atoms: C_2  and  C_4
REMARK    3  A    between atoms: C_5  and  C_6
REMARK    4  A    between atoms: C_13  and  C_14
REMARK    5  A    between atoms: C_14  and  O_15
REMARK    6  A    between atoms: C_16  and  C_17
REMARK    7  A    between atoms: C_20  and  O_21
REMARK    8  A    between atoms: C_22  and  O_23
REMARK                            x       y       z     vdW  Elec       q    Type
REMARK                         _______ _______ _______ _____ _____    ______ ____
ROOT
ATOM      1  C   UNL     1       6.458   4.955  15.505  0.00  0.00    +0.000 A 
ATOM      2  C   UNL     1       7.071   4.446  16.658  0.00  0.00    +0.000 A 
ATOM      3  C   UNL     1       6.602   4.789  17.928  0.00  0.00    +0.000 A 
ATOM      4  C   UNL     1       5.498   5.628  18.057  0.00  0.00    +0.000 A 
ATOM      5  C   UNL     1       4.911   6.179  16.920  0.00  0.00    +0.000 A 
ATOM      6  C   UNL     1       5.370   5.826  15.653  0.00  0.00    +0.000 A 
ATOM      7  O   UNL     1       3.835   7.021  16.948  0.00  0.00    +0.000 OA
ATOM      8  C   UNL     1       3.507   7.455  18.283  0.00  0.00    +0.000 C 
ATOM      9  C   UNL     1       3.660   6.332  19.329  0.00  0.00    +0.000 C 
ATOM     10  O   UNL     1       5.010   5.824  19.322  0.00  0.00    +0.000 OA
ENDROOT
BRANCH   9  11
ATOM     11  C   UNL     1       2.661   5.178  19.283  0.00  0.00    +0.000 A 
ATOM     12  C   UNL     1       2.109   4.699  18.076  0.00  0.00    +0.000 A 
ATOM     13  C   UNL     1       1.186   3.652  18.054  0.00  0.00    +0.000 A 
ATOM     14  C   UNL     1       0.819   3.054  19.247  0.00  0.00    +0.000 A 
ATOM     15  C   UNL     1       1.359   3.504  20.449  0.00  0.00    +0.000 A 
ATOM     16  C   UNL     1       2.273   4.552  20.480  0.00  0.00    +0.000 A 
BRANCH  14  17
ATOM     17  O   UNL     1      -0.067   2.015  19.283  0.00  0.00    +0.000 OA
ATOM     18  H   UNL     1       0.162   1.453  20.044  0.00  0.00    +0.000 HD
ENDBRANCH  14  17
BRANCH  15  19
ATOM     19  O   UNL     1       0.985   2.909  21.619  0.00  0.00    +0.000 OA
ATOM     20  H   UNL     1       1.216   3.560  22.309  0.00  0.00    +0.000 HD
ENDBRANCH  15  19
ENDBRANCH   9  11
BRANCH   1  22
ATOM     21  C   UNL     1       6.168   3.747  13.373  0.00  0.00    +0.000 C 
ATOM     22  C   UNL     1       6.925   4.512  14.181  0.00  0.00    +0.000 C 
BRANCH  21  24
ATOM     23  O   UNL     1       7.348   3.771  11.342  0.00  0.00    +0.000 OA
ATOM     24  C   UNL     1       6.519   3.215  12.048  0.00  0.00    +0.000 C 
BRANCH  24  25
ATOM     25  O   UNL     1       5.906   2.076  11.691  0.00  0.00    +0.000 OA
ATOM     26  H   UNL     1       6.129   1.744  10.805  0.00  0.00    +0.000 HD
ENDBRANCH  24  25
ENDBRANCH  21  24
ENDBRANCH   1  22
BRANCH   8  27
ATOM     27  C   UNL     1       2.089   8.034  18.230  0.00  0.00    +0.000 C 
BRANCH  27  28
ATOM     28  O   UNL     1       2.100   9.250  17.478  0.00  0.00    +0.000 OA
ATOM     29  H   UNL     1       1.164   9.510  17.375  0.00  0.00    +0.000 HD
ENDBRANCH  27  28
ENDBRANCH   8  27
TORSDOF 8
ENDMDL
MODEL 2
REMARK VINA RESULT:      -8.0      0.798      1.339
REMARK  Name = 
REMARK  8 active torsions:
REMARK  status: ('A' for Active; 'I' for Inactive)
REMARK    1  A    between atoms: C_2  and  O_3
REMARK    2  A    between atoms: C_2  and  C_4
REMARK    3  A    between atoms: C_5  and  C_6
REMARK    4  A    between atoms: C_13  and  C_14
REMARK    5  A    between atoms: C_14  and  O_15
REMARK    6  A    between atoms: C_16  and  C_17
REMARK    7  A    between atoms: C_20  and  O_21
REMARK    8  A    between atoms: C_22  and  O_23
REMARK                            x       y       z     vdW  Elec       q    Type
REMARK                         _______ _______ _______ _____ _____    ______ ____
ROOT
ATOM      1  C   UNL     1       6.501   5.095  15.633  0.00  0.00    +0.000 A 
ATOM      2  C   UNL     1       7.130   4.519  16.745  0.00  0.00    +0.000 A 
ATOM      3  C   UNL     1       6.645   4.743  18.035  0.00  0.00    +0.000 A 
ATOM      4  C   UNL     1       5.510   5.527  18.225  0.00  0.00    +0.000 A 
ATOM      5  C   UNL     1       4.905   6.144  17.131  0.00  0.00    +0.000 A 
ATOM      6  C   UNL     1       5.381   5.909  15.843  0.00  0.00    +0.000 A 
ATOM      7  O   UNL     1       3.798   6.940  17.219  0.00  0.00    +0.000 OA
ATOM      8  C   UNL     1       3.450   7.253  18.583  0.00  0.00    +0.000 C 
ATOM      9  C   UNL     1       3.644   6.058  19.538  0.00  0.00    +0.000 C 
ATOM     10  O   UNL     1       5.013   5.604  19.498  0.00  0.00    +0.000 OA
ENDROOT
BRANCH   9  11
ATOM     11  C   UNL     1       2.690   4.875  19.396  0.00  0.00    +0.000 A 
ATOM     12  C   UNL     1       1.592   4.675  20.261  0.00  0.00    +0.000 A 
ATOM     13  C   UNL     1       0.738   3.580  20.125  0.00  0.00    +0.000 A 
ATOM     14  C   UNL     1       0.962   2.676  19.101  0.00  0.00    +0.000 A 
ATOM     15  C   UNL     1       2.033   2.858  18.230  0.00  0.00    +0.000 A 
ATOM     16  C   UNL     1       2.893   3.943  18.364  0.00  0.00    +0.000 A 
BRANCH  14  17
ATOM     17  O   UNL     1       0.149   1.595  18.911  0.00  0.00    +0.000 OA
ATOM     18  H   UNL     1      -0.417   1.504  19.696  0.00  0.00    +0.000 HD
ENDBRANCH  14  17
BRANCH  15  19
ATOM     19  O   UNL     1       2.245   1.957  17.227  0.00  0.00    +0.000 OA
ATOM     20  H   UNL     1       1.395   1.919  16.750  0.00  0.00    +0.000 HD
ENDBRANCH  15  19
ENDBRANCH   9  11
BRANCH   1  22
ATOM     21  C   UNL     1       6.340   3.918  13.469  0.00  0.00    +0.000 C 
ATOM     22  C   UNL     1       6.988   4.775  14.280  0.00  0.00    +0.000 C 
BRANCH  21  24
ATOM     23  O   UNL     1       7.346   4.237  11.371  0.00  0.00    +0.000 OA
ATOM     24  C   UNL     1       6.728   3.491  12.116  0.00  0.00    +0.000 C 
BRANCH  24  25
ATOM     25  O   UNL     1       6.396   2.236  11.779  0.00  0.00    +0.000 OA
ATOM     26  H   UNL     1       7.136   1.671  11.500  0.00  0.00    +0.000 HD
ENDBRANCH  24  25
ENDBRANCH  21  24
ENDBRANCH   1  22
BRANCH   8  27
ATOM     27  C   UNL     1       2.012   7.781  18.569  0.00  0.00    +0.000 C 
BRANCH  27  28
ATOM     28  O   UNL     1       1.883   8.782  17.556  0.00  0.00    +0.000 OA
ATOM     29  H   UNL     1       1.471   8.338  16.790  0.00  0.00    +0.000 HD
ENDBRANCH  27  28
ENDBRANCH   8  27
TORSDOF 8
ENDMDL
MODEL 3
REMARK VINA RESULT:      -7.0      8.801     11.133
REMARK  Name = 
REMARK  8 active torsions:
REMARK  status: ('A' for Active; 'I' for Inactive)
REMARK    1  A    between atoms: C_2  and  O_3
REMARK    2  A    between atoms: C_2  and  C_4
REMARK    3  A    between atoms: C_5  and  C_6
REMARK    4  A    between atoms: C_13  and  C_14
REMARK    5  A    between atoms: C_14  and  O_15
REMARK    6  A    between atoms: C_16  and  C_17
REMARK    7  A    between atoms: C_20  and  O_21
REMARK    8  A    between atoms: C_22  and  O_23
REMARK                            x       y       z     vdW  Elec       q    Type
REMARK                         _______ _______ _______ _____ _____    ______ ____
ROOT
ATOM      1  C   UNL     1       9.134  10.448  18.651  0.00  0.00    +0.000 A 
ATOM      2  C   UNL     1       9.265  10.567  20.041  0.00  0.00    +0.000 A 
ATOM      3  C   UNL     1      10.000  11.612  20.603  0.00  0.00    +0.000 A 
ATOM      4  C   UNL     1      10.594  12.565  19.779  0.00  0.00    +0.000 A 
ATOM      5  C   UNL     1      10.512  12.430  18.395  0.00  0.00    +0.000 A 
ATOM      6  C   UNL     1       9.767  11.395  17.835  0.00  0.00    +0.000 A 
ATOM      7  O   UNL     1      11.072  13.306  17.508  0.00  0.00    +0.000 OA
ATOM      8  C   UNL     1      11.942  14.261  18.149  0.00  0.00    +0.000 C 
ATOM      9  C   UNL     1      11.394  14.750  19.505  0.00  0.00    +0.000 C 
ATOM     10  O   UNL     1      11.192  13.632  20.394  0.00  0.00    +0.000 OA
ENDROOT
BRANCH   9  11
ATOM     11  C   UNL     1      10.156  15.643  19.489  0.00  0.00    +0.000 A 
ATOM     12  C   UNL     1      10.164  16.962  19.992  0.00  0.00    +0.000 A 
ATOM     13  C   UNL     1       9.019  17.760  19.983  0.00  0.00    +0.000 A 
ATOM     14  C   UNL     1       7.849  17.250  19.447  0.00  0.00    +0.000 A 
ATOM     15  C   UNL     1       7.820  15.955  18.936  0.00  0.00    +0.000 A 
ATOM     16  C   UNL     1       8.955  15.152  18.949  0.00  0.00    +0.000 A 
BRANCH  14  17
ATOM     17  O   UNL     1       6.703  17.991  19.397  0.00  0.00    +0.000 OA
ATOM     18  H   UNL     1       6.161  17.656  18.661  0.00  0.00    +0.000 HD
ENDBRANCH  14  17
BRANCH  15  19
ATOM     19  O   UNL     1       6.660  15.463  18.415  0.00  0.00    +0.000 OA
ATOM     20  H   UNL     1       5.970  15.742  19.047  0.00  0.00    +0.000 HD
ENDBRANCH  15  19
ENDBRANCH   9  11
BRANCH   1  22
ATOM     21  C   UNL     1       8.449   8.088  18.425  0.00  0.00    +0.000 C 
ATOM     22  C   UNL     1       8.286   9.381  18.092  0.00  0.00    +0.000 C 
BRANCH  21  24
ATOM     23  O   UNL     1       7.158   6.144  18.692  0.00  0.00    +0.000 OA
ATOM     24  C   UNL     1       7.696   6.928  17.924  0.00  0.00    +0.000 C 
BRANCH  24  25
ATOM     25  O   UNL     1       7.611   6.815  16.590  0.00  0.00    +0.000 OA
ATOM     26  H   UNL     1       8.303   7.280  16.089  0.00  0.00    +0.000 HD
ENDBRANCH  24  25
ENDBRANCH  21  24
ENDBRANCH   1  22
BRANCH   8  27
ATOM     27  C   UNL     1      12.171  15.399  17.149  0.00  0.00    +0.000 C 
BRANCH  27  28
ATOM     28  O   UNL     1      11.173  15.343  16.127  0.00  0.00    +0.000 OA
ATOM     29  H   UNL     1      10.502  16.010  16.369  0.00  0.00    +0.000 HD
ENDBRANCH  27  28
ENDBRANCH   8  27
TORSDOF 8
ENDMDL
MODEL 4
REMARK VINA RESULT:      -6.9      8.946     11.243
REMARK  Name = 
REMARK  8 active torsions:
REMARK  status: ('A' for Active; 'I' for Inactive)
REMARK    1  A    between atoms: C_2  and  O_3
REMARK    2  A    between atoms: C_2  and  C_4
REMARK    3  A    between atoms: C_5  and  C_6
REMARK    4  A    between atoms: C_13  and  C_14
REMARK    5  A    between atoms: C_14  and  O_15
REMARK    6  A    between atoms: C_16  and  C_17
REMARK    7  A    between atoms: C_20  and  O_21
REMARK    8  A    between atoms: C_22  and  O_23
REMARK                            x       y       z     vdW  Elec       q    Type
REMARK                         _______ _______ _______ _____ _____    ______ ____
ROOT
ATOM      1  C   UNL     1       9.122  10.450  18.560  0.00  0.00    +0.000 A 
ATOM      2  C   UNL     1       9.245  10.526  19.954  0.00  0.00    +0.000 A 
ATOM      3  C   UNL     1       9.940  11.578  20.554  0.00  0.00    +0.000 A 
ATOM      4  C   UNL     1      10.501  12.580  19.764  0.00  0.00    +0.000 A 
ATOM      5  C   UNL     1      10.427  12.488  18.376  0.00  0.00    +0.000 A 
ATOM      6  C   UNL     1       9.722  11.446  17.779  0.00  0.00    +0.000 A 
ATOM      7  O   UNL     1      10.957  13.413  17.521  0.00  0.00    +0.000 OA
ATOM      8  C   UNL     1      11.789  14.377  18.196  0.00  0.00    +0.000 C 
ATOM      9  C   UNL     1      11.221  14.801  19.566  0.00  0.00    +0.000 C 
ATOM     10  O   UNL     1      11.058  13.647  20.417  0.00  0.00    +0.000 OA
ENDROOT
BRANCH   9  11
ATOM     11  C   UNL     1       9.950  15.648  19.576  0.00  0.00    +0.000 A 
ATOM     12  C   UNL     1       8.834  15.352  18.765  0.00  0.00    +0.000 A 
ATOM     13  C   UNL     1       7.686  16.146  18.776  0.00  0.00    +0.000 A 
ATOM     14  C   UNL     1       7.634  17.241  19.621  0.00  0.00    +0.000 A 
ATOM     15  C   UNL     1       8.720  17.546  20.438  0.00  0.00    +0.000 A 
ATOM     16  C   UNL     1       9.870  16.764  20.426  0.00  0.00    +0.000 A 
BRANCH  14  17
ATOM     17  O   UNL     1       6.530  18.043  19.686  0.00  0.00    +0.000 OA
ATOM     18  H   UNL     1       6.170  17.984  20.588  0.00  0.00    +0.000 HD
ENDBRANCH  14  17
BRANCH  15  19
ATOM     19  O   UNL     1       8.658  18.630  21.263  0.00  0.00    +0.000 OA
ATOM     20  H   UNL     1       7.755  18.980  21.139  0.00  0.00    +0.000 HD
ENDBRANCH  15  19
ENDBRANCH   9  11
BRANCH   1  22
ATOM     21  C   UNL     1       8.359   8.107  18.419  0.00  0.00    +0.000 C 
ATOM     22  C   UNL     1       8.315   9.372  17.963  0.00  0.00    +0.000 C 
BRANCH  21  24
ATOM     23  O   UNL     1       7.721   5.846  18.445  0.00  0.00    +0.000 OA
ATOM     24  C   UNL     1       7.632   6.938  17.902  0.00  0.00    +0.000 C 
BRANCH  24  25
ATOM     25  O   UNL     1       6.850   7.158  16.834  0.00  0.00    +0.000 OA
ATOM     26  H   UNL     1       6.456   8.046  16.785  0.00  0.00    +0.000 HD
ENDBRANCH  24  25
ENDBRANCH  21  24
ENDBRANCH   1  22
BRANCH   8  27
ATOM     27  C   UNL     1      11.978  15.556  17.236  0.00  0.00    +0.000 C 
BRANCH  27  28
ATOM     28  O   UNL     1      11.115  15.395  16.108  0.00  0.00    +0.000 OA
ATOM     29  H   UNL     1      11.645  14.938  15.427  0.00  0.00    +0.000 HD
ENDBRANCH  27  28
ENDBRANCH   8  27
TORSDOF 8
ENDMDL
MODEL 5
REMARK VINA RESULT:      -6.9      4.159      7.072
REMARK  Name = 
REMARK  8 active torsions:
REMARK  status: ('A' for Active; 'I' for Inactive)
REMARK    1  A    between atoms: C_2  and  O_3
REMARK    2  A    between atoms: C_2  and  C_4
REMARK    3  A    between atoms: C_5  and  C_6
REMARK    4  A    between atoms: C_13  and  C_14
REMARK    5  A    between atoms: C_14  and  O_15
REMARK    6  A    between atoms: C_16  and  C_17
REMARK    7  A    between atoms: C_20  and  O_21
REMARK    8  A    between atoms: C_22  and  O_23
REMARK                            x       y       z     vdW  Elec       q    Type
REMARK                         _______ _______ _______ _____ _____    ______ ____
ROOT
ATOM      1  C   UNL     1       2.213   7.041  19.147  0.00  0.00    +0.000 A 
ATOM      2  C   UNL     1       1.582   6.960  20.396  0.00  0.00    +0.000 A 
ATOM      3  C   UNL     1       1.041   8.098  20.998  0.00  0.00    +0.000 A 
ATOM      4  C   UNL     1       1.104   9.326  20.345  0.00  0.00    +0.000 A 
ATOM      5  C   UNL     1       1.771   9.428  19.126  0.00  0.00    +0.000 A 
ATOM      6  C   UNL     1       2.298   8.290  18.519  0.00  0.00    +0.000 A 
ATOM      7  O   UNL     1       1.896  10.590  18.418  0.00  0.00    +0.000 OA
ATOM      8  C   UNL     1       1.458  11.742  19.166  0.00  0.00    +0.000 C 
ATOM      9  C   UNL     1       0.199  11.462  20.011  0.00  0.00    +0.000 C 
ATOM     10  O   UNL     1       0.445  10.375  20.928  0.00  0.00    +0.000 OA
ENDROOT
BRANCH   9  11
ATOM     11  C   UNL     1      -1.118  11.240  19.271  0.00  0.00    +0.000 A 
ATOM     12  C   UNL     1      -1.293  10.207  18.325  0.00  0.00    +0.000 A 
ATOM     13  C   UNL     1      -2.500  10.027  17.647  0.00  0.00    +0.000 A 
ATOM     14  C   UNL     1      -3.559  10.872  17.926  0.00  0.00    +0.000 A 
ATOM     15  C   UNL     1      -3.413  11.892  18.863  0.00  0.00    +0.000 A 
ATOM     16  C   UNL     1      -2.211  12.082  19.536  0.00  0.00    +0.000 A 
BRANCH  14  17
ATOM     17  O   UNL     1      -4.768  10.733  17.305  0.00  0.00    +0.000 OA
ATOM     18  H   UNL     1      -5.233   9.985  17.718  0.00  0.00    +0.000 HD
ENDBRANCH  14  17
BRANCH  15  19
ATOM     19  O   UNL     1      -4.464  12.721  19.126  0.00  0.00    +0.000 OA
ATOM     20  H   UNL     1      -4.922  12.302  19.879  0.00  0.00    +0.000 HD
ENDBRANCH  15  19
ENDBRANCH   9  11
BRANCH   1  22
ATOM     21  C   UNL     1       3.798   5.161  18.936  0.00  0.00    +0.000 C 
ATOM     22  C   UNL     1       2.702   5.810  18.502  0.00  0.00    +0.000 C 
BRANCH  21  24
ATOM     23  O   UNL     1       3.882   3.348  17.444  0.00  0.00    +0.000 OA
ATOM     24  C   UNL     1       4.407   3.947  18.372  0.00  0.00    +0.000 C 
BRANCH  24  25
ATOM     25  O   UNL     1       5.576   3.572  18.913  0.00  0.00    +0.000 OA
ATOM     26  H   UNL     1       5.918   4.157  19.610  0.00  0.00    +0.000 HD
ENDBRANCH  24  25
ENDBRANCH  21  24
ENDBRANCH   1  22
BRANCH   8  27
ATOM     27  C   UNL     1       1.262  12.881  18.161  0.00  0.00    +0.000 C 
BRANCH  27  28
ATOM     28  O   UNL     1       2.416  12.979  17.321  0.00  0.00    +0.000 OA
ATOM     29  H   UNL     1       2.078  13.070  16.409  0.00  0.00    +0.000 HD
ENDBRANCH  27  28
ENDBRANCH   8  27
TORSDOF 8
ENDMDL
MODEL 6
REMARK VINA RESULT:      -6.9      1.259      1.642
REMARK  Name = 
REMARK  8 active torsions:
REMARK  status: ('A' for Active; 'I' for Inactive)
REMARK    1  A    between atoms: C_2  and  O_3
REMARK    2  A    between atoms: C_2  and  C_4
REMARK    3  A    between atoms: C_5  and  C_6
REMARK    4  A    between atoms: C_13  and  C_14
REMARK    5  A    between atoms: C_14  and  O_15
REMARK    6  A    between atoms: C_16  and  C_17
REMARK    7  A    between atoms: C_20  and  O_21
REMARK    8  A    between atoms: C_22  and  O_23
REMARK                            x       y       z     vdW  Elec       q    Type
REMARK                         _______ _______ _______ _____ _____    ______ ____
ROOT
ATOM      1  C   UNL     1       6.153   4.475  14.839  0.00  0.00    +0.000 A 
ATOM      2  C   UNL     1       7.104   4.159  15.820  0.00  0.00    +0.000 A 
ATOM      3  C   UNL     1       7.010   4.697  17.105  0.00  0.00    +0.000 A 
ATOM      4  C   UNL     1       5.949   5.539  17.430  0.00  0.00    +0.000 A 
ATOM      5  C   UNL     1       5.026   5.898  16.450  0.00  0.00    +0.000 A 
ATOM      6  C   UNL     1       5.112   5.350  15.172  0.00  0.00    +0.000 A 
ATOM      7  O   UNL     1       3.961   6.726  16.671  0.00  0.00    +0.000 OA
ATOM      8  C   UNL     1       4.017   7.365  17.962  0.00  0.00    +0.000 C 
ATOM      9  C   UNL     1       4.530   6.424  19.071  0.00  0.00    +0.000 C 
ATOM     10  O   UNL     1       5.844   5.930  18.738  0.00  0.00    +0.000 OA
ENDROOT
BRANCH   9  11
ATOM     11  C   UNL     1       3.625   5.271  19.499  0.00  0.00    +0.000 A 
ATOM     12  C   UNL     1       2.516   5.451  20.353  0.00  0.00    +0.000 A 
ATOM     13  C   UNL     1       1.708   4.383  20.744  0.00  0.00    +0.000 A 
ATOM     14  C   UNL     1       1.990   3.116  20.266  0.00  0.00    +0.000 A 
ATOM     15  C   UNL     1       3.074   2.915  19.414  0.00  0.00    +0.000 A 
ATOM     16  C   UNL     1       3.888   3.973  19.026  0.00  0.00    +0.000 A 
BRANCH  14  17
ATOM     17  O   UNL     1       1.223   2.036  20.603  0.00  0.00    +0.000 OA
ATOM     18  H   UNL     1       1.611   1.631  21.397  0.00  0.00    +0.000 HD
ENDBRANCH  14  17
BRANCH  15  19
ATOM     19  O   UNL     1       3.344   1.660  18.953  0.00  0.00    +0.000 OA
ATOM     20  H   UNL     1       4.112   1.367  19.479  0.00  0.00    +0.000 HD
ENDBRANCH  15  19
ENDBRANCH   9  11
BRANCH   1  22
ATOM     21  C   UNL     1       5.141   3.406  12.858  0.00  0.00    +0.000 C 
ATOM     22  C   UNL     1       6.235   3.829  13.518  0.00  0.00    +0.000 C 
BRANCH  21  24
ATOM     23  O   UNL     1       5.912   1.885  11.243  0.00  0.00    +0.000 OA
ATOM     24  C   UNL     1       5.082   2.726  11.555  0.00  0.00    +0.000 C 
BRANCH  24  25
ATOM     25  O   UNL     1       4.051   3.060  10.765  0.00  0.00    +0.000 OA
ATOM     26  H   UNL     1       3.172   2.819  11.105  0.00  0.00    +0.000 HD
ENDBRANCH  24  25
ENDBRANCH  21  24
ENDBRANCH   1  22
BRANCH   8  27
ATOM     27  C   UNL     1       2.617   7.919  18.248  0.00  0.00    +0.000 C 
BRANCH  27  28
ATOM     28  O   UNL     1       2.334   8.988  17.342  0.00  0.00    +0.000 OA
ATOM     29  H   UNL     1       1.531   8.722  16.855  0.00  0.00    +0.000 HD
ENDBRANCH  27  28
ENDBRANCH   8  27
TORSDOF 8
ENDMDL
MODEL 7
REMARK VINA RESULT:      -6.8      3.379      5.668
REMARK  Name = 
REMARK  8 active torsions:
REMARK  status: ('A' for Active; 'I' for Inactive)
REMARK    1  A    between atoms: C_2  and  O_3
REMARK    2  A    between atoms: C_2  and  C_4
REMARK    3  A    between atoms: C_5  and  C_6
REMARK    4  A    between atoms: C_13  and  C_14
REMARK    5  A    between atoms: C_14  and  O_15
REMARK    6  A    between atoms: C_16  and  C_17
REMARK    7  A    between atoms: C_20  and  O_21
REMARK    8  A    between atoms: C_22  and  O_23
REMARK                            x       y       z     vdW  Elec       q    Type
REMARK                         _______ _______ _______ _____ _____    ______ ____
ROOT
ATOM      1  C   UNL     1       7.600   7.260  17.997  0.00  0.00    +0.000 A 
ATOM      2  C   UNL     1       6.824   7.526  16.861  0.00  0.00    +0.000 A 
ATOM      3  C   UNL     1       5.735   6.715  16.534  0.00  0.00    +0.000 A 
ATOM      4  C   UNL     1       5.396   5.642  17.355  0.00  0.00    +0.000 A 
ATOM      5  C   UNL     1       6.189   5.340  18.460  0.00  0.00    +0.000 A 
ATOM      6  C   UNL     1       7.268   6.156  18.793  0.00  0.00    +0.000 A 
ATOM      7  O   UNL     1       5.945   4.302  19.315  0.00  0.00    +0.000 OA
ATOM      8  C   UNL     1       4.911   3.421  18.832  0.00  0.00    +0.000 C 
ATOM      9  C   UNL     1       3.751   4.178  18.154  0.00  0.00    +0.000 C 
ATOM     10  O   UNL     1       4.246   4.965  17.051  0.00  0.00    +0.000 OA
ENDROOT
BRANCH   9  11
ATOM     11  C   UNL     1       2.841   5.025  19.041  0.00  0.00    +0.000 A 
ATOM     12  C   UNL     1       2.051   4.468  20.070  0.00  0.00    +0.000 A 
ATOM     13  C   UNL     1       1.214   5.256  20.862  0.00  0.00    +0.000 A 
ATOM     14  C   UNL     1       1.175   6.622  20.647  0.00  0.00    +0.000 A 
ATOM     15  C   UNL     1       1.954   7.195  19.644  0.00  0.00    +0.000 A 
ATOM     16  C   UNL     1       2.784   6.415  18.845  0.00  0.00    +0.000 A 
BRANCH  14  17
ATOM     17  O   UNL     1       0.388   7.444  21.403  0.00  0.00    +0.000 OA
ATOM     18  H   UNL     1      -0.236   6.886  21.899  0.00  0.00    +0.000 HD
ENDBRANCH  14  17
BRANCH  15  19
ATOM     19  O   UNL     1       1.903   8.543  19.439  0.00  0.00    +0.000 OA
ATOM     20  H   UNL     1       2.811   8.784  19.174  0.00  0.00    +0.000 HD
ENDBRANCH  15  19
ENDBRANCH   9  11
BRANCH   1  22
ATOM     21  C   UNL     1       8.529   9.515  18.373  0.00  0.00    +0.000 C 
ATOM     22  C   UNL     1       8.693   8.180  18.358  0.00  0.00    +0.000 C 
BRANCH  21  24
ATOM     23  O   UNL     1      10.175  11.090  17.799  0.00  0.00    +0.000 OA
ATOM     24  C   UNL     1       9.536  10.542  18.685  0.00  0.00    +0.000 C 
BRANCH  24  25
ATOM     25  O   UNL     1       9.671  10.855  19.982  0.00  0.00    +0.000 OA
ATOM     26  H   UNL     1       9.806  10.099  20.580  0.00  0.00    +0.000 HD
ENDBRANCH  24  25
ENDBRANCH  21  24
ENDBRANCH   1  22
BRANCH   8  27
ATOM     27  C   UNL     1       4.455   2.570  20.022  0.00  0.00    +0.000 C 
BRANCH  27  28
ATOM     28  O   UNL     1       5.281   1.407  20.119  0.00  0.00    +0.000 OA
ATOM     29  H   UNL     1       4.793   0.692  19.664  0.00  0.00    +0.000 HD
ENDBRANCH  27  28
ENDBRANCH   8  27
TORSDOF 8
ENDMDL
MODEL 8
REMARK VINA RESULT:      -6.8      8.653     10.968
REMARK  Name = 
REMARK  8 active torsions:
REMARK  status: ('A' for Active; 'I' for Inactive)
REMARK    1  A    between atoms: C_2  and  O_3
REMARK    2  A    between atoms: C_2  and  C_4
REMARK    3  A    between atoms: C_5  and  C_6
REMARK    4  A    between atoms: C_13  and  C_14
REMARK    5  A    between atoms: C_14  and  O_15
REMARK    6  A    between atoms: C_16  and  C_17
REMARK    7  A    between atoms: C_20  and  O_21
REMARK    8  A    between atoms: C_22  and  O_23
REMARK                            x       y       z     vdW  Elec       q    Type
REMARK                         _______ _______ _______ _____ _____    ______ ____
ROOT
ATOM      1  C   UNL     1       9.444  10.516  19.326  0.00  0.00    +0.000 A 
ATOM      2  C   UNL     1       9.472  10.948  20.659  0.00  0.00    +0.000 A 
ATOM      3  C   UNL     1       9.819  12.263  20.976  0.00  0.00    +0.000 A 
ATOM      4  C   UNL     1      10.120  13.167  19.960  0.00  0.00    +0.000 A 
ATOM      5  C   UNL     1      10.142  12.735  18.635  0.00  0.00    +0.000 A 
ATOM      6  C   UNL     1       9.782  11.428  18.318  0.00  0.00    +0.000 A 
ATOM      7  O   UNL     1      10.437  13.544  17.573  0.00  0.00    +0.000 OA
ATOM      8  C   UNL     1      10.936  14.833  17.983  0.00  0.00    +0.000 C 
ATOM      9  C   UNL     1      10.207  15.389  19.223  0.00  0.00    +0.000 C 
ATOM     10  O   UNL     1      10.328  14.469  20.327  0.00  0.00    +0.000 OA
ENDROOT
BRANCH   9  11
ATOM     11  C   UNL     1       8.753  15.825  19.054  0.00  0.00    +0.000 A 
ATOM     12  C   UNL     1       7.805  15.051  18.350  0.00  0.00    +0.000 A 
ATOM     13  C   UNL     1       6.483  15.472  18.195  0.00  0.00    +0.000 A 
ATOM     14  C   UNL     1       6.087  16.669  18.764  0.00  0.00    +0.000 A 
ATOM     15  C   UNL     1       7.003  17.444  19.471  0.00  0.00    +0.000 A 
ATOM     16  C   UNL     1       8.323  17.036  19.624  0.00  0.00    +0.000 A 
BRANCH  14  17
ATOM     17  O   UNL     1       4.802  17.122  18.657  0.00  0.00    +0.000 OA
ATOM     18  H   UNL     1       4.809  17.908  18.083  0.00  0.00    +0.000 HD
ENDBRANCH  14  17
BRANCH  15  19
ATOM     19  O   UNL     1       6.601  18.625  20.024  0.00  0.00    +0.000 OA
ATOM     20  H   UNL     1       6.147  18.366  20.848  0.00  0.00    +0.000 HD
ENDBRANCH  15  19
ENDBRANCH   9  11
BRANCH   1  22
ATOM     21  C   UNL     1       8.131   8.882  18.023  0.00  0.00    +0.000 C 
ATOM     22  C   UNL     1       8.996   9.146  19.019  0.00  0.00    +0.000 C 
BRANCH  21  24
ATOM     23  O   UNL     1       6.894   7.454  16.627  0.00  0.00    +0.000 OA
ATOM     24  C   UNL     1       7.584   7.574  17.629  0.00  0.00    +0.000 C 
BRANCH  24  25
ATOM     25  O   UNL     1       7.922   6.538  18.410  0.00  0.00    +0.000 OA
ATOM     26  H   UNL     1       7.249   5.840  18.489  0.00  0.00    +0.000 HD
ENDBRANCH  24  25
ENDBRANCH  21  24
ENDBRANCH   1  22
BRANCH   8  27
ATOM     27  C   UNL     1      10.839  15.758  16.766  0.00  0.00    +0.000 C 
BRANCH  27  28
ATOM     28  O   UNL     1      11.506  16.991  17.051  0.00  0.00    +0.000 OA
ATOM     29  H   UNL     1      12.421  16.882  16.727  0.00  0.00    +0.000 HD
ENDBRANCH  27  28
ENDBRANCH   8  27
TORSDOF 8
ENDMDL
MODEL 9
REMARK VINA RESULT:      -6.8      8.951     11.263
REMARK  Name = 
REMARK  8 active torsions:
REMARK  status: ('A' for Active; 'I' for Inactive)
REMARK    1  A    between atoms: C_2  and  O_3
REMARK    2  A    between atoms: C_2  and  C_4
REMARK    3  A    between atoms: C_5  and  C_6
REMARK    4  A    between atoms: C_13  and  C_14
REMARK    5  A    between atoms: C_14  and  O_15
REMARK    6  A    between atoms: C_16  and  C_17
REMARK    7  A    between atoms: C_20  and  O_21
REMARK    8  A    between atoms: C_22  and  O_23
REMARK                            x       y       z     vdW  Elec       q    Type
REMARK                         _______ _______ _______ _____ _____    ______ ____
ROOT
ATOM      1  C   UNL     1       9.140  10.651  18.454  0.00  0.00    +0.000 A 
ATOM      2  C   UNL     1       9.547  10.579  19.793  0.00  0.00    +0.000 A 
ATOM      3  C   UNL     1      10.301  11.604  20.367  0.00  0.00    +0.000 A 
ATOM      4  C   UNL     1      10.637  12.726  19.612  0.00  0.00    +0.000 A 
ATOM      5  C   UNL     1      10.280  12.786  18.267  0.00  0.00    +0.000 A 
ATOM      6  C   UNL     1       9.515  11.770  17.699  0.00  0.00    +0.000 A 
ATOM      7  O   UNL     1      10.576  13.837  17.444  0.00  0.00    +0.000 OA
ATOM      8  C   UNL     1      11.484  14.776  18.053  0.00  0.00    +0.000 C 
ATOM      9  C   UNL     1      11.195  15.000  19.551  0.00  0.00    +0.000 C 
ATOM     10  O   UNL     1      11.268  13.750  20.267  0.00  0.00    +0.000 OA
ENDROOT
BRANCH   9  11
ATOM     11  C   UNL     1       9.916  15.748  19.923  0.00  0.00    +0.000 A 
ATOM     12  C   UNL     1       9.317  15.643  21.197  0.00  0.00    +0.000 A 
ATOM     13  C   UNL     1       8.140  16.322  21.514  0.00  0.00    +0.000 A 
ATOM     14  C   UNL     1       7.557  17.138  20.561  0.00  0.00    +0.000 A 
ATOM     15  C   UNL     1       8.135  17.265  19.300  0.00  0.00    +0.000 A 
ATOM     16  C   UNL     1       9.304  16.585  18.974  0.00  0.00    +0.000 A 
BRANCH  14  17
ATOM     17  O   UNL     1       6.414  17.839  20.822  0.00  0.00    +0.000 OA
ATOM     18  H   UNL     1       5.889  17.329  21.463  0.00  0.00    +0.000 HD
ENDBRANCH  14  17
BRANCH  15  19
ATOM     19  O   UNL     1       7.548  18.069  18.368  0.00  0.00    +0.000 OA
ATOM     20  H   UNL     1       7.522  17.524  17.558  0.00  0.00    +0.000 HD
ENDBRANCH  15  19
ENDBRANCH   9  11
BRANCH   1  22
ATOM     21  C   UNL     1       8.373   8.310  18.298  0.00  0.00    +0.000 C 
ATOM     22  C   UNL     1       8.277   9.592  17.902  0.00  0.00    +0.000 C 
BRANCH  21  24
ATOM     23  O   UNL     1       6.889   7.245  16.823  0.00  0.00    +0.000 OA
ATOM     24  C   UNL     1       7.600   7.157  17.813  0.00  0.00    +0.000 C 
BRANCH  24  25
ATOM     25  O   UNL     1       7.757   6.015  18.499  0.00  0.00    +0.000 OA
ATOM     26  H   UNL     1       7.601   6.081  19.457  0.00  0.00    +0.000 HD
ENDBRANCH  24  25
ENDBRANCH  21  24
ENDBRANCH   1  22
BRANCH   8  27
ATOM     27  C   UNL     1      11.413  16.066  17.230  0.00  0.00    +0.000 C 
BRANCH  27  28
ATOM     28  O   UNL     1      10.961  15.763  15.908  0.00  0.00    +0.000 OA
ATOM     29  H   UNL     1      10.684  16.614  15.517  0.00  0.00    +0.000 HD
ENDBRANCH  27  28
ENDBRANCH   8  27
TORSDOF 8
ENDMDL
