MODEL 1
REMARK VINA RESULT:      -7.1      0.000      0.000
REMARK  Name = 
REMARK  12 active torsions:
REMARK  status: ('A' for Active; 'I' for Inactive)
REMARK    1  A    between atoms: C_1  and  C_2
REMARK    2  A    between atoms: C_2  and  C_3
REMARK    3  A    between atoms: C_3  and  N_4
REMARK    4  A    between atoms: C_5  and  C_7
REMARK    5  A    between atoms: C_7  and  N_8
REMARK    6  A    between atoms: N_8  and  C_9
REMARK    7  A    between atoms: N_8  and  S_15
REMARK    8  A    between atoms: S_15  and  C_18
REMARK    9  A    between atoms: C_21  and  O_22
REMARK   10  A    between atoms: O_22  and  C_23
REMARK   11  A    between atoms: C_24  and  O_25
REMARK   12  A    between atoms: O_25  and  C_26
REMARK                            x       y       z     vdW  Elec       q    Type
REMARK                         _______ _______ _______ _____ _____    ______ ____
ROOT
ATOM      1  N   UNL     1       4.550   4.480  17.229  0.00  0.00    +0.000 N 
ENDROOT
BRANCH   1   2
ATOM      2  C   UNL     1       3.405   3.778  17.729  0.00  0.00    +0.000 A 
ATOM      3  C   UNL     1       3.615   2.623  18.482  0.00  0.00    +0.000 A 
ATOM      4  C   UNL     1       2.528   1.911  18.994  0.00  0.00    +0.000 A 
ATOM      5  C   UNL     1       1.230   2.353  18.748  0.00  0.00    +0.000 A 
ATOM      6  C   UNL     1       1.017   3.505  17.992  0.00  0.00    +0.000 A 
ATOM      7  C   UNL     1       2.104   4.219  17.478  0.00  0.00    +0.000 A 
ENDBRANCH   1   2
BRANCH   1   8
ATOM      8  S   UNL     1       5.138   5.799  18.126  0.00  0.00    +0.000 S 
ATOM      9  O   UNL     1       5.715   5.281  19.347  0.00  0.00    +0.000 OA
ATOM     10  O   UNL     1       5.938   6.627  17.243  0.00  0.00    +0.000 OA
BRANCH   8  11
ATOM     11  C   UNL     1       3.710   6.770  18.596  0.00  0.00    +0.000 A 
ATOM     12  C   UNL     1       3.071   6.512  19.807  0.00  0.00    +0.000 A 
ATOM     13  C   UNL     1       1.983   7.303  20.185  0.00  0.00    +0.000 A 
ATOM     14  C   UNL     1       1.554   8.383  19.398  0.00  0.00    +0.000 A 
ATOM     15  C   UNL     1       2.262   8.700  18.227  0.00  0.00    +0.000 A 
ATOM     16  C   UNL     1       3.327   7.875  17.820  0.00  0.00    +0.000 A 
BRANCH  14  17
ATOM     17  O   UNL     1       0.435   8.985  19.909  0.00  0.00    +0.000 OA
ATOM     18  C   UNL     1       0.289   9.075  21.318  0.00  0.00    +0.000 C 
ENDBRANCH  14  17
BRANCH  15  19
ATOM     19  O   UNL     1       1.850   9.762  17.465  0.00  0.00    +0.000 OA
ATOM     20  C   UNL     1       2.163  11.051  17.991  0.00  0.00    +0.000 C 
ENDBRANCH  15  19
ENDBRANCH   8  11
ENDBRANCH   1   8
BRANCH   1  21
ATOM     21  C   UNL     1       5.503   3.725  16.378  0.00  0.00    +0.000 C 
BRANCH  21  23
ATOM     22  N   UNL     1       6.276   3.416  14.048  0.00  0.00    +0.000 N 
ATOM     23  C   UNL     1       5.585   4.210  14.932  0.00  0.00    +0.000 C 
ATOM     24  O   UNL     1       5.074   5.281  14.598  0.00  0.00    +0.000 OA
ATOM     25  H   UNL     1       6.654   2.539  14.388  0.00  0.00    +0.000 HD
BRANCH  22  26
ATOM     26  C   UNL     1       6.370   3.714  12.631  0.00  0.00    +0.000 C 
BRANCH  26  28
ATOM     27  C   UNL     1       4.225   3.211  11.369  0.00  0.00    +0.000 C 
ATOM     28  C   UNL     1       5.611   2.716  11.758  0.00  0.00    +0.000 C 
ENDBRANCH  26  28
ENDBRANCH  22  26
ENDBRANCH  21  23
ENDBRANCH   1  21
TORSDOF 9
ENDMDL
MODEL 2
REMARK VINA RESULT:      -7.1      0.741      1.948
REMARK  Name = 
REMARK  12 active torsions:
REMARK  status: ('A' for Active; 'I' for Inactive)
REMARK    1  A    between atoms: C_1  and  C_2
REMARK    2  A    between atoms: C_2  and  C_3
REMARK    3  A    between atoms: C_3  and  N_4
REMARK    4  A    between atoms: C_5  and  C_7
REMARK    5  A    between atoms: C_7  and  N_8
REMARK    6  A    between atoms: N_8  and  C_9
REMARK    7  A    between atoms: N_8  and  S_15
REMARK    8  A    between atoms: S_15  and  C_18
REMARK    9  A    between atoms: C_21  and  O_22
REMARK   10  A    between atoms: O_22  and  C_23
REMARK   11  A    between atoms: C_24  and  O_25
REMARK   12  A    between atoms: O_25  and  C_26
REMARK                            x       y       z     vdW  Elec       q    Type
REMARK                         _______ _______ _______ _____ _____    ______ ____
ROOT
ATOM      1  N   UNL     1       4.689   4.499  17.388  0.00  0.00    +0.000 N 
ENDROOT
BRANCH   1   2
ATOM      2  C   UNL     1       3.547   3.766  17.846  0.00  0.00    +0.000 A 
ATOM      3  C   UNL     1       2.279   4.256  17.533  0.00  0.00    +0.000 A 
ATOM      4  C   UNL     1       1.137   3.570  17.955  0.00  0.00    +0.000 A 
ATOM      5  C   UNL     1       1.265   2.396  18.694  0.00  0.00    +0.000 A 
ATOM      6  C   UNL     1       2.532   1.907  19.012  0.00  0.00    +0.000 A 
ATOM      7  C   UNL     1       3.676   2.592  18.591  0.00  0.00    +0.000 A 
ENDBRANCH   1   2
BRANCH   1   8
ATOM      8  S   UNL     1       5.264   5.776  18.350  0.00  0.00    +0.000 S 
ATOM      9  O   UNL     1       5.604   5.233  19.647  0.00  0.00    +0.000 OA
ATOM     10  O   UNL     1       6.260   6.506  17.589  0.00  0.00    +0.000 OA
BRANCH   8  11
ATOM     11  C   UNL     1       3.883   6.887  18.598  0.00  0.00    +0.000 A 
ATOM     12  C   UNL     1       3.488   7.736  17.567  0.00  0.00    +0.000 A 
ATOM     13  C   UNL     1       2.384   8.570  17.755  0.00  0.00    +0.000 A 
ATOM     14  C   UNL     1       1.631   8.532  18.940  0.00  0.00    +0.000 A 
ATOM     15  C   UNL     1       1.973   7.606  19.938  0.00  0.00    +0.000 A 
ATOM     16  C   UNL     1       3.115   6.800  19.770  0.00  0.00    +0.000 A 
BRANCH  14  17
ATOM     17  O   UNL     1       0.634   9.472  18.952  0.00  0.00    +0.000 OA
ATOM     18  C   UNL     1      -0.025   9.786  17.735  0.00  0.00    +0.000 C 
ENDBRANCH  14  17
BRANCH  15  19
ATOM     19  O   UNL     1       1.230   7.560  21.090  0.00  0.00    +0.000 OA
ATOM     20  C   UNL     1       1.305   8.723  21.913  0.00  0.00    +0.000 C 
ENDBRANCH  15  19
ENDBRANCH   8  11
ENDBRANCH   1   8
BRANCH   1  21
ATOM     21  C   UNL     1       5.651   3.794  16.505  0.00  0.00    +0.000 C 
BRANCH  21  23
ATOM     22  N   UNL     1       6.243   3.450  14.127  0.00  0.00    +0.000 N 
ATOM     23  C   UNL     1       5.657   4.277  15.056  0.00  0.00    +0.000 C 
ATOM     24  O   UNL     1       5.180   5.373  14.757  0.00  0.00    +0.000 OA
ATOM     25  H   UNL     1       6.599   2.555  14.441  0.00  0.00    +0.000 HD
BRANCH  22  26
ATOM     26  C   UNL     1       6.253   3.746  12.706  0.00  0.00    +0.000 C 
BRANCH  26  28
ATOM     27  C   UNL     1       4.209   3.246  11.287  0.00  0.00    +0.000 C 
ATOM     28  C   UNL     1       5.505   2.707  11.873  0.00  0.00    +0.000 C 
ENDBRANCH  26  28
ENDBRANCH  22  26
ENDBRANCH  21  23
ENDBRANCH   1  21
TORSDOF 9
ENDMDL
MODEL 3
REMARK VINA RESULT:      -7.0      0.807      1.749
REMARK  Name = 
REMARK  12 active torsions:
REMARK  status: ('A' for Active; 'I' for Inactive)
REMARK    1  A    between atoms: C_1  and  C_2
REMARK    2  A    between atoms: C_2  and  C_3
REMARK    3  A    between atoms: C_3  and  N_4
REMARK    4  A    between atoms: C_5  and  C_7
REMARK    5  A    between atoms: C_7  and  N_8
REMARK    6  A    between atoms: N_8  and  C_9
REMARK    7  A    between atoms: N_8  and  S_15
REMARK    8  A    between atoms: S_15  and  C_18
REMARK    9  A    between atoms: C_21  and  O_22
REMARK   10  A    between atoms: O_22  and  C_23
REMARK   11  A    between atoms: C_24  and  O_25
REMARK   12  A    between atoms: O_25  and  C_26
REMARK                            x       y       z     vdW  Elec       q    Type
REMARK                         _______ _______ _______ _____ _____    ______ ____
ROOT
ATOM      1  N   UNL     1       4.520   4.460  17.422  0.00  0.00    +0.000 N 
ENDROOT
BRANCH   1   2
ATOM      2  C   UNL     1       3.342   3.763  17.846  0.00  0.00    +0.000 A 
ATOM      3  C   UNL     1       3.498   2.562  18.538  0.00  0.00    +0.000 A 
ATOM      4  C   UNL     1       2.378   1.852  18.975  0.00  0.00    +0.000 A 
ATOM      5  C   UNL     1       1.100   2.343  18.717  0.00  0.00    +0.000 A 
ATOM      6  C   UNL     1       0.941   3.542  18.022  0.00  0.00    +0.000 A 
ATOM      7  C   UNL     1       2.061   4.254  17.583  0.00  0.00    +0.000 A 
ENDBRANCH   1   2
BRANCH   1   8
ATOM      8  S   UNL     1       5.115   5.707  18.411  0.00  0.00    +0.000 S 
ATOM      9  O   UNL     1       5.372   5.148  19.720  0.00  0.00    +0.000 OA
ATOM     10  O   UNL     1       6.178   6.386  17.694  0.00  0.00    +0.000 OA
BRANCH   8  11
ATOM     11  C   UNL     1       3.782   6.885  18.602  0.00  0.00    +0.000 A 
ATOM     12  C   UNL     1       3.445   7.722  17.541  0.00  0.00    +0.000 A 
ATOM     13  C   UNL     1       2.376   8.610  17.685  0.00  0.00    +0.000 A 
ATOM     14  C   UNL     1       1.601   8.639  18.856  0.00  0.00    +0.000 A 
ATOM     15  C   UNL     1       1.883   7.726  19.885  0.00  0.00    +0.000 A 
ATOM     16  C   UNL     1       2.989   6.865  19.760  0.00  0.00    +0.000 A 
BRANCH  14  17
ATOM     17  O   UNL     1       0.649   9.623  18.823  0.00  0.00    +0.000 OA
ATOM     18  C   UNL     1      -0.332   9.591  17.797  0.00  0.00    +0.000 C 
ENDBRANCH  14  17
BRANCH  15  19
ATOM     19  O   UNL     1       1.118   7.746  21.022  0.00  0.00    +0.000 OA
ATOM     20  C   UNL     1       1.362   8.840  21.905  0.00  0.00    +0.000 C 
ENDBRANCH  15  19
ENDBRANCH   8  11
ENDBRANCH   1   8
BRANCH   1  21
ATOM     21  C   UNL     1       5.477   3.730  16.555  0.00  0.00    +0.000 C 
BRANCH  21  23
ATOM     22  N   UNL     1       6.232   3.486  14.210  0.00  0.00    +0.000 N 
ATOM     23  C   UNL     1       5.598   4.282  15.136  0.00  0.00    +0.000 C 
ATOM     24  O   UNL     1       5.169   5.403  14.859  0.00  0.00    +0.000 OA
ATOM     25  H   UNL     1       6.544   2.568  14.504  0.00  0.00    +0.000 HD
BRANCH  22  26
ATOM     26  C   UNL     1       6.352   3.851  12.811  0.00  0.00    +0.000 C 
BRANCH  26  28
ATOM     27  C   UNL     1       5.782   1.799  11.429  0.00  0.00    +0.000 C 
ATOM     28  C   UNL     1       5.318   3.162  11.923  0.00  0.00    +0.000 C 
ENDBRANCH  26  28
ENDBRANCH  22  26
ENDBRANCH  21  23
ENDBRANCH   1  21
TORSDOF 9
ENDMDL
MODEL 4
REMARK VINA RESULT:      -6.9      1.139      2.319
REMARK  Name = 
REMARK  12 active torsions:
REMARK  status: ('A' for Active; 'I' for Inactive)
REMARK    1  A    between atoms: C_1  and  C_2
REMARK    2  A    between atoms: C_2  and  C_3
REMARK    3  A    between atoms: C_3  and  N_4
REMARK    4  A    between atoms: C_5  and  C_7
REMARK    5  A    between atoms: C_7  and  N_8
REMARK    6  A    between atoms: N_8  and  C_9
REMARK    7  A    between atoms: N_8  and  S_15
REMARK    8  A    between atoms: S_15  and  C_18
REMARK    9  A    between atoms: C_21  and  O_22
REMARK   10  A    between atoms: O_22  and  C_23
REMARK   11  A    between atoms: C_24  and  O_25
REMARK   12  A    between atoms: O_25  and  C_26
REMARK                            x       y       z     vdW  Elec       q    Type
REMARK                         _______ _______ _______ _____ _____    ______ ____
ROOT
ATOM      1  N   UNL     1       5.216   4.418  16.896  0.00  0.00    +0.000 N 
ENDROOT
BRANCH   1   2
ATOM      2  C   UNL     1       4.270   3.614  17.611  0.00  0.00    +0.000 A 
ATOM      3  C   UNL     1       2.964   3.539  17.125  0.00  0.00    +0.000 A 
ATOM      4  C   UNL     1       2.012   2.762  17.787  0.00  0.00    +0.000 A 
ATOM      5  C   UNL     1       2.364   2.062  18.938  0.00  0.00    +0.000 A 
ATOM      6  C   UNL     1       3.668   2.138  19.429  0.00  0.00    +0.000 A 
ATOM      7  C   UNL     1       4.623   2.915  18.768  0.00  0.00    +0.000 A 
ENDBRANCH   1   2
BRANCH   1   8
ATOM      8  S   UNL     1       5.761   5.854  17.623  0.00  0.00    +0.000 S 
ATOM      9  O   UNL     1       6.484   5.494  18.823  0.00  0.00    +0.000 OA
ATOM     10  O   UNL     1       6.407   6.661  16.605  0.00  0.00    +0.000 OA
BRANCH   8  11
ATOM     11  C   UNL     1       4.300   6.746  18.144  0.00  0.00    +0.000 A 
ATOM     12  C   UNL     1       3.824   7.800  17.368  0.00  0.00    +0.000 A 
ATOM     13  C   UNL     1       2.659   8.464  17.761  0.00  0.00    +0.000 A 
ATOM     14  C   UNL     1       1.930   8.058  18.891  0.00  0.00    +0.000 A 
ATOM     15  C   UNL     1       2.360   6.935  19.614  0.00  0.00    +0.000 A 
ATOM     16  C   UNL     1       3.560   6.295  19.248  0.00  0.00    +0.000 A 
BRANCH  14  17
ATOM     17  O   UNL     1       0.863   8.879  19.142  0.00  0.00    +0.000 OA
ATOM     18  C   UNL     1       0.778  10.120  18.458  0.00  0.00    +0.000 C 
ENDBRANCH  14  17
BRANCH  15  19
ATOM     19  O   UNL     1       1.642   6.531  20.710  0.00  0.00    +0.000 OA
ATOM     20  C   UNL     1       1.543   5.120  20.891  0.00  0.00    +0.000 C 
ENDBRANCH  15  19
ENDBRANCH   8  11
ENDBRANCH   1   8
BRANCH   1  21
ATOM     21  C   UNL     1       6.109   3.735  15.929  0.00  0.00    +0.000 C 
BRANCH  21  23
ATOM     22  N   UNL     1       6.398   3.230  13.523  0.00  0.00    +0.000 N 
ATOM     23  C   UNL     1       5.820   4.051  14.462  0.00  0.00    +0.000 C 
ATOM     24  O   UNL     1       5.122   5.019  14.154  0.00  0.00    +0.000 OA
ATOM     25  H   UNL     1       6.945   2.442  13.848  0.00  0.00    +0.000 HD
BRANCH  22  26
ATOM     26  C   UNL     1       6.150   3.367  12.099  0.00  0.00    +0.000 C 
BRANCH  26  28
ATOM     27  C   UNL     1       6.525   1.089  11.044  0.00  0.00    +0.000 C 
ATOM     28  C   UNL     1       5.503   2.128  11.483  0.00  0.00    +0.000 C 
ENDBRANCH  26  28
ENDBRANCH  22  26
ENDBRANCH  21  23
ENDBRANCH   1  21
TORSDOF 9
ENDMDL
MODEL 5
REMARK VINA RESULT:      -6.9      1.135      1.527
REMARK  Name = 
REMARK  12 active torsions:
REMARK  status: ('A' for Active; 'I' for Inactive)
REMARK    1  A    between atoms: C_1  and  C_2
REMARK    2  A    between atoms: C_2  and  C_3
REMARK    3  A    between atoms: C_3  and  N_4
REMARK    4  A    between atoms: C_5  and  C_7
REMARK    5  A    between atoms: C_7  and  N_8
REMARK    6  A    between atoms: N_8  and  C_9
REMARK    7  A    between atoms: N_8  and  S_15
REMARK    8  A    between atoms: S_15  and  C_18
REMARK    9  A    between atoms: C_21  and  O_22
REMARK   10  A    between atoms: O_22  and  C_23
REMARK   11  A    between atoms: C_24  and  O_25
REMARK   12  A    between atoms: O_25  and  C_26
REMARK                            x       y       z     vdW  Elec       q    Type
REMARK                         _______ _______ _______ _____ _____    ______ ____
ROOT
ATOM      1  N   UNL     1       5.493   4.602  16.712  0.00  0.00    +0.000 N 
ENDROOT
BRANCH   1   2
ATOM      2  C   UNL     1       4.570   3.768  17.422  0.00  0.00    +0.000 A 
ATOM      3  C   UNL     1       3.292   3.594  16.888  0.00  0.00    +0.000 A 
ATOM      4  C   UNL     1       2.361   2.785  17.543  0.00  0.00    +0.000 A 
ATOM      5  C   UNL     1       2.707   2.153  18.736  0.00  0.00    +0.000 A 
ATOM      6  C   UNL     1       3.982   2.329  19.274  0.00  0.00    +0.000 A 
ATOM      7  C   UNL     1       4.915   3.138  18.620  0.00  0.00    +0.000 A 
ENDBRANCH   1   2
BRANCH   1   8
ATOM      8  S   UNL     1       5.630   6.230  17.181  0.00  0.00    +0.000 S 
ATOM      9  O   UNL     1       6.778   6.343  18.054  0.00  0.00    +0.000 OA
ATOM     10  O   UNL     1       5.544   7.054  15.990  0.00  0.00    +0.000 OA
BRANCH   8  11
ATOM     11  C   UNL     1       4.186   6.596  18.172  0.00  0.00    +0.000 A 
ATOM     12  C   UNL     1       4.025   5.978  19.410  0.00  0.00    +0.000 A 
ATOM     13  C   UNL     1       2.916   6.301  20.195  0.00  0.00    +0.000 A 
ATOM     14  C   UNL     1       1.989   7.274  19.787  0.00  0.00    +0.000 A 
ATOM     15  C   UNL     1       2.207   7.965  18.585  0.00  0.00    +0.000 A 
ATOM     16  C   UNL     1       3.297   7.605  17.770  0.00  0.00    +0.000 A 
BRANCH  14  17
ATOM     17  O   UNL     1       0.943   7.393  20.663  0.00  0.00    +0.000 OA
ATOM     18  C   UNL     1       0.915   8.502  21.549  0.00  0.00    +0.000 C 
ENDBRANCH  14  17
BRANCH  15  19
ATOM     19  O   UNL     1       1.308   8.923  18.193  0.00  0.00    +0.000 OA
ATOM     20  C   UNL     1       1.851  10.228  18.000  0.00  0.00    +0.000 C 
ENDBRANCH  15  19
ENDBRANCH   8  11
ENDBRANCH   1   8
BRANCH   1  21
ATOM     21  C   UNL     1       6.668   3.949  16.084  0.00  0.00    +0.000 C 
BRANCH  21  23
ATOM     22  N   UNL     1       6.200   3.353  13.727  0.00  0.00    +0.000 N 
ATOM     23  C   UNL     1       6.824   4.224  14.589  0.00  0.00    +0.000 C 
ATOM     24  O   UNL     1       7.507   5.170  14.193  0.00  0.00    +0.000 OA
ATOM     25  H   UNL     1       5.640   2.608  14.124  0.00  0.00    +0.000 HD
BRANCH  22  26
ATOM     26  C   UNL     1       6.201   3.536  12.288  0.00  0.00    +0.000 C 
BRANCH  26  28
ATOM     27  C   UNL     1       3.982   3.181  11.106  0.00  0.00    +0.000 C 
ATOM     28  C   UNL     1       5.291   2.549  11.559  0.00  0.00    +0.000 C 
ENDBRANCH  26  28
ENDBRANCH  22  26
ENDBRANCH  21  23
ENDBRANCH   1  21
TORSDOF 9
ENDMDL
MODEL 6
REMARK VINA RESULT:      -6.9      2.209      3.527
REMARK  Name = 
REMARK  12 active torsions:
REMARK  status: ('A' for Active; 'I' for Inactive)
REMARK    1  A    between atoms: C_1  and  C_2
REMARK    2  A    between atoms: C_2  and  C_3
REMARK    3  A    between atoms: C_3  and  N_4
REMARK    4  A    between atoms: C_5  and  C_7
REMARK    5  A    between atoms: C_7  and  N_8
REMARK    6  A    between atoms: N_8  and  C_9
REMARK    7  A    between atoms: N_8  and  S_15
REMARK    8  A    between atoms: S_15  and  C_18
REMARK    9  A    between atoms: C_21  and  O_22
REMARK   10  A    between atoms: O_22  and  C_23
REMARK   11  A    between atoms: C_24  and  O_25
REMARK   12  A    between atoms: O_25  and  C_26
REMARK                            x       y       z     vdW  Elec       q    Type
REMARK                         _______ _______ _______ _____ _____    ______ ____
ROOT
ATOM      1  N   UNL     1       5.296   4.571  17.195  0.00  0.00    +0.000 N 
ENDROOT
BRANCH   1   2
ATOM      2  C   UNL     1       6.251   5.533  17.658  0.00  0.00    +0.000 A 
ATOM      3  C   UNL     1       6.290   6.779  17.032  0.00  0.00    +0.000 A 
ATOM      4  C   UNL     1       7.202   7.749  17.454  0.00  0.00    +0.000 A 
ATOM      5  C   UNL     1       8.077   7.471  18.502  0.00  0.00    +0.000 A 
ATOM      6  C   UNL     1       8.043   6.225  19.127  0.00  0.00    +0.000 A 
ATOM      7  C   UNL     1       7.132   5.252  18.705  0.00  0.00    +0.000 A 
ENDBRANCH   1   2
BRANCH   1   8
ATOM      8  S   UNL     1       4.286   3.826  18.341  0.00  0.00    +0.000 S 
ATOM      9  O   UNL     1       3.405   2.924  17.633  0.00  0.00    +0.000 OA
ATOM     10  O   UNL     1       5.117   3.326  19.421  0.00  0.00    +0.000 OA
BRANCH   8  11
ATOM     11  C   UNL     1       3.260   5.119  19.032  0.00  0.00    +0.000 A 
ATOM     12  C   UNL     1       2.580   4.895  20.227  0.00  0.00    +0.000 A 
ATOM     13  C   UNL     1       1.815   5.924  20.779  0.00  0.00    +0.000 A 
ATOM     14  C   UNL     1       1.759   7.196  20.185  0.00  0.00    +0.000 A 
ATOM     15  C   UNL     1       2.523   7.447  19.035  0.00  0.00    +0.000 A 
ATOM     16  C   UNL     1       3.256   6.397  18.450  0.00  0.00    +0.000 A 
BRANCH  14  17
ATOM     17  O   UNL     1       0.903   8.038  20.843  0.00  0.00    +0.000 OA
ATOM     18  C   UNL     1       1.408   8.836  21.904  0.00  0.00    +0.000 C 
ENDBRANCH  14  17
BRANCH  15  19
ATOM     19  O   UNL     1       2.478   8.691  18.462  0.00  0.00    +0.000 OA
ATOM     20  C   UNL     1       1.307   8.971  17.696  0.00  0.00    +0.000 C 
ENDBRANCH  15  19
ENDBRANCH   8  11
ENDBRANCH   1   8
BRANCH   1  21
ATOM     21  C   UNL     1       4.802   4.706  15.803  0.00  0.00    +0.000 C 
BRANCH  21  23
ATOM     22  N   UNL     1       5.236   4.038  13.459  0.00  0.00    +0.000 N 
ATOM     23  C   UNL     1       5.732   4.126  14.739  0.00  0.00    +0.000 C 
ATOM     24  O   UNL     1       6.860   3.732  15.038  0.00  0.00    +0.000 OA
ATOM     25  H   UNL     1       4.305   4.398  13.282  0.00  0.00    +0.000 HD
BRANCH  22  26
ATOM     26  C   UNL     1       6.032   3.578  12.337  0.00  0.00    +0.000 C 
BRANCH  26  28
ATOM     27  C   UNL     1       6.581   1.402  11.150  0.00  0.00    +0.000 C 
ATOM     28  C   UNL     1       5.484   2.303  11.698  0.00  0.00    +0.000 C 
ENDBRANCH  26  28
ENDBRANCH  22  26
ENDBRANCH  21  23
ENDBRANCH   1  21
TORSDOF 9
ENDMDL
MODEL 7
REMARK VINA RESULT:      -6.9      2.201      2.915
REMARK  Name = 
REMARK  12 active torsions:
REMARK  status: ('A' for Active; 'I' for Inactive)
REMARK    1  A    between atoms: C_1  and  C_2
REMARK    2  A    between atoms: C_2  and  C_3
REMARK    3  A    between atoms: C_3  and  N_4
REMARK    4  A    between atoms: C_5  and  C_7
REMARK    5  A    between atoms: C_7  and  N_8
REMARK    6  A    between atoms: N_8  and  C_9
REMARK    7  A    between atoms: N_8  and  S_15
REMARK    8  A    between atoms: S_15  and  C_18
REMARK    9  A    between atoms: C_21  and  O_22
REMARK   10  A    between atoms: O_22  and  C_23
REMARK   11  A    between atoms: C_24  and  O_25
REMARK   12  A    between atoms: O_25  and  C_26
REMARK                            x       y       z     vdW  Elec       q    Type
REMARK                         _______ _______ _______ _____ _____    ______ ____
ROOT
ATOM      1  N   UNL     1       3.021   4.769  18.103  0.00  0.00    +0.000 N 
ENDROOT
BRANCH   1   2
ATOM      2  C   UNL     1       2.457   4.039  19.199  0.00  0.00    +0.000 A 
ATOM      3  C   UNL     1       3.325   3.489  20.143  0.00  0.00    +0.000 A 
ATOM      4  C   UNL     1       2.819   2.775  21.231  0.00  0.00    +0.000 A 
ATOM      5  C   UNL     1       1.443   2.606  21.372  0.00  0.00    +0.000 A 
ATOM      6  C   UNL     1       0.574   3.150  20.428  0.00  0.00    +0.000 A 
ATOM      7  C   UNL     1       1.078   3.866  19.337  0.00  0.00    +0.000 A 
ENDBRANCH   1   2
BRANCH   1   8
ATOM      8  S   UNL     1       3.748   6.270  18.427  0.00  0.00    +0.000 S 
ATOM      9  O   UNL     1       4.768   6.059  19.431  0.00  0.00    +0.000 OA
ATOM     10  O   UNL     1       4.096   6.889  17.162  0.00  0.00    +0.000 OA
BRANCH   8  11
ATOM     11  C   UNL     1       2.486   7.295  19.176  0.00  0.00    +0.000 A 
ATOM     12  C   UNL     1       2.073   7.035  20.481  0.00  0.00    +0.000 A 
ATOM     13  C   UNL     1       1.118   7.865  21.072  0.00  0.00    +0.000 A 
ATOM     14  C   UNL     1       0.605   8.986  20.399  0.00  0.00    +0.000 A 
ATOM     15  C   UNL     1       1.096   9.301  19.122  0.00  0.00    +0.000 A 
ATOM     16  C   UNL     1       2.022   8.438  18.507  0.00  0.00    +0.000 A 
BRANCH  14  17
ATOM     17  O   UNL     1      -0.366   9.626  21.123  0.00  0.00    +0.000 OA
ATOM     18  C   UNL     1      -0.252   9.664  22.538  0.00  0.00    +0.000 C 
ENDBRANCH  14  17
BRANCH  15  19
ATOM     19  O   UNL     1       0.605  10.402  18.471  0.00  0.00    +0.000 OA
ATOM     20  C   UNL     1       1.247  11.637  18.785  0.00  0.00    +0.000 C 
ENDBRANCH  15  19
ENDBRANCH   8  11
ENDBRANCH   1   8
BRANCH   1  21
ATOM     21  C   UNL     1       3.497   3.994  16.931  0.00  0.00    +0.000 C 
BRANCH  21  23
ATOM     22  N   UNL     1       5.868   4.259  17.590  0.00  0.00    +0.000 N 
ATOM     23  C   UNL     1       4.959   4.238  16.559  0.00  0.00    +0.000 C 
ATOM     24  O   UNL     1       5.284   4.435  15.387  0.00  0.00    +0.000 OA
ATOM     25  H   UNL     1       5.532   4.071  18.528  0.00  0.00    +0.000 HD
BRANCH  22  26
ATOM     26  C   UNL     1       7.296   4.405  17.377  0.00  0.00    +0.000 C 
BRANCH  26  28
ATOM     27  C   UNL     1       7.622   6.904  17.687  0.00  0.00    +0.000 C 
ATOM     28  C   UNL     1       7.918   5.512  18.227  0.00  0.00    +0.000 C 
ENDBRANCH  26  28
ENDBRANCH  22  26
ENDBRANCH  21  23
ENDBRANCH   1  21
TORSDOF 9
ENDMDL
MODEL 8
REMARK VINA RESULT:      -6.9      1.892      6.802
REMARK  Name = 
REMARK  12 active torsions:
REMARK  status: ('A' for Active; 'I' for Inactive)
REMARK    1  A    between atoms: C_1  and  C_2
REMARK    2  A    between atoms: C_2  and  C_3
REMARK    3  A    between atoms: C_3  and  N_4
REMARK    4  A    between atoms: C_5  and  C_7
REMARK    5  A    between atoms: C_7  and  N_8
REMARK    6  A    between atoms: N_8  and  C_9
REMARK    7  A    between atoms: N_8  and  S_15
REMARK    8  A    between atoms: S_15  and  C_18
REMARK    9  A    between atoms: C_21  and  O_22
REMARK   10  A    between atoms: O_22  and  C_23
REMARK   11  A    between atoms: C_24  and  O_25
REMARK   12  A    between atoms: O_25  and  C_26
REMARK                            x       y       z     vdW  Elec       q    Type
REMARK                         _______ _______ _______ _____ _____    ______ ____
ROOT
ATOM      1  N   UNL     1       3.846   5.468  18.631  0.00  0.00    +0.000 N 
ENDROOT
BRANCH   1   2
ATOM      2  C   UNL     1       2.795   4.614  19.098  0.00  0.00    +0.000 A 
ATOM      3  C   UNL     1       2.059   3.895  18.156  0.00  0.00    +0.000 A 
ATOM      4  C   UNL     1       1.030   3.046  18.567  0.00  0.00    +0.000 A 
ATOM      5  C   UNL     1       0.734   2.918  19.923  0.00  0.00    +0.000 A 
ATOM      6  C   UNL     1       1.465   3.639  20.867  0.00  0.00    +0.000 A 
ATOM      7  C   UNL     1       2.496   4.490  20.457  0.00  0.00    +0.000 A 
ENDBRANCH   1   2
BRANCH   1   8
ATOM      8  S   UNL     1       5.424   4.840  18.567  0.00  0.00    +0.000 S 
ATOM      9  O   UNL     1       6.330   5.877  19.010  0.00  0.00    +0.000 OA
ATOM     10  O   UNL     1       5.425   3.548  19.227  0.00  0.00    +0.000 OA
BRANCH   8  11
ATOM     11  C   UNL     1       5.782   4.541  16.839  0.00  0.00    +0.000 A 
ATOM     12  C   UNL     1       4.912   3.760  16.080  0.00  0.00    +0.000 A 
ATOM     13  C   UNL     1       5.178   3.566  14.723  0.00  0.00    +0.000 A 
ATOM     14  C   UNL     1       6.272   4.185  14.095  0.00  0.00    +0.000 A 
ATOM     15  C   UNL     1       7.090   5.048  14.841  0.00  0.00    +0.000 A 
ATOM     16  C   UNL     1       6.852   5.206  16.219  0.00  0.00    +0.000 A 
BRANCH  14  17
ATOM     17  O   UNL     1       6.395   3.813  12.782  0.00  0.00    +0.000 OA
ATOM     18  C   UNL     1       5.300   3.169  12.148  0.00  0.00    +0.000 C 
ENDBRANCH  14  17
BRANCH  15  19
ATOM     19  O   UNL     1       8.150   5.661  14.225  0.00  0.00    +0.000 OA
ATOM     20  C   UNL     1       8.160   5.583  12.801  0.00  0.00    +0.000 C 
ENDBRANCH  15  19
ENDBRANCH   8  11
ENDBRANCH   1   8
BRANCH   1  21
ATOM     21  C   UNL     1       3.482   6.556  17.689  0.00  0.00    +0.000 C 
BRANCH  21  23
ATOM     22  N   UNL     1       2.363   7.591  19.639  0.00  0.00    +0.000 N 
ATOM     23  C   UNL     1       2.566   7.627  18.279  0.00  0.00    +0.000 C 
ATOM     24  O   UNL     1       2.022   8.459  17.552  0.00  0.00    +0.000 OA
ATOM     25  H   UNL     1       2.857   6.890  20.179  0.00  0.00    +0.000 HD
BRANCH  22  26
ATOM     26  C   UNL     1       1.579   8.590  20.343  0.00  0.00    +0.000 C 
BRANCH  26  28
ATOM     27  C   UNL     1      -0.466   8.811  21.831  0.00  0.00    +0.000 C 
ATOM     28  C   UNL     1       0.791   8.012  21.518  0.00  0.00    +0.000 C 
ENDBRANCH  26  28
ENDBRANCH  22  26
ENDBRANCH  21  23
ENDBRANCH   1  21
TORSDOF 9
ENDMDL
MODEL 9
REMARK VINA RESULT:      -6.8      2.091      3.275
REMARK  Name = 
REMARK  12 active torsions:
REMARK  status: ('A' for Active; 'I' for Inactive)
REMARK    1  A    between atoms: C_1  and  C_2
REMARK    2  A    between atoms: C_2  and  C_3
REMARK    3  A    between atoms: C_3  and  N_4
REMARK    4  A    between atoms: C_5  and  C_7
REMARK    5  A    between atoms: C_7  and  N_8
REMARK    6  A    between atoms: N_8  and  C_9
REMARK    7  A    between atoms: N_8  and  S_15
REMARK    8  A    between atoms: S_15  and  C_18
REMARK    9  A    between atoms: C_21  and  O_22
REMARK   10  A    between atoms: O_22  and  C_23
REMARK   11  A    between atoms: C_24  and  O_25
REMARK   12  A    between atoms: O_25  and  C_26
REMARK                            x       y       z     vdW  Elec       q    Type
REMARK                         _______ _______ _______ _____ _____    ______ ____
ROOT
ATOM      1  N   UNL     1       5.211   4.968  17.044  0.00  0.00    +0.000 N 
ENDROOT
BRANCH   1   2
ATOM      2  C   UNL     1       6.218   5.834  17.580  0.00  0.00    +0.000 A 
ATOM      3  C   UNL     1       7.036   5.345  18.600  0.00  0.00    +0.000 A 
ATOM      4  C   UNL     1       8.034   6.153  19.148  0.00  0.00    +0.000 A 
ATOM      5  C   UNL     1       8.212   7.453  18.678  0.00  0.00    +0.000 A 
ATOM      6  C   UNL     1       7.393   7.946  17.662  0.00  0.00    +0.000 A 
ATOM      7  C   UNL     1       6.393   7.138  17.112  0.00  0.00    +0.000 A 
ENDBRANCH   1   2
BRANCH   1   8
ATOM      8  S   UNL     1       3.984   4.421  18.084  0.00  0.00    +0.000 S 
ATOM      9  O   UNL     1       3.059   3.631  17.301  0.00  0.00    +0.000 OA
ATOM     10  O   UNL     1       4.609   3.846  19.261  0.00  0.00    +0.000 OA
BRANCH   8  11
ATOM     11  C   UNL     1       3.093   5.876  18.628  0.00  0.00    +0.000 A 
ATOM     12  C   UNL     1       2.686   5.977  19.956  0.00  0.00    +0.000 A 
ATOM     13  C   UNL     1       2.028   7.134  20.381  0.00  0.00    +0.000 A 
ATOM     14  C   UNL     1       1.816   8.217  19.512  0.00  0.00    +0.000 A 
ATOM     15  C   UNL     1       2.315   8.150  18.202  0.00  0.00    +0.000 A 
ATOM     16  C   UNL     1       2.934   6.966  17.758  0.00  0.00    +0.000 A 
BRANCH  14  17
ATOM     17  O   UNL     1       1.096   9.222  20.102  0.00  0.00    +0.000 OA
ATOM     18  C   UNL     1       1.059   9.296  21.519  0.00  0.00    +0.000 C 
ENDBRANCH  14  17
BRANCH  15  19
ATOM     19  O   UNL     1       2.119   9.212  17.357  0.00  0.00    +0.000 OA
ATOM     20  C   UNL     1       2.320  10.500  17.937  0.00  0.00    +0.000 C 
ENDBRANCH  15  19
ENDBRANCH   8  11
ENDBRANCH   1   8
BRANCH   1  21
ATOM     21  C   UNL     1       4.910   5.076  15.595  0.00  0.00    +0.000 C 
BRANCH  21  23
ATOM     22  N   UNL     1       5.427   4.135  13.364  0.00  0.00    +0.000 N 
ATOM     23  C   UNL     1       5.744   4.159  14.702  0.00  0.00    +0.000 C 
ATOM     24  O   UNL     1       6.637   3.458  15.181  0.00  0.00    +0.000 OA
ATOM     25  H   UNL     1       4.692   4.752  13.037  0.00  0.00    +0.000 HD
BRANCH  22  26
ATOM     26  C   UNL     1       6.182   3.370  12.390  0.00  0.00    +0.000 C 
BRANCH  26  28
ATOM     27  C   UNL     1       3.973   3.203  11.149  0.00  0.00    +0.000 C 
ATOM     28  C   UNL     1       5.295   2.524  11.477  0.00  0.00    +0.000 C 
ENDBRANCH  26  28
ENDBRANCH  22  26
ENDBRANCH  21  23
ENDBRANCH   1  21
TORSDOF 9
ENDMDL
