MODEL 1
REMARK VINA RESULT:      -6.8      0.000      0.000
REMARK  Name = 
REMARK  10 active torsions:
REMARK  status: ('A' for Active; 'I' for Inactive)
REMARK    1  A    between atoms: C_1  and  C_2
REMARK    2  A    between atoms: C_2  and  C_3
REMARK    3  A    between atoms: C_3  and  C_4
REMARK    4  A    between atoms: C_4  and  C_5
REMARK    5  A    between atoms: C_4  and  N_8
REMARK    6  A    between atoms: C_5  and  C_6
REMARK    7  A    between atoms: C_6  and  C_7
REMARK    8  A    between atoms: C_11  and  C_12
REMARK    9  A    between atoms: C_15  and  C_16
REMARK   10  A    between atoms: C_24  and  C_25
REMARK                            x       y       z     vdW  Elec       q    Type
REMARK                         _______ _______ _______ _____ _____    ______ ____
ROOT
ATOM      1  N   UNL     1      -4.416  12.741  19.367  0.00  0.00    +0.000 N 
ATOM      2  C   UNL     1      -3.553  11.847  18.725  0.00  0.00    +0.000 A 
ATOM      3  N   UNL     1      -3.897  11.254  17.613  0.00  0.00    +0.000 NA
ATOM      4  C   UNL     1      -2.991  10.422  16.992  0.00  0.00    +0.000 A 
ATOM      5  C   UNL     1      -3.461   9.751  15.736  0.00  0.00    +0.000 C 
ATOM      6  N   UNL     1      -1.791  10.160  17.410  0.00  0.00    +0.000 NA
ATOM      7  C   UNL     1      -1.442  10.664  18.617  0.00  0.00    +0.000 A 
ATOM      8  C   UNL     1      -0.378  10.424  19.466  0.00  0.00    +0.000 A 
ATOM      9  C   UNL     1      -0.614  11.319  20.562  0.00  0.00    +0.000 A 
ATOM     10  C   UNL     1       0.248  11.560  21.757  0.00  0.00    +0.000 C 
ATOM     11  N   UNL     1      -1.782  11.991  20.446  0.00  0.00    +0.000 NA
ATOM     12  N   UNL     1      -2.272  11.543  19.255  0.00  0.00    +0.000 N 
ATOM     13  H   UNL     1      -4.106  13.003  20.301  0.00  0.00    +0.000 HD
ENDROOT
BRANCH   8  14
ATOM     14  C   UNL     1       0.715   9.484  19.161  0.00  0.00    +0.000 A 
ATOM     15  C   UNL     1       1.433   9.651  17.961  0.00  0.00    +0.000 A 
ATOM     16  C   UNL     1       2.489   8.797  17.613  0.00  0.00    +0.000 A 
ATOM     17  C   UNL     1       2.809   7.721  18.432  0.00  0.00    +0.000 A 
ATOM     18 CL   UNL     1       4.094   6.664  18.001  0.00  0.00    +0.000 Cl
ATOM     19  C   UNL     1       2.107   7.512  19.611  0.00  0.00    +0.000 A 
ATOM     20  C   UNL     1       1.094   8.406  19.997  0.00  0.00    +0.000 A 
ATOM     21 CL   UNL     1       0.459   8.137  21.589  0.00  0.00    +0.000 Cl
ENDBRANCH   8  14
BRANCH   1  22
ATOM     22  C   UNL     1      -5.881  12.696  19.162  0.00  0.00    +0.000 C 
BRANCH  22  23
ATOM     23  C   UNL     1      -6.594  12.295  20.477  0.00  0.00    +0.000 C 
BRANCH  23  25
ATOM     24  C   UNL     1      -6.856  10.031  19.343  0.00  0.00    +0.000 C 
ATOM     25  C   UNL     1      -7.439  11.014  20.348  0.00  0.00    +0.000 C 
ENDBRANCH  23  25
ENDBRANCH  22  23
BRANCH  22  26
ATOM     26  C   UNL     1      -6.439  14.005  18.542  0.00  0.00    +0.000 C 
BRANCH  26  27
ATOM     27  C   UNL     1      -6.756  13.961  17.043  0.00  0.00    +0.000 C 
ATOM     28  C   UNL     1      -7.286  15.303  16.544  0.00  0.00    +0.000 C 
ENDBRANCH  26  27
ENDBRANCH  22  26
ENDBRANCH   1  22
TORSDOF 6
ENDMDL
MODEL 2
REMARK VINA RESULT:      -6.3      3.816      5.436
REMARK  Name = 
REMARK  10 active torsions:
REMARK  status: ('A' for Active; 'I' for Inactive)
REMARK    1  A    between atoms: C_1  and  C_2
REMARK    2  A    between atoms: C_2  and  C_3
REMARK    3  A    between atoms: C_3  and  C_4
REMARK    4  A    between atoms: C_4  and  C_5
REMARK    5  A    between atoms: C_4  and  N_8
REMARK    6  A    between atoms: C_5  and  C_6
REMARK    7  A    between atoms: C_6  and  C_7
REMARK    8  A    between atoms: C_11  and  C_12
REMARK    9  A    between atoms: C_15  and  C_16
REMARK   10  A    between atoms: C_24  and  C_25
REMARK                            x       y       z     vdW  Elec       q    Type
REMARK                         _______ _______ _______ _____ _____    ______ ____
ROOT
ATOM      1  N   UNL     1      -1.220  15.349  19.437  0.00  0.00    +0.000 N 
ATOM      2  C   UNL     1      -0.241  14.392  19.724  0.00  0.00    +0.000 A 
ATOM      3  N   UNL     1       0.870  14.722  20.328  0.00  0.00    +0.000 NA
ATOM      4  C   UNL     1       1.781  13.734  20.635  0.00  0.00    +0.000 A 
ATOM      5  C   UNL     1       3.047  14.184  21.301  0.00  0.00    +0.000 C 
ATOM      6  N   UNL     1       1.643  12.469  20.381  0.00  0.00    +0.000 NA
ATOM      7  C   UNL     1       0.559  12.107  19.654  0.00  0.00    +0.000 A 
ATOM      8  C   UNL     1       0.203  10.935  19.015  0.00  0.00    +0.000 A 
ATOM      9  C   UNL     1      -1.086  11.234  18.458  0.00  0.00    +0.000 A 
ATOM     10  C   UNL     1      -2.002  10.320  17.715  0.00  0.00    +0.000 C 
ATOM     11  N   UNL     1      -1.454  12.520  18.657  0.00  0.00    +0.000 NA
ATOM     12  N   UNL     1      -0.409  13.029  19.369  0.00  0.00    +0.000 N 
ATOM     13  H   UNL     1      -1.954  15.004  18.821  0.00  0.00    +0.000 HD
ENDROOT
BRANCH   8  14
ATOM     14  C   UNL     1       1.023   9.711  19.035  0.00  0.00    +0.000 A 
ATOM     15  C   UNL     1       1.748   9.366  17.878  0.00  0.00    +0.000 A 
ATOM     16  C   UNL     1       2.554   8.219  17.832  0.00  0.00    +0.000 A 
ATOM     17  C   UNL     1       2.603   7.363  18.925  0.00  0.00    +0.000 A 
ATOM     18 CL   UNL     1       3.580   5.949  18.867  0.00  0.00    +0.000 Cl
ATOM     19  C   UNL     1       1.884   7.660  20.074  0.00  0.00    +0.000 A 
ATOM     20  C   UNL     1       1.130   8.843  20.148  0.00  0.00    +0.000 A 
ATOM     21 CL   UNL     1       0.464   9.180  21.715  0.00  0.00    +0.000 Cl
ENDBRANCH   8  14
BRANCH   1  22
ATOM     22  C   UNL     1      -0.894  16.786  19.311  0.00  0.00    +0.000 C 
BRANCH  22  23
ATOM     23  C   UNL     1      -0.680  17.160  17.823  0.00  0.00    +0.000 C 
BRANCH  23  25
ATOM     24  C   UNL     1       0.829  18.510  16.281  0.00  0.00    +0.000 C 
ATOM     25  C   UNL     1       0.122  18.459  17.628  0.00  0.00    +0.000 C 
ENDBRANCH  23  25
ENDBRANCH  22  23
BRANCH  22  26
ATOM     26  C   UNL     1      -1.928  17.699  20.024  0.00  0.00    +0.000 C 
BRANCH  26  27
ATOM     27  C   UNL     1      -2.147  17.433  21.518  0.00  0.00    +0.000 C 
ATOM     28  C   UNL     1      -3.602  17.660  21.919  0.00  0.00    +0.000 C 
ENDBRANCH  26  27
ENDBRANCH  22  26
ENDBRANCH   1  22
TORSDOF 6
ENDMDL
MODEL 3
REMARK VINA RESULT:      -6.3      4.723      8.444
REMARK  Name = 
REMARK  10 active torsions:
REMARK  status: ('A' for Active; 'I' for Inactive)
REMARK    1  A    between atoms: C_1  and  C_2
REMARK    2  A    between atoms: C_2  and  C_3
REMARK    3  A    between atoms: C_3  and  C_4
REMARK    4  A    between atoms: C_4  and  C_5
REMARK    5  A    between atoms: C_4  and  N_8
REMARK    6  A    between atoms: C_5  and  C_6
REMARK    7  A    between atoms: C_6  and  C_7
REMARK    8  A    between atoms: C_11  and  C_12
REMARK    9  A    between atoms: C_15  and  C_16
REMARK   10  A    between atoms: C_24  and  C_25
REMARK                            x       y       z     vdW  Elec       q    Type
REMARK                         _______ _______ _______ _____ _____    ______ ____
ROOT
ATOM      1  N   UNL     1       1.964   5.532  20.908  0.00  0.00    +0.000 N 
ATOM      2  C   UNL     1       1.974   6.686  20.117  0.00  0.00    +0.000 A 
ATOM      3  N   UNL     1       2.617   6.720  18.980  0.00  0.00    +0.000 NA
ATOM      4  C   UNL     1       2.554   7.863  18.212  0.00  0.00    +0.000 A 
ATOM      5  C   UNL     1       3.339   7.846  16.934  0.00  0.00    +0.000 C 
ATOM      6  N   UNL     1       1.899   8.942  18.510  0.00  0.00    +0.000 NA
ATOM      7  C   UNL     1       1.317   8.985  19.732  0.00  0.00    +0.000 A 
ATOM      8  C   UNL     1       0.750  10.008  20.470  0.00  0.00    +0.000 A 
ATOM      9  C   UNL     1       0.304   9.351  21.665  0.00  0.00    +0.000 A 
ATOM     10  C   UNL     1      -0.455   9.937  22.809  0.00  0.00    +0.000 C 
ATOM     11  N   UNL     1       0.652   8.044  21.705  0.00  0.00    +0.000 NA
ATOM     12  N   UNL     1       1.294   7.866  20.515  0.00  0.00    +0.000 N 
ATOM     13  H   UNL     1       1.575   5.683  21.838  0.00  0.00    +0.000 HD
ENDROOT
BRANCH   8  14
ATOM     14  C   UNL     1       0.638  11.396  19.991  0.00  0.00    +0.000 A 
ATOM     15  C   UNL     1       1.505  12.367  20.527  0.00  0.00    +0.000 A 
ATOM     16  C   UNL     1       1.457  13.705  20.110  0.00  0.00    +0.000 A 
ATOM     17  C   UNL     1       0.499  14.109  19.190  0.00  0.00    +0.000 A 
ATOM     18 CL   UNL     1       0.428  15.752  18.686  0.00  0.00    +0.000 Cl
ATOM     19  C   UNL     1      -0.387  13.183  18.656  0.00  0.00    +0.000 A 
ATOM     20  C   UNL     1      -0.297  11.830  19.020  0.00  0.00    +0.000 A 
ATOM     21 CL   UNL     1      -1.325  10.766  18.113  0.00  0.00    +0.000 Cl
ENDBRANCH   8  14
BRANCH   1  22
ATOM     22  C   UNL     1       3.027   4.508  20.810  0.00  0.00    +0.000 C 
BRANCH  22  23
ATOM     23  C   UNL     1       2.402   3.094  20.717  0.00  0.00    +0.000 C 
BRANCH  23  25
ATOM     24  C   UNL     1       0.828   2.455  18.822  0.00  0.00    +0.000 C 
ATOM     25  C   UNL     1       0.954   3.098  20.196  0.00  0.00    +0.000 C 
ENDBRANCH  23  25
ENDBRANCH  22  23
BRANCH  22  26
ATOM     26  C   UNL     1       4.038   4.803  19.670  0.00  0.00    +0.000 C 
BRANCH  26  27
ATOM     27  C   UNL     1       4.439   3.607  18.798  0.00  0.00    +0.000 C 
ATOM     28  C   UNL     1       3.942   3.770  17.364  0.00  0.00    +0.000 C 
ENDBRANCH  26  27
ENDBRANCH  22  26
ENDBRANCH   1  22
TORSDOF 6
ENDMDL
MODEL 4
REMARK VINA RESULT:      -6.3      5.081      9.430
REMARK  Name = 
REMARK  10 active torsions:
REMARK  status: ('A' for Active; 'I' for Inactive)
REMARK    1  A    between atoms: C_1  and  C_2
REMARK    2  A    between atoms: C_2  and  C_3
REMARK    3  A    between atoms: C_3  and  C_4
REMARK    4  A    between atoms: C_4  and  C_5
REMARK    5  A    between atoms: C_4  and  N_8
REMARK    6  A    between atoms: C_5  and  C_6
REMARK    7  A    between atoms: C_6  and  C_7
REMARK    8  A    between atoms: C_11  and  C_12
REMARK    9  A    between atoms: C_15  and  C_16
REMARK   10  A    between atoms: C_24  and  C_25
REMARK                            x       y       z     vdW  Elec       q    Type
REMARK                         _______ _______ _______ _____ _____    ______ ____
ROOT
ATOM      1  N   UNL     1       4.179   5.183  17.503  0.00  0.00    +0.000 N 
ATOM      2  C   UNL     1       3.397   5.573  18.595  0.00  0.00    +0.000 A 
ATOM      3  N   UNL     1       3.072   4.723  19.533  0.00  0.00    +0.000 NA
ATOM      4  C   UNL     1       2.344   5.169  20.615  0.00  0.00    +0.000 A 
ATOM      5  C   UNL     1       1.980   4.136  21.639  0.00  0.00    +0.000 C 
ATOM      6  N   UNL     1       1.937   6.386  20.806  0.00  0.00    +0.000 NA
ATOM      7  C   UNL     1       2.156   7.268  19.802  0.00  0.00    +0.000 A 
ATOM      8  C   UNL     1       1.686   8.543  19.549  0.00  0.00    +0.000 A 
ATOM      9  C   UNL     1       2.340   8.905  18.323  0.00  0.00    +0.000 A 
ATOM     10  C   UNL     1       2.277  10.207  17.596  0.00  0.00    +0.000 C 
ATOM     11  N   UNL     1       3.081   7.897  17.810  0.00  0.00    +0.000 NA
ATOM     12  N   UNL     1       2.921   6.903  18.730  0.00  0.00    +0.000 N 
ATOM     13  H   UNL     1       4.221   5.884  16.765  0.00  0.00    +0.000 HD
ENDROOT
BRANCH   8  14
ATOM     14  C   UNL     1       0.776   9.272  20.449  0.00  0.00    +0.000 A 
ATOM     15  C   UNL     1       1.069   9.299  21.826  0.00  0.00    +0.000 A 
ATOM     16  C   UNL     1       0.249   9.980  22.737  0.00  0.00    +0.000 A 
ATOM     17  C   UNL     1      -0.913  10.599  22.295  0.00  0.00    +0.000 A 
ATOM     18 CL   UNL     1      -1.928  11.424  23.412  0.00  0.00    +0.000 Cl
ATOM     19  C   UNL     1      -1.246  10.573  20.948  0.00  0.00    +0.000 A 
ATOM     20  C   UNL     1      -0.391   9.950  20.022  0.00  0.00    +0.000 A 
ATOM     21 CL   UNL     1      -0.830  10.186  18.360  0.00  0.00    +0.000 Cl
ENDBRANCH   8  14
BRANCH   1  22
ATOM     22  C   UNL     1       4.255   3.773  17.061  0.00  0.00    +0.000 C 
BRANCH  22  23
ATOM     23  C   UNL     1       2.831   3.189  16.884  0.00  0.00    +0.000 C 
BRANCH  23  25
ATOM     24  C   UNL     1       1.246   2.152  18.584  0.00  0.00    +0.000 C 
ATOM     25  C   UNL     1       2.543   1.990  17.804  0.00  0.00    +0.000 C 
ENDBRANCH  23  25
ENDBRANCH  22  23
BRANCH  22  26
ATOM     26  C   UNL     1       5.148   3.587  15.806  0.00  0.00    +0.000 C 
BRANCH  26  27
ATOM     27  C   UNL     1       5.623   4.872  15.118  0.00  0.00    +0.000 C 
ATOM     28  C   UNL     1       7.099   5.144  15.397  0.00  0.00    +0.000 C 
ENDBRANCH  26  27
ENDBRANCH  22  26
ENDBRANCH   1  22
TORSDOF 6
ENDMDL
MODEL 5
REMARK VINA RESULT:      -6.3      4.172      5.463
REMARK  Name = 
REMARK  10 active torsions:
REMARK  status: ('A' for Active; 'I' for Inactive)
REMARK    1  A    between atoms: C_1  and  C_2
REMARK    2  A    between atoms: C_2  and  C_3
REMARK    3  A    between atoms: C_3  and  C_4
REMARK    4  A    between atoms: C_4  and  C_5
REMARK    5  A    between atoms: C_4  and  N_8
REMARK    6  A    between atoms: C_5  and  C_6
REMARK    7  A    between atoms: C_6  and  C_7
REMARK    8  A    between atoms: C_11  and  C_12
REMARK    9  A    between atoms: C_15  and  C_16
REMARK   10  A    between atoms: C_24  and  C_25
REMARK                            x       y       z     vdW  Elec       q    Type
REMARK                         _______ _______ _______ _____ _____    ______ ____
ROOT
ATOM      1  N   UNL     1      -2.290  12.201  17.856  0.00  0.00    +0.000 N 
ATOM      2  C   UNL     1      -0.967  12.037  18.280  0.00  0.00    +0.000 A 
ATOM      3  N   UNL     1      -0.453  10.847  18.445  0.00  0.00    +0.000 NA
ATOM      4  C   UNL     1       0.871  10.737  18.814  0.00  0.00    +0.000 A 
ATOM      5  C   UNL     1       1.389   9.344  19.014  0.00  0.00    +0.000 C 
ATOM      6  N   UNL     1       1.685  11.725  19.019  0.00  0.00    +0.000 NA
ATOM      7  C   UNL     1       1.158  12.972  18.970  0.00  0.00    +0.000 A 
ATOM      8  C   UNL     1       1.638  14.213  19.344  0.00  0.00    +0.000 A 
ATOM      9  C   UNL     1       0.571  15.106  18.992  0.00  0.00    +0.000 A 
ATOM     10  C   UNL     1       0.544  16.595  19.095  0.00  0.00    +0.000 C 
ATOM     11  N   UNL     1      -0.521  14.457  18.527  0.00  0.00    +0.000 NA
ATOM     12  N   UNL     1      -0.131  13.150  18.553  0.00  0.00    +0.000 N 
ATOM     13  H   UNL     1      -2.621  13.162  17.928  0.00  0.00    +0.000 HD
ENDROOT
BRANCH   8  14
ATOM     14  C   UNL     1       2.983  14.434  19.902  0.00  0.00    +0.000 A 
ATOM     15  C   UNL     1       3.218  14.094  21.248  0.00  0.00    +0.000 A 
ATOM     16  C   UNL     1       4.477  14.272  21.841  0.00  0.00    +0.000 A 
ATOM     17  C   UNL     1       5.510  14.849  21.113  0.00  0.00    +0.000 A 
ATOM     18 CL   UNL     1       7.051  15.081  21.841  0.00  0.00    +0.000 Cl
ATOM     19  C   UNL     1       5.308  15.217  19.790  0.00  0.00    +0.000 A 
ATOM     20  C   UNL     1       4.068  14.977  19.173  0.00  0.00    +0.000 A 
ATOM     21 CL   UNL     1       4.037  15.292  17.467  0.00  0.00    +0.000 Cl
ENDBRANCH   8  14
BRANCH   1  22
ATOM     22  C   UNL     1      -3.311  11.150  18.055  0.00  0.00    +0.000 C 
BRANCH  22  23
ATOM     23  C   UNL     1      -4.622  11.771  18.600  0.00  0.00    +0.000 C 
BRANCH  23  25
ATOM     24  C   UNL     1      -7.164  11.807  18.483  0.00  0.00    +0.000 C 
ATOM     25  C   UNL     1      -5.891  11.083  18.067  0.00  0.00    +0.000 C 
ENDBRANCH  23  25
ENDBRANCH  22  23
BRANCH  22  26
ATOM     26  C   UNL     1      -3.531  10.281  16.788  0.00  0.00    +0.000 C 
BRANCH  26  27
ATOM     27  C   UNL     1      -2.825  10.757  15.512  0.00  0.00    +0.000 C 
ATOM     28  C   UNL     1      -3.418  10.101  14.268  0.00  0.00    +0.000 C 
ENDBRANCH  26  27
ENDBRANCH  22  26
ENDBRANCH   1  22
TORSDOF 6
ENDMDL
MODEL 6
REMARK VINA RESULT:      -6.2      1.069      1.278
REMARK  Name = 
REMARK  10 active torsions:
REMARK  status: ('A' for Active; 'I' for Inactive)
REMARK    1  A    between atoms: C_1  and  C_2
REMARK    2  A    between atoms: C_2  and  C_3
REMARK    3  A    between atoms: C_3  and  C_4
REMARK    4  A    between atoms: C_4  and  C_5
REMARK    5  A    between atoms: C_4  and  N_8
REMARK    6  A    between atoms: C_5  and  C_6
REMARK    7  A    between atoms: C_6  and  C_7
REMARK    8  A    between atoms: C_11  and  C_12
REMARK    9  A    between atoms: C_15  and  C_16
REMARK   10  A    between atoms: C_24  and  C_25
REMARK                            x       y       z     vdW  Elec       q    Type
REMARK                         _______ _______ _______ _____ _____    ______ ____
ROOT
ATOM      1  N   UNL     1      -3.566  13.515  19.907  0.00  0.00    +0.000 N 
ATOM      2  C   UNL     1      -3.009  12.358  19.353  0.00  0.00    +0.000 A 
ATOM      3  N   UNL     1      -3.729  11.538  18.634  0.00  0.00    +0.000 NA
ATOM      4  C   UNL     1      -3.121  10.439  18.066  0.00  0.00    +0.000 A 
ATOM      5  C   UNL     1      -4.010   9.525  17.277  0.00  0.00    +0.000 C 
ATOM      6  N   UNL     1      -1.867  10.125  18.174  0.00  0.00    +0.000 NA
ATOM      7  C   UNL     1      -1.116  10.886  19.005  0.00  0.00    +0.000 A 
ATOM      8  C   UNL     1       0.151  10.733  19.536  0.00  0.00    +0.000 A 
ATOM      9  C   UNL     1       0.333  11.923  20.317  0.00  0.00    +0.000 A 
ATOM     10  C   UNL     1       1.549  12.353  21.069  0.00  0.00    +0.000 C 
ATOM     11  N   UNL     1      -0.770  12.704  20.345  0.00  0.00    +0.000 NA
ATOM     12  N   UNL     1      -1.644  12.022  19.552  0.00  0.00    +0.000 N 
ATOM     13  H   UNL     1      -2.954  13.976  20.579  0.00  0.00    +0.000 HD
ENDROOT
BRANCH   8  14
ATOM     14  C   UNL     1       1.031   9.591  19.233  0.00  0.00    +0.000 A 
ATOM     15  C   UNL     1       1.571   9.481  17.937  0.00  0.00    +0.000 A 
ATOM     16  C   UNL     1       2.421   8.424  17.584  0.00  0.00    +0.000 A 
ATOM     17  C   UNL     1       2.701   7.422  18.505  0.00  0.00    +0.000 A 
ATOM     18 CL   UNL     1       3.732   6.117  18.071  0.00  0.00    +0.000 Cl
ATOM     19  C   UNL     1       2.167   7.486  19.785  0.00  0.00    +0.000 A 
ATOM     20  C   UNL     1       1.371   8.580  20.163  0.00  0.00    +0.000 A 
ATOM     21 CL   UNL     1       0.958   8.626  21.848  0.00  0.00    +0.000 Cl
ENDBRANCH   8  14
BRANCH   1  22
ATOM     22  C   UNL     1      -5.018  13.637  20.165  0.00  0.00    +0.000 C 
BRANCH  22  23
ATOM     23  C   UNL     1      -5.422  12.764  21.380  0.00  0.00    +0.000 C 
BRANCH  23  25
ATOM     24  C   UNL     1      -7.145  11.092  20.535  0.00  0.00    +0.000 C 
ATOM     25  C   UNL     1      -6.902  12.345  21.365  0.00  0.00    +0.000 C 
ENDBRANCH  23  25
ENDBRANCH  22  23
BRANCH  22  26
ATOM     26  C   UNL     1      -5.480  15.113  20.297  0.00  0.00    +0.000 C 
BRANCH  26  27
ATOM     27  C   UNL     1      -6.467  15.608  19.234  0.00  0.00    +0.000 C 
ATOM     28  C   UNL     1      -6.777  14.522  18.208  0.00  0.00    +0.000 C 
ENDBRANCH  26  27
ENDBRANCH  22  26
ENDBRANCH   1  22
TORSDOF 6
ENDMDL
MODEL 7
REMARK VINA RESULT:      -6.2      0.795      1.055
REMARK  Name = 
REMARK  10 active torsions:
REMARK  status: ('A' for Active; 'I' for Inactive)
REMARK    1  A    between atoms: C_1  and  C_2
REMARK    2  A    between atoms: C_2  and  C_3
REMARK    3  A    between atoms: C_3  and  C_4
REMARK    4  A    between atoms: C_4  and  C_5
REMARK    5  A    between atoms: C_4  and  N_8
REMARK    6  A    between atoms: C_5  and  C_6
REMARK    7  A    between atoms: C_6  and  C_7
REMARK    8  A    between atoms: C_11  and  C_12
REMARK    9  A    between atoms: C_15  and  C_16
REMARK   10  A    between atoms: C_24  and  C_25
REMARK                            x       y       z     vdW  Elec       q    Type
REMARK                         _______ _______ _______ _____ _____    ______ ____
ROOT
ATOM      1  N   UNL     1      -4.264  12.737  19.209  0.00  0.00    +0.000 N 
ATOM      2  C   UNL     1      -3.413  11.810  18.597  0.00  0.00    +0.000 A 
ATOM      3  N   UNL     1      -3.764  11.192  17.501  0.00  0.00    +0.000 NA
ATOM      4  C   UNL     1      -2.869  10.327  16.907  0.00  0.00    +0.000 A 
ATOM      5  C   UNL     1      -3.345   9.629  15.668  0.00  0.00    +0.000 C 
ATOM      6  N   UNL     1      -1.676  10.057  17.338  0.00  0.00    +0.000 NA
ATOM      7  C   UNL     1      -1.322  10.590  18.532  0.00  0.00    +0.000 A 
ATOM      8  C   UNL     1      -0.266  10.355  19.392  0.00  0.00    +0.000 A 
ATOM      9  C   UNL     1      -0.492  11.285  20.461  0.00  0.00    +0.000 A 
ATOM     10  C   UNL     1       0.370  11.546  21.652  0.00  0.00    +0.000 C 
ATOM     11  N   UNL     1      -1.648  11.973  20.320  0.00  0.00    +0.000 NA
ATOM     12  N   UNL     1      -2.140  11.500  19.141  0.00  0.00    +0.000 N 
ATOM     13  H   UNL     1      -3.953  13.020  20.137  0.00  0.00    +0.000 HD
ENDROOT
BRANCH   8  14
ATOM     14  C   UNL     1       0.811   9.389  19.118  0.00  0.00    +0.000 A 
ATOM     15  C   UNL     1       1.472   9.449  17.876  0.00  0.00    +0.000 A 
ATOM     16  C   UNL     1       2.511   8.564  17.554  0.00  0.00    +0.000 A 
ATOM     17  C   UNL     1       2.870   7.563  18.447  0.00  0.00    +0.000 A 
ATOM     18 CL   UNL     1       4.134   6.467  18.049  0.00  0.00    +0.000 Cl
ATOM     19  C   UNL     1       2.225   7.459  19.672  0.00  0.00    +0.000 A 
ATOM     20  C   UNL     1       1.231   8.387  20.026  0.00  0.00    +0.000 A 
ATOM     21 CL   UNL     1       0.672   8.259  21.664  0.00  0.00    +0.000 Cl
ENDBRANCH   8  14
BRANCH   1  22
ATOM     22  C   UNL     1      -5.728  12.710  18.999  0.00  0.00    +0.000 C 
BRANCH  22  23
ATOM     23  C   UNL     1      -6.459  13.276  20.242  0.00  0.00    +0.000 C 
BRANCH  23  25
ATOM     24  C   UNL     1      -5.549  13.038  22.607  0.00  0.00    +0.000 C 
ATOM     25  C   UNL     1      -6.336  12.376  21.485  0.00  0.00    +0.000 C 
ENDBRANCH  23  25
ENDBRANCH  22  23
BRANCH  22  26
ATOM     26  C   UNL     1      -6.156  13.402  17.677  0.00  0.00    +0.000 C 
BRANCH  26  27
ATOM     27  C   UNL     1      -6.886  14.742  17.821  0.00  0.00    +0.000 C 
ATOM     28  C   UNL     1      -7.012  15.457  16.478  0.00  0.00    +0.000 C 
ENDBRANCH  26  27
ENDBRANCH  22  26
ENDBRANCH   1  22
TORSDOF 6
ENDMDL
MODEL 8
REMARK VINA RESULT:      -5.9      4.368      5.397
REMARK  Name = 
REMARK  10 active torsions:
REMARK  status: ('A' for Active; 'I' for Inactive)
REMARK    1  A    between atoms: C_1  and  C_2
REMARK    2  A    between atoms: C_2  and  C_3
REMARK    3  A    between atoms: C_3  and  C_4
REMARK    4  A    between atoms: C_4  and  C_5
REMARK    5  A    between atoms: C_4  and  N_8
REMARK    6  A    between atoms: C_5  and  C_6
REMARK    7  A    between atoms: C_6  and  C_7
REMARK    8  A    between atoms: C_11  and  C_12
REMARK    9  A    between atoms: C_15  and  C_16
REMARK   10  A    between atoms: C_24  and  C_25
REMARK                            x       y       z     vdW  Elec       q    Type
REMARK                         _______ _______ _______ _____ _____    ______ ____
ROOT
ATOM      1  N   UNL     1      -2.270  12.511  18.253  0.00  0.00    +0.000 N 
ATOM      2  C   UNL     1      -0.891  12.326  18.398  0.00  0.00    +0.000 A 
ATOM      3  N   UNL     1      -0.371  11.129  18.453  0.00  0.00    +0.000 NA
ATOM      4  C   UNL     1       0.998  11.000  18.544  0.00  0.00    +0.000 A 
ATOM      5  C   UNL     1       1.526   9.599  18.632  0.00  0.00    +0.000 C 
ATOM      6  N   UNL     1       1.851  11.976  18.581  0.00  0.00    +0.000 NA
ATOM      7  C   UNL     1       1.343  13.229  18.643  0.00  0.00    +0.000 A 
ATOM      8  C   UNL     1       1.907  14.462  18.914  0.00  0.00    +0.000 A 
ATOM      9  C   UNL     1       0.802  15.371  18.789  0.00  0.00    +0.000 A 
ATOM     10  C   UNL     1       0.818  16.859  18.897  0.00  0.00    +0.000 C 
ATOM     11  N   UNL     1      -0.370  14.739  18.554  0.00  0.00    +0.000 NA
ATOM     12  N   UNL     1      -0.002  13.427  18.498  0.00  0.00    +0.000 N 
ATOM     13  H   UNL     1      -2.566  13.476  18.393  0.00  0.00    +0.000 HD
ENDROOT
BRANCH   8  14
ATOM     14  C   UNL     1       3.340  14.663  19.187  0.00  0.00    +0.000 A 
ATOM     15  C   UNL     1       4.232  14.723  18.100  0.00  0.00    +0.000 A 
ATOM     16  C   UNL     1       5.607  14.919  18.289  0.00  0.00    +0.000 A 
ATOM     17  C   UNL     1       6.125  15.000  19.575  0.00  0.00    +0.000 A 
ATOM     18 CL   UNL     1       7.813  15.227  19.811  0.00  0.00    +0.000 Cl
ATOM     19  C   UNL     1       5.278  14.922  20.672  0.00  0.00    +0.000 A 
ATOM     20  C   UNL     1       3.892  14.794  20.484  0.00  0.00    +0.000 A 
ATOM     21 CL   UNL     1       2.950  14.926  21.936  0.00  0.00    +0.000 Cl
ENDBRANCH   8  14
BRANCH   1  22
ATOM     22  C   UNL     1      -3.244  11.472  18.654  0.00  0.00    +0.000 C 
BRANCH  22  23
ATOM     23  C   UNL     1      -4.498  12.127  19.286  0.00  0.00    +0.000 C 
BRANCH  23  25
ATOM     24  C   UNL     1      -4.560  12.726  21.758  0.00  0.00    +0.000 C 
ATOM     25  C   UNL     1      -4.163  13.177  20.360  0.00  0.00    +0.000 C 
ENDBRANCH  23  25
ENDBRANCH  22  23
BRANCH  22  26
ATOM     26  C   UNL     1      -3.587  10.495  17.497  0.00  0.00    +0.000 C 
BRANCH  26  27
ATOM     27  C   UNL     1      -3.663  11.108  16.095  0.00  0.00    +0.000 C 
ATOM     28  C   UNL     1      -2.896  10.270  15.075  0.00  0.00    +0.000 C 
ENDBRANCH  26  27
ENDBRANCH  22  26
ENDBRANCH   1  22
TORSDOF 6
ENDMDL
MODEL 9
REMARK VINA RESULT:      -5.9      4.925      9.598
REMARK  Name = 
REMARK  10 active torsions:
REMARK  status: ('A' for Active; 'I' for Inactive)
REMARK    1  A    between atoms: C_1  and  C_2
REMARK    2  A    between atoms: C_2  and  C_3
REMARK    3  A    between atoms: C_3  and  C_4
REMARK    4  A    between atoms: C_4  and  C_5
REMARK    5  A    between atoms: C_4  and  N_8
REMARK    6  A    between atoms: C_5  and  C_6
REMARK    7  A    between atoms: C_6  and  C_7
REMARK    8  A    between atoms: C_11  and  C_12
REMARK    9  A    between atoms: C_15  and  C_16
REMARK   10  A    between atoms: C_24  and  C_25
REMARK                            x       y       z     vdW  Elec       q    Type
REMARK                         _______ _______ _______ _____ _____    ______ ____
ROOT
ATOM      1  N   UNL     1       4.131   5.765  17.199  0.00  0.00    +0.000 N 
ATOM      2  C   UNL     1       3.317   6.070  18.295  0.00  0.00    +0.000 A 
ATOM      3  N   UNL     1       2.963   5.149  19.152  0.00  0.00    +0.000 NA
ATOM      4  C   UNL     1       2.203   5.510  20.244  0.00  0.00    +0.000 A 
ATOM      5  C   UNL     1       1.807   4.400  21.171  0.00  0.00    +0.000 C 
ATOM      6  N   UNL     1       1.793   6.709  20.519  0.00  0.00    +0.000 NA
ATOM      7  C   UNL     1       2.042   7.667  19.595  0.00  0.00    +0.000 A 
ATOM      8  C   UNL     1       1.581   8.960  19.431  0.00  0.00    +0.000 A 
ATOM      9  C   UNL     1       2.273   9.416  18.258  0.00  0.00    +0.000 A 
ATOM     10  C   UNL     1       2.234  10.772  17.635  0.00  0.00    +0.000 C 
ATOM     11  N   UNL     1       3.028   8.450  17.688  0.00  0.00    +0.000 NA
ATOM     12  N   UNL     1       2.839   7.387  18.521  0.00  0.00    +0.000 N 
ATOM     13  H   UNL     1       4.196   6.522  16.521  0.00  0.00    +0.000 HD
ENDROOT
BRANCH   8  14
ATOM     14  C   UNL     1       0.646   9.618  20.359  0.00  0.00    +0.000 A 
ATOM     15  C   UNL     1       0.954   9.629  21.732  0.00  0.00    +0.000 A 
ATOM     16  C   UNL     1       0.111  10.244  22.669  0.00  0.00    +0.000 A 
ATOM     17  C   UNL     1      -1.088  10.810  22.255  0.00  0.00    +0.000 A 
ATOM     18 CL   UNL     1      -2.130  11.553  23.403  0.00  0.00    +0.000 Cl
ATOM     19  C   UNL     1      -1.435  10.798  20.911  0.00  0.00    +0.000 A 
ATOM     20  C   UNL     1      -0.561  10.244  19.962  0.00  0.00    +0.000 A 
ATOM     21 CL   UNL     1      -1.032  10.494  18.311  0.00  0.00    +0.000 Cl
ENDBRANCH   8  14
BRANCH   1  22
ATOM     22  C   UNL     1       4.219   4.394  16.649  0.00  0.00    +0.000 C 
BRANCH  22  23
ATOM     23  C   UNL     1       5.600   3.772  16.975  0.00  0.00    +0.000 C 
BRANCH  23  25
ATOM     24  C   UNL     1       7.563   5.019  18.008  0.00  0.00    +0.000 C 
ATOM     25  C   UNL     1       6.776   4.736  16.737  0.00  0.00    +0.000 C 
ENDBRANCH  23  25
ENDBRANCH  22  23
BRANCH  22  26
ATOM     26  C   UNL     1       3.030   3.497  17.086  0.00  0.00    +0.000 C 
BRANCH  26  27
ATOM     27  C   UNL     1       3.397   2.163  17.746  0.00  0.00    +0.000 C 
ATOM     28  C   UNL     1       2.291   1.677  18.678  0.00  0.00    +0.000 C 
ENDBRANCH  26  27
ENDBRANCH  22  26
ENDBRANCH   1  22
TORSDOF 6
ENDMDL
