MODEL 1
REMARK VINA RESULT:      -7.2      0.000      0.000
REMARK  Name = 
REMARK  6 active torsions:
REMARK  status: ('A' for Active; 'I' for Inactive)
REMARK    1  A    between atoms: C_2  and  C_15
REMARK    2  A    between atoms: N_3  and  C_4
REMARK    3  A    between atoms: C_4  and  C_5
REMARK    4  A    between atoms: C_5  and  S_6
REMARK    5  A    between atoms: S_6  and  C_7
REMARK    6  A    between atoms: C_7  and  C_8
REMARK                            x       y       z     vdW  Elec       q    Type
REMARK                         _______ _______ _______ _____ _____    ______ ____
ROOT
ATOM      1  O   UNL     1       4.171   6.173  18.749  0.00  0.00    +0.000 OA
ATOM      2  C   UNL     1       4.238   4.995  19.082  0.00  0.00    +0.000 C 
ATOM      3  N   UNL     1       5.448   4.392  19.365  0.00  0.00    +0.000 N 
ATOM      4  H   UNL     1       5.461   3.470  19.784  0.00  0.00    +0.000 HD
ENDROOT
BRANCH   2   5
ATOM      5  C   UNL     1       3.005   4.151  19.198  0.00  0.00    +0.000 A 
ATOM      6  C   UNL     1       2.878   2.975  18.428  0.00  0.00    +0.000 A 
ATOM      7 CL   UNL     1       4.106   2.365  17.367  0.00  0.00    +0.000 Cl
ATOM      8  C   UNL     1       1.718   2.185  18.507  0.00  0.00    +0.000 A 
ATOM      9  C   UNL     1       0.680   2.537  19.360  0.00  0.00    +0.000 A 
ATOM     10  C   UNL     1       0.790   3.687  20.130  0.00  0.00    +0.000 A 
ATOM     11  C   UNL     1       1.933   4.498  20.045  0.00  0.00    +0.000 A 
ATOM     12 CL   UNL     1       1.884   5.935  21.015  0.00  0.00    +0.000 Cl
ENDBRANCH   2   5
BRANCH   3  13
ATOM     13  C   UNL     1       6.713   5.100  19.251  0.00  0.00    +0.000 C 
BRANCH  13  14
ATOM     14  C   UNL     1       7.461   4.795  17.949  0.00  0.00    +0.000 C 
BRANCH  14  15
ATOM     15  S   UNL     1       7.064   6.098  16.730  0.00  0.00    +0.000 S 
BRANCH  15  16
ATOM     16  C   UNL     1       5.728   5.274  15.810  0.00  0.00    +0.000 C 
BRANCH  16  17
ATOM     17  C   UNL     1       6.219   4.797  14.462  0.00  0.00    +0.000 A 
ATOM     18  C   UNL     1       7.363   5.361  13.874  0.00  0.00    +0.000 A 
ATOM     19  C   UNL     1       7.805   4.931  12.616  0.00  0.00    +0.000 A 
ATOM     20  C   UNL     1       7.103   3.941  11.933  0.00  0.00    +0.000 A 
ATOM     21  C   UNL     1       5.964   3.392  12.506  0.00  0.00    +0.000 A 
ATOM     22  F   UNL     1       5.283   2.448  11.842  0.00  0.00    +0.000 F 
ATOM     23  C   UNL     1       5.516   3.809  13.757  0.00  0.00    +0.000 A 
ENDBRANCH  16  17
ENDBRANCH  15  16
ENDBRANCH  14  15
ENDBRANCH  13  14
ENDBRANCH   3  13
TORSDOF 6
ENDMDL
MODEL 2
REMARK VINA RESULT:      -6.8      3.471      5.292
REMARK  Name = 
REMARK  6 active torsions:
REMARK  status: ('A' for Active; 'I' for Inactive)
REMARK    1  A    between atoms: C_2  and  C_15
REMARK    2  A    between atoms: N_3  and  C_4
REMARK    3  A    between atoms: C_4  and  C_5
REMARK    4  A    between atoms: C_5  and  S_6
REMARK    5  A    between atoms: S_6  and  C_7
REMARK    6  A    between atoms: C_7  and  C_8
REMARK                            x       y       z     vdW  Elec       q    Type
REMARK                         _______ _______ _______ _____ _____    ______ ____
ROOT
ATOM      1  O   UNL     1       3.981   1.585  17.508  0.00  0.00    +0.000 OA
ATOM      2  C   UNL     1       3.856   2.684  18.034  0.00  0.00    +0.000 C 
ATOM      3  N   UNL     1       4.512   3.797  17.547  0.00  0.00    +0.000 N 
ATOM      4  H   UNL     1       4.271   4.715  17.903  0.00  0.00    +0.000 HD
ENDROOT
BRANCH   2   5
ATOM      5  C   UNL     1       2.981   2.873  19.236  0.00  0.00    +0.000 A 
ATOM      6  C   UNL     1       1.732   3.517  19.109  0.00  0.00    +0.000 A 
ATOM      7 CL   UNL     1       1.067   4.068  17.605  0.00  0.00    +0.000 Cl
ATOM      8  C   UNL     1       0.911   3.724  20.230  0.00  0.00    +0.000 A 
ATOM      9  C   UNL     1       1.305   3.282  21.487  0.00  0.00    +0.000 A 
ATOM     10  C   UNL     1       2.529   2.641  21.631  0.00  0.00    +0.000 A 
ATOM     11  C   UNL     1       3.369   2.447  20.523  0.00  0.00    +0.000 A 
ATOM     12 CL   UNL     1       4.891   1.697  20.883  0.00  0.00    +0.000 Cl
ENDBRANCH   2   5
BRANCH   3  13
ATOM     13  C   UNL     1       5.415   3.729  16.409  0.00  0.00    +0.000 C 
BRANCH  13  14
ATOM     14  C   UNL     1       6.528   4.782  16.458  0.00  0.00    +0.000 C 
BRANCH  14  15
ATOM     15  S   UNL     1       6.057   6.073  17.662  0.00  0.00    +0.000 S 
BRANCH  15  16
ATOM     16  C   UNL     1       4.660   6.835  16.780  0.00  0.00    +0.000 C 
BRANCH  16  17
ATOM     17  C   UNL     1       3.602   7.303  17.752  0.00  0.00    +0.000 A 
ATOM     18  C   UNL     1       3.378   6.614  18.956  0.00  0.00    +0.000 A 
ATOM     19  C   UNL     1       2.383   7.038  19.847  0.00  0.00    +0.000 A 
ATOM     20  C   UNL     1       1.600   8.147  19.539  0.00  0.00    +0.000 A 
ATOM     21  C   UNL     1       1.810   8.822  18.344  0.00  0.00    +0.000 A 
ATOM     22  F   UNL     1       1.048   9.883  18.043  0.00  0.00    +0.000 F 
ATOM     23  C   UNL     1       2.798   8.412  17.451  0.00  0.00    +0.000 A 
ENDBRANCH  16  17
ENDBRANCH  15  16
ENDBRANCH  14  15
ENDBRANCH  13  14
ENDBRANCH   3  13
TORSDOF 6
ENDMDL
MODEL 3
REMARK VINA RESULT:      -6.8      1.070      2.222
REMARK  Name = 
REMARK  6 active torsions:
REMARK  status: ('A' for Active; 'I' for Inactive)
REMARK    1  A    between atoms: C_2  and  C_15
REMARK    2  A    between atoms: N_3  and  C_4
REMARK    3  A    between atoms: C_4  and  C_5
REMARK    4  A    between atoms: C_5  and  S_6
REMARK    5  A    between atoms: S_6  and  C_7
REMARK    6  A    between atoms: C_7  and  C_8
REMARK                            x       y       z     vdW  Elec       q    Type
REMARK                         _______ _______ _______ _____ _____    ______ ____
ROOT
ATOM      1  O   UNL     1       5.289   2.930  20.257  0.00  0.00    +0.000 OA
ATOM      2  C   UNL     1       4.529   3.709  19.696  0.00  0.00    +0.000 C 
ATOM      3  N   UNL     1       4.962   4.940  19.242  0.00  0.00    +0.000 N 
ATOM      4  H   UNL     1       4.356   5.495  18.649  0.00  0.00    +0.000 HD
ENDROOT
BRANCH   2   5
ATOM      5  C   UNL     1       3.088   3.363  19.475  0.00  0.00    +0.000 A 
ATOM      6  C   UNL     1       2.074   4.112  20.110  0.00  0.00    +0.000 A 
ATOM      7 CL   UNL     1       2.365   5.498  21.110  0.00  0.00    +0.000 Cl
ATOM      8  C   UNL     1       0.719   3.785  19.932  0.00  0.00    +0.000 A 
ATOM      9  C   UNL     1       0.349   2.727  19.111  0.00  0.00    +0.000 A 
ATOM     10  C   UNL     1       1.332   1.982  18.474  0.00  0.00    +0.000 A 
ATOM     11  C   UNL     1       2.691   2.283  18.659  0.00  0.00    +0.000 A 
ATOM     12 CL   UNL     1       3.793   1.215  17.853  0.00  0.00    +0.000 Cl
ENDBRANCH   2   5
BRANCH   3  13
ATOM     13  C   UNL     1       6.327   5.401  19.432  0.00  0.00    +0.000 C 
BRANCH  13  14
ATOM     14  C   UNL     1       6.932   6.034  18.174  0.00  0.00    +0.000 C 
BRANCH  14  15
ATOM     15  S   UNL     1       7.159   4.728  16.916  0.00  0.00    +0.000 S 
BRANCH  15  16
ATOM     16  C   UNL     1       5.979   5.297  15.653  0.00  0.00    +0.000 C 
BRANCH  16  17
ATOM     17  C   UNL     1       6.360   4.771  14.288  0.00  0.00    +0.000 A 
ATOM     18  C   UNL     1       7.451   5.311  13.589  0.00  0.00    +0.000 A 
ATOM     19  C   UNL     1       7.790   4.836  12.315  0.00  0.00    +0.000 A 
ATOM     20  C   UNL     1       7.037   3.823  11.727  0.00  0.00    +0.000 A 
ATOM     21  C   UNL     1       5.949   3.296  12.410  0.00  0.00    +0.000 A 
ATOM     22  F   UNL     1       5.218   2.330  11.839  0.00  0.00    +0.000 F 
ATOM     23  C   UNL     1       5.604   3.758  13.679  0.00  0.00    +0.000 A 
ENDBRANCH  16  17
ENDBRANCH  15  16
ENDBRANCH  14  15
ENDBRANCH  13  14
ENDBRANCH   3  13
TORSDOF 6
ENDMDL
MODEL 4
REMARK VINA RESULT:      -6.7      3.587      6.578
REMARK  Name = 
REMARK  6 active torsions:
REMARK  status: ('A' for Active; 'I' for Inactive)
REMARK    1  A    between atoms: C_2  and  C_15
REMARK    2  A    between atoms: N_3  and  C_4
REMARK    3  A    between atoms: C_4  and  C_5
REMARK    4  A    between atoms: C_5  and  S_6
REMARK    5  A    between atoms: S_6  and  C_7
REMARK    6  A    between atoms: C_7  and  C_8
REMARK                            x       y       z     vdW  Elec       q    Type
REMARK                         _______ _______ _______ _____ _____    ______ ____
ROOT
ATOM      1  O   UNL     1       4.868   4.979  19.706  0.00  0.00    +0.000 OA
ATOM      2  C   UNL     1       5.142   4.091  18.908  0.00  0.00    +0.000 C 
ATOM      3  N   UNL     1       4.987   2.756  19.232  0.00  0.00    +0.000 N 
ATOM      4  H   UNL     1       5.073   2.053  18.507  0.00  0.00    +0.000 HD
ENDROOT
BRANCH   2   5
ATOM      5  C   UNL     1       5.660   4.410  17.539  0.00  0.00    +0.000 A 
ATOM      6  C   UNL     1       4.920   4.036  16.397  0.00  0.00    +0.000 A 
ATOM      7 CL   UNL     1       3.366   3.269  16.449  0.00  0.00    +0.000 Cl
ATOM      8  C   UNL     1       5.402   4.306  15.105  0.00  0.00    +0.000 A 
ATOM      9  C   UNL     1       6.613   4.965  14.926  0.00  0.00    +0.000 A 
ATOM     10  C   UNL     1       7.352   5.346  16.038  0.00  0.00    +0.000 A 
ATOM     11  C   UNL     1       6.893   5.063  17.335  0.00  0.00    +0.000 A 
ATOM     12 CL   UNL     1       7.967   5.538  18.611  0.00  0.00    +0.000 Cl
ENDBRANCH   2   5
BRANCH   3  13
ATOM     13  C   UNL     1       4.527   2.324  20.541  0.00  0.00    +0.000 C 
BRANCH  13  14
ATOM     14  C   UNL     1       3.033   1.987  20.575  0.00  0.00    +0.000 C 
BRANCH  14  15
ATOM     15  S   UNL     1       2.183   3.208  21.636  0.00  0.00    +0.000 S 
BRANCH  15  16
ATOM     16  C   UNL     1       0.971   3.869  20.451  0.00  0.00    +0.000 C 
BRANCH  16  17
ATOM     17  C   UNL     1       1.441   5.187  19.881  0.00  0.00    +0.000 A 
ATOM     18  C   UNL     1       1.862   5.282  18.544  0.00  0.00    +0.000 A 
ATOM     19  C   UNL     1       2.315   6.501  18.023  0.00  0.00    +0.000 A 
ATOM     20  C   UNL     1       2.360   7.631  18.835  0.00  0.00    +0.000 A 
ATOM     21  C   UNL     1       1.957   7.537  20.160  0.00  0.00    +0.000 A 
ATOM     22  F   UNL     1       2.011   8.623  20.944  0.00  0.00    +0.000 F 
ATOM     23  C   UNL     1       1.501   6.331  20.689  0.00  0.00    +0.000 A 
ENDBRANCH  16  17
ENDBRANCH  15  16
ENDBRANCH  14  15
ENDBRANCH  13  14
ENDBRANCH   3  13
TORSDOF 6
ENDMDL
MODEL 5
REMARK VINA RESULT:      -6.6      3.588      4.936
REMARK  Name = 
REMARK  6 active torsions:
REMARK  status: ('A' for Active; 'I' for Inactive)
REMARK    1  A    between atoms: C_2  and  C_15
REMARK    2  A    between atoms: N_3  and  C_4
REMARK    3  A    between atoms: C_4  and  C_5
REMARK    4  A    between atoms: C_5  and  S_6
REMARK    5  A    between atoms: S_6  and  C_7
REMARK    6  A    between atoms: C_7  and  C_8
REMARK                            x       y       z     vdW  Elec       q    Type
REMARK                         _______ _______ _______ _____ _____    ______ ____
ROOT
ATOM      1  O   UNL     1       3.609   5.965  20.068  0.00  0.00    +0.000 OA
ATOM      2  C   UNL     1       2.451   6.247  19.786  0.00  0.00    +0.000 C 
ATOM      3  N   UNL     1       1.442   5.305  19.852  0.00  0.00    +0.000 N 
ATOM      4  H   UNL     1       0.476   5.601  19.765  0.00  0.00    +0.000 HD
ENDROOT
BRANCH   2   5
ATOM      5  C   UNL     1       2.072   7.631  19.356  0.00  0.00    +0.000 A 
ATOM      6  C   UNL     1       2.565   8.155  18.142  0.00  0.00    +0.000 A 
ATOM      7 CL   UNL     1       3.555   7.269  17.027  0.00  0.00    +0.000 Cl
ATOM      8  C   UNL     1       2.239   9.460  17.735  0.00  0.00    +0.000 A 
ATOM      9  C   UNL     1       1.409  10.257  18.515  0.00  0.00    +0.000 A 
ATOM     10  C   UNL     1       0.911   9.756  19.710  0.00  0.00    +0.000 A 
ATOM     11  C   UNL     1       1.245   8.462  20.140  0.00  0.00    +0.000 A 
ATOM     12 CL   UNL     1       0.602   8.016  21.687  0.00  0.00    +0.000 Cl
ENDBRANCH   2   5
BRANCH   3  13
ATOM     13  C   UNL     1       1.694   3.922  20.221  0.00  0.00    +0.000 C 
BRANCH  13  14
ATOM     14  C   UNL     1       1.399   2.932  19.089  0.00  0.00    +0.000 C 
BRANCH  14  15
ATOM     15  S   UNL     1       2.306   3.466  17.595  0.00  0.00    +0.000 S 
BRANCH  15  16
ATOM     16  C   UNL     1       4.008   3.063  18.097  0.00  0.00    +0.000 C 
BRANCH  16  17
ATOM     17  C   UNL     1       5.003   3.943  17.377  0.00  0.00    +0.000 A 
ATOM     18  C   UNL     1       4.955   4.088  15.981  0.00  0.00    +0.000 A 
ATOM     19  C   UNL     1       5.890   4.890  15.314  0.00  0.00    +0.000 A 
ATOM     20  C   UNL     1       6.885   5.545  16.034  0.00  0.00    +0.000 A 
ATOM     21  C   UNL     1       6.943   5.392  17.413  0.00  0.00    +0.000 A 
ATOM     22  F   UNL     1       7.909   6.014  18.104  0.00  0.00    +0.000 F 
ATOM     23  C   UNL     1       6.017   4.601  18.089  0.00  0.00    +0.000 A 
ENDBRANCH  16  17
ENDBRANCH  15  16
ENDBRANCH  14  15
ENDBRANCH  13  14
ENDBRANCH   3  13
TORSDOF 6
ENDMDL
MODEL 6
REMARK VINA RESULT:      -6.5      5.649      7.727
REMARK  Name = 
REMARK  6 active torsions:
REMARK  status: ('A' for Active; 'I' for Inactive)
REMARK    1  A    between atoms: C_2  and  C_15
REMARK    2  A    between atoms: N_3  and  C_4
REMARK    3  A    between atoms: C_4  and  C_5
REMARK    4  A    between atoms: C_5  and  S_6
REMARK    5  A    between atoms: S_6  and  C_7
REMARK    6  A    between atoms: C_7  and  C_8
REMARK                            x       y       z     vdW  Elec       q    Type
REMARK                         _______ _______ _______ _____ _____    ______ ____
ROOT
ATOM      1  O   UNL     1       1.871   6.789  17.705  0.00  0.00    +0.000 OA
ATOM      2  C   UNL     1       2.274   6.131  18.657  0.00  0.00    +0.000 C 
ATOM      3  N   UNL     1       2.358   6.673  19.925  0.00  0.00    +0.000 N 
ATOM      4  H   UNL     1       2.545   6.068  20.716  0.00  0.00    +0.000 HD
ENDROOT
BRANCH   2   5
ATOM      5  C   UNL     1       2.694   4.702  18.491  0.00  0.00    +0.000 A 
ATOM      6  C   UNL     1       3.739   4.371  17.603  0.00  0.00    +0.000 A 
ATOM      7 CL   UNL     1       4.662   5.531  16.705  0.00  0.00    +0.000 Cl
ATOM      8  C   UNL     1       4.129   3.033  17.418  0.00  0.00    +0.000 A 
ATOM      9  C   UNL     1       3.503   2.010  18.120  0.00  0.00    +0.000 A 
ATOM     10  C   UNL     1       2.476   2.319  19.002  0.00  0.00    +0.000 A 
ATOM     11  C   UNL     1       2.061   3.648  19.181  0.00  0.00    +0.000 A 
ATOM     12 CL   UNL     1       0.720   3.856  20.260  0.00  0.00    +0.000 Cl
ENDBRANCH   2   5
BRANCH   3  13
ATOM     13  C   UNL     1       2.013   8.058  20.201  0.00  0.00    +0.000 C 
BRANCH  13  14
ATOM     14  C   UNL     1       0.908   8.207  21.252  0.00  0.00    +0.000 C 
BRANCH  14  15
ATOM     15  S   UNL     1       0.092   9.825  21.015  0.00  0.00    +0.000 S 
BRANCH  15  16
ATOM     16  C   UNL     1       0.331  10.041  19.225  0.00  0.00    +0.000 C 
BRANCH  16  17
ATOM     17  C   UNL     1      -0.971  10.404  18.549  0.00  0.00    +0.000 A 
ATOM     18  C   UNL     1      -1.817  11.381  19.099  0.00  0.00    +0.000 A 
ATOM     19  C   UNL     1      -3.033  11.702  18.482  0.00  0.00    +0.000 A 
ATOM     20  C   UNL     1      -3.417  11.044  17.316  0.00  0.00    +0.000 A 
ATOM     21  C   UNL     1      -2.589  10.069  16.778  0.00  0.00    +0.000 A 
ATOM     22  F   UNL     1      -2.965   9.428  15.662  0.00  0.00    +0.000 F 
ATOM     23  C   UNL     1      -1.376   9.743  17.381  0.00  0.00    +0.000 A 
ENDBRANCH  16  17
ENDBRANCH  15  16
ENDBRANCH  14  15
ENDBRANCH  13  14
ENDBRANCH   3  13
TORSDOF 6
ENDMDL
MODEL 7
REMARK VINA RESULT:      -6.4      3.230      4.984
REMARK  Name = 
REMARK  6 active torsions:
REMARK  status: ('A' for Active; 'I' for Inactive)
REMARK    1  A    between atoms: C_2  and  C_15
REMARK    2  A    between atoms: N_3  and  C_4
REMARK    3  A    between atoms: C_4  and  C_5
REMARK    4  A    between atoms: C_5  and  S_6
REMARK    5  A    between atoms: S_6  and  C_7
REMARK    6  A    between atoms: C_7  and  C_8
REMARK                            x       y       z     vdW  Elec       q    Type
REMARK                         _______ _______ _______ _____ _____    ______ ____
ROOT
ATOM      1  O   UNL     1       3.569   5.885  20.240  0.00  0.00    +0.000 OA
ATOM      2  C   UNL     1       2.455   6.148  19.803  0.00  0.00    +0.000 C 
ATOM      3  N   UNL     1       1.469   5.184  19.711  0.00  0.00    +0.000 N 
ATOM      4  H   UNL     1       0.518   5.461  19.494  0.00  0.00    +0.000 HD
ENDROOT
BRANCH   2   5
ATOM      5  C   UNL     1       2.107   7.532  19.348  0.00  0.00    +0.000 A 
ATOM      6  C   UNL     1       1.261   8.344  20.133  0.00  0.00    +0.000 A 
ATOM      7 CL   UNL     1       0.619   7.881  21.675  0.00  0.00    +0.000 Cl
ATOM      8  C   UNL     1       0.905   9.636  19.708  0.00  0.00    +0.000 A 
ATOM      9  C   UNL     1       1.396  10.147  18.513  0.00  0.00    +0.000 A 
ATOM     10  C   UNL     1       2.234   9.365  17.730  0.00  0.00    +0.000 A 
ATOM     11  C   UNL     1       2.580   8.064  18.131  0.00  0.00    +0.000 A 
ATOM     12 CL   UNL     1       3.574   7.194  17.008  0.00  0.00    +0.000 Cl
ENDBRANCH   2   5
BRANCH   3  13
ATOM     13  C   UNL     1       1.700   3.800  20.088  0.00  0.00    +0.000 C 
BRANCH  13  14
ATOM     14  C   UNL     1       1.314   2.802  18.990  0.00  0.00    +0.000 C 
BRANCH  14  15
ATOM     15  S   UNL     1       2.413   3.063  17.553  0.00  0.00    +0.000 S 
BRANCH  15  16
ATOM     16  C   UNL     1       4.029   3.081  18.389  0.00  0.00    +0.000 C 
BRANCH  16  17
ATOM     17  C   UNL     1       5.042   3.860  17.582  0.00  0.00    +0.000 A 
ATOM     18  C   UNL     1       6.095   4.540  18.216  0.00  0.00    +0.000 A 
ATOM     19  C   UNL     1       7.022   5.277  17.467  0.00  0.00    +0.000 A 
ATOM     20  C   UNL     1       6.900   5.347  16.082  0.00  0.00    +0.000 A 
ATOM     21  C   UNL     1       5.852   4.687  15.455  0.00  0.00    +0.000 A 
ATOM     22  F   UNL     1       5.729   4.764  14.122  0.00  0.00    +0.000 F 
ATOM     23  C   UNL     1       4.926   3.948  16.187  0.00  0.00    +0.000 A 
ENDBRANCH  16  17
ENDBRANCH  15  16
ENDBRANCH  14  15
ENDBRANCH  13  14
ENDBRANCH   3  13
TORSDOF 6
ENDMDL
MODEL 8
REMARK VINA RESULT:      -6.4      1.624      2.327
REMARK  Name = 
REMARK  6 active torsions:
REMARK  status: ('A' for Active; 'I' for Inactive)
REMARK    1  A    between atoms: C_2  and  C_15
REMARK    2  A    between atoms: N_3  and  C_4
REMARK    3  A    between atoms: C_4  and  C_5
REMARK    4  A    between atoms: C_5  and  S_6
REMARK    5  A    between atoms: S_6  and  C_7
REMARK    6  A    between atoms: C_7  and  C_8
REMARK                            x       y       z     vdW  Elec       q    Type
REMARK                         _______ _______ _______ _____ _____    ______ ____
ROOT
ATOM      1  O   UNL     1       5.529   4.057  18.630  0.00  0.00    +0.000 OA
ATOM      2  C   UNL     1       4.394   4.349  18.273  0.00  0.00    +0.000 C 
ATOM      3  N   UNL     1       4.162   5.039  17.099  0.00  0.00    +0.000 N 
ATOM      4  H   UNL     1       3.214   5.131  16.753  0.00  0.00    +0.000 HD
ENDROOT
BRANCH   2   5
ATOM      5  C   UNL     1       3.201   3.971  19.096  0.00  0.00    +0.000 A 
ATOM      6  C   UNL     1       2.830   2.615  19.224  0.00  0.00    +0.000 A 
ATOM      7 CL   UNL     1       3.716   1.292  18.539  0.00  0.00    +0.000 Cl
ATOM      8  C   UNL     1       1.700   2.245  19.972  0.00  0.00    +0.000 A 
ATOM      9  C   UNL     1       0.932   3.208  20.617  0.00  0.00    +0.000 A 
ATOM     10  C   UNL     1       1.285   4.547  20.506  0.00  0.00    +0.000 A 
ATOM     11  C   UNL     1       2.399   4.933  19.744  0.00  0.00    +0.000 A 
ATOM     12 CL   UNL     1       2.660   6.644  19.647  0.00  0.00    +0.000 Cl
ENDBRANCH   2   5
BRANCH   3  13
ATOM     13  C   UNL     1       5.242   5.490  16.237  0.00  0.00    +0.000 C 
BRANCH  13  14
ATOM     14  C   UNL     1       5.626   4.466  15.164  0.00  0.00    +0.000 C 
BRANCH  14  15
ATOM     15  S   UNL     1       7.371   4.739  14.695  0.00  0.00    +0.000 S 
BRANCH  15  16
ATOM     16  C   UNL     1       7.181   4.998  12.904  0.00  0.00    +0.000 C 
BRANCH  16  17
ATOM     17  C   UNL     1       6.525   3.801  12.255  0.00  0.00    +0.000 A 
ATOM     18  C   UNL     1       7.287   2.683  11.876  0.00  0.00    +0.000 A 
ATOM     19  C   UNL     1       6.680   1.582  11.257  0.00  0.00    +0.000 A 
ATOM     20  C   UNL     1       5.311   1.593  11.005  0.00  0.00    +0.000 A 
ATOM     21  C   UNL     1       4.558   2.702  11.366  0.00  0.00    +0.000 A 
ATOM     22  F   UNL     1       3.242   2.717  11.112  0.00  0.00    +0.000 F 
ATOM     23  C   UNL     1       5.149   3.802  11.985  0.00  0.00    +0.000 A 
ENDBRANCH  16  17
ENDBRANCH  15  16
ENDBRANCH  14  15
ENDBRANCH  13  14
ENDBRANCH   3  13
TORSDOF 6
ENDMDL
MODEL 9
REMARK VINA RESULT:      -6.4      5.849      7.962
REMARK  Name = 
REMARK  6 active torsions:
REMARK  status: ('A' for Active; 'I' for Inactive)
REMARK    1  A    between atoms: C_2  and  C_15
REMARK    2  A    between atoms: N_3  and  C_4
REMARK    3  A    between atoms: C_4  and  C_5
REMARK    4  A    between atoms: C_5  and  S_6
REMARK    5  A    between atoms: S_6  and  C_7
REMARK    6  A    between atoms: C_7  and  C_8
REMARK                            x       y       z     vdW  Elec       q    Type
REMARK                         _______ _______ _______ _____ _____    ______ ____
ROOT
ATOM      1  O   UNL     1      -1.254  10.409  18.486  0.00  0.00    +0.000 OA
ATOM      2  C   UNL     1      -0.365  10.557  19.316  0.00  0.00    +0.000 C 
ATOM      3  N   UNL     1       0.921  10.108  19.086  0.00  0.00    +0.000 N 
ATOM      4  H   UNL     1       1.665  10.379  19.718  0.00  0.00    +0.000 HD
ENDROOT
BRANCH   2   5
ATOM      5  C   UNL     1      -0.632  11.235  20.626  0.00  0.00    +0.000 A 
ATOM      6  C   UNL     1      -0.717  10.476  21.812  0.00  0.00    +0.000 A 
ATOM      7 CL   UNL     1      -0.458   8.763  21.896  0.00  0.00    +0.000 Cl
ATOM      8  C   UNL     1      -0.991  11.093  23.044  0.00  0.00    +0.000 A 
ATOM      9  C   UNL     1      -1.167  12.469  23.122  0.00  0.00    +0.000 A 
ATOM     10  C   UNL     1      -1.082  13.233  21.966  0.00  0.00    +0.000 A 
ATOM     11  C   UNL     1      -0.831  12.628  20.724  0.00  0.00    +0.000 A 
ATOM     12 CL   UNL     1      -0.829  13.710  19.370  0.00  0.00    +0.000 Cl
ENDBRANCH   2   5
BRANCH   3  13
ATOM     13  C   UNL     1       1.290   9.404  17.869  0.00  0.00    +0.000 C 
BRANCH  13  14
ATOM     14  C   UNL     1       2.509   8.492  18.046  0.00  0.00    +0.000 C 
BRANCH  14  15
ATOM     15  S   UNL     1       2.256   7.461  19.534  0.00  0.00    +0.000 S 
BRANCH  15  16
ATOM     16  C   UNL     1       3.346   6.060  19.138  0.00  0.00    +0.000 C 
BRANCH  16  17
ATOM     17  C   UNL     1       2.561   4.770  19.075  0.00  0.00    +0.000 A 
ATOM     18  C   UNL     1       1.546   4.501  20.007  0.00  0.00    +0.000 A 
ATOM     19  C   UNL     1       0.832   3.296  19.959  0.00  0.00    +0.000 A 
ATOM     20  C   UNL     1       1.134   2.348  18.986  0.00  0.00    +0.000 A 
ATOM     21  C   UNL     1       2.146   2.605  18.072  0.00  0.00    +0.000 A 
ATOM     22  F   UNL     1       2.444   1.686  17.142  0.00  0.00    +0.000 F 
ATOM     23  C   UNL     1       2.861   3.801  18.107  0.00  0.00    +0.000 A 
ENDBRANCH  16  17
ENDBRANCH  15  16
ENDBRANCH  14  15
ENDBRANCH  13  14
ENDBRANCH   3  13
TORSDOF 6
ENDMDL
