MODEL 1
REMARK VINA RESULT:      -8.7      0.000      0.000
REMARK  Name = 
REMARK  8 active torsions:
REMARK  status: ('A' for Active; 'I' for Inactive)
REMARK    1  A    between atoms: C_1  and  O_2
REMARK    2  A    between atoms: O_2  and  C_3
REMARK    3  A    between atoms: C_6  and  S_7
REMARK    4  A    between atoms: S_7  and  N_10
REMARK    5  A    between atoms: N_10  and  C_11
REMARK    6  A    between atoms: C_13  and  C_14
REMARK    7  A    between atoms: C_21  and  C_22
REMARK    8  A    between atoms: C_29  and  C_30
REMARK                            x       y       z     vdW  Elec       q    Type
REMARK                         _______ _______ _______ _____ _____    ______ ____
ROOT
ATOM      1  C   UNL     1       4.893   4.417  19.255  0.00  0.00    +0.000 A 
ATOM      2  C   UNL     1       4.301   5.679  19.116  0.00  0.00    +0.000 A 
ATOM      3  C   UNL     1       2.950   5.894  19.437  0.00  0.00    +0.000 A 
ATOM      4  C   UNL     1       2.256   4.773  19.896  0.00  0.00    +0.000 A 
ATOM      5  N   UNL     1       2.795   3.540  20.073  0.00  0.00    +0.000 NA
ATOM      6  C   UNL     1       4.106   3.379  19.750  0.00  0.00    +0.000 A 
ENDROOT
BRANCH   3   7
ATOM      7  C   UNL     1       2.310   7.226  19.302  0.00  0.00    +0.000 A 
ATOM      8  C   UNL     1       2.288   7.892  18.065  0.00  0.00    +0.000 A 
ATOM      9  C   UNL     1       1.717   9.163  17.914  0.00  0.00    +0.000 A 
ATOM     10  C   UNL     1       1.114   9.793  19.015  0.00  0.00    +0.000 A 
ATOM     11  N   UNL     1       0.504  11.032  19.007  0.00  0.00    +0.000 NA
ATOM     12  C   UNL     1      -0.042  11.275  20.174  0.00  0.00    +0.000 A 
ATOM     13  N   UNL     1      -0.744  12.432  20.355  0.00  0.00    +0.000 N 
ATOM     14  C   UNL     1      -1.602  12.906  21.284  0.00  0.00    +0.000 C 
ATOM     15  C   UNL     1      -2.126  12.130  22.457  0.00  0.00    +0.000 C 
ATOM     16  O   UNL     1      -2.025  14.058  21.112  0.00  0.00    +0.000 OA
ATOM     17  S   UNL     1       0.272  10.125  21.383  0.00  0.00    +0.000 S 
ATOM     18  C   UNL     1       1.106   9.133  20.241  0.00  0.00    +0.000 A 
ATOM     19  C   UNL     1       1.707   7.869  20.408  0.00  0.00    +0.000 A 
ATOM     20  H   UNL     1      -0.640  13.064  19.572  0.00  0.00    +0.000 HD
ENDBRANCH   3   7
BRANCH   1  21
ATOM     21  N   UNL     1       6.269   4.264  18.905  0.00  0.00    +0.000 N 
ATOM     22  H   UNL     1       6.980   4.181  19.629  0.00  0.00    +0.000 HD
BRANCH  21  23
ATOM     23  S   UNL     1       6.829   4.832  17.420  0.00  0.00    +0.000 S 
ATOM     24  O   UNL     1       5.700   4.923  16.524  0.00  0.00    +0.000 OA
ATOM     25  O   UNL     1       8.010   4.061  17.102  0.00  0.00    +0.000 OA
BRANCH  23  29
ATOM     26  C   UNL     1       8.268   9.082  18.293  0.00  0.00    +0.000 A 
ATOM     27  C   UNL     1       7.364   8.839  17.253  0.00  0.00    +0.000 A 
ATOM     28  C   UNL     1       6.897   7.547  17.007  0.00  0.00    +0.000 A 
ATOM     29  C   UNL     1       7.375   6.487  17.782  0.00  0.00    +0.000 A 
ATOM     30  C   UNL     1       8.271   6.720  18.829  0.00  0.00    +0.000 A 
ATOM     31  C   UNL     1       8.717   8.022  19.083  0.00  0.00    +0.000 A 
BRANCH  26  33
ATOM     32  C   UNL     1       9.530  10.667  19.515  0.00  0.00    +0.000 C 
ATOM     33  O   UNL     1       8.671  10.384  18.414  0.00  0.00    +0.000 OA
ENDBRANCH  26  33
ENDBRANCH  23  29
ENDBRANCH  21  23
ENDBRANCH   1  21
BRANCH   6  34
ATOM     34  C   UNL     1       4.651   2.090  20.091  0.00  0.00    +0.000 C 
ATOM     35  N   UNL     1       5.138   1.080  20.397  0.00  0.00    +0.000 NA
ENDBRANCH   6  34
TORSDOF 6
ENDMDL
MODEL 2
REMARK VINA RESULT:      -8.4      2.456      3.654
REMARK  Name = 
REMARK  8 active torsions:
REMARK  status: ('A' for Active; 'I' for Inactive)
REMARK    1  A    between atoms: C_1  and  O_2
REMARK    2  A    between atoms: O_2  and  C_3
REMARK    3  A    between atoms: C_6  and  S_7
REMARK    4  A    between atoms: S_7  and  N_10
REMARK    5  A    between atoms: N_10  and  C_11
REMARK    6  A    between atoms: C_13  and  C_14
REMARK    7  A    between atoms: C_21  and  C_22
REMARK    8  A    between atoms: C_29  and  C_30
REMARK                            x       y       z     vdW  Elec       q    Type
REMARK                         _______ _______ _______ _____ _____    ______ ____
ROOT
ATOM      1  C   UNL     1       4.383   4.313  18.650  0.00  0.00    +0.000 A 
ATOM      2  C   UNL     1       3.978   5.646  18.791  0.00  0.00    +0.000 A 
ATOM      3  C   UNL     1       2.626   6.017  18.694  0.00  0.00    +0.000 A 
ATOM      4  C   UNL     1       1.733   4.971  18.451  0.00  0.00    +0.000 A 
ATOM      5  N   UNL     1       2.076   3.664  18.336  0.00  0.00    +0.000 NA
ATOM      6  C   UNL     1       3.395   3.351  18.438  0.00  0.00    +0.000 A 
ENDROOT
BRANCH   3   7
ATOM      7  C   UNL     1       2.181   7.424  18.847  0.00  0.00    +0.000 A 
ATOM      8  C   UNL     1       2.259   8.324  17.772  0.00  0.00    +0.000 A 
ATOM      9  C   UNL     1       1.875   9.667  17.895  0.00  0.00    +0.000 A 
ATOM     10  C   UNL     1       1.361  10.137  19.115  0.00  0.00    +0.000 A 
ATOM     11  N   UNL     1       0.932  11.424  19.372  0.00  0.00    +0.000 NA
ATOM     12  C   UNL     1       0.421  11.497  20.578  0.00  0.00    +0.000 A 
ATOM     13  N   UNL     1      -0.112  12.679  21.006  0.00  0.00    +0.000 N 
ATOM     14  C   UNL     1      -0.899  13.069  22.032  0.00  0.00    +0.000 C 
ATOM     15  C   UNL     1      -1.533  12.151  23.036  0.00  0.00    +0.000 C 
ATOM     16  O   UNL     1      -1.154  14.279  22.107  0.00  0.00    +0.000 OA
ATOM     17  S   UNL     1       0.564  10.093  21.520  0.00  0.00    +0.000 S 
ATOM     18  C   UNL     1       1.254   9.248  20.182  0.00  0.00    +0.000 A 
ATOM     19  C   UNL     1       1.670   7.905  20.074  0.00  0.00    +0.000 A 
ATOM     20  H   UNL     1       0.083  13.437  20.365  0.00  0.00    +0.000 HD
ENDBRANCH   3   7
BRANCH   1  21
ATOM     21  N   UNL     1       5.773   4.004  18.753  0.00  0.00    +0.000 N 
ATOM     22  H   UNL     1       6.127   3.476  19.548  0.00  0.00    +0.000 HD
BRANCH  21  23
ATOM     23  S   UNL     1       6.911   4.977  17.980  0.00  0.00    +0.000 S 
ATOM     24  O   UNL     1       8.226   4.515  18.363  0.00  0.00    +0.000 OA
ATOM     25  O   UNL     1       6.485   6.345  18.175  0.00  0.00    +0.000 OA
BRANCH  23  29
ATOM     26  C   UNL     1       6.347   3.960  13.559  0.00  0.00    +0.000 A 
ATOM     27  C   UNL     1       5.585   3.315  14.538  0.00  0.00    +0.000 A 
ATOM     28  C   UNL     1       5.730   3.648  15.886  0.00  0.00    +0.000 A 
ATOM     29  C   UNL     1       6.681   4.605  16.255  0.00  0.00    +0.000 A 
ATOM     30  C   UNL     1       7.440   5.263  15.285  0.00  0.00    +0.000 A 
ATOM     31  C   UNL     1       7.271   4.938  13.934  0.00  0.00    +0.000 A 
BRANCH  26  33
ATOM     32  C   UNL     1       4.768   3.402  11.888  0.00  0.00    +0.000 C 
ATOM     33  O   UNL     1       6.132   3.526  12.280  0.00  0.00    +0.000 OA
ENDBRANCH  26  33
ENDBRANCH  23  29
ENDBRANCH  21  23
ENDBRANCH   1  21
BRANCH   6  34
ATOM     34  C   UNL     1       3.676   1.939  18.448  0.00  0.00    +0.000 C 
ATOM     35  N   UNL     1       3.841   0.789  18.462  0.00  0.00    +0.000 NA
ENDBRANCH   6  34
TORSDOF 6
ENDMDL
MODEL 3
REMARK VINA RESULT:      -8.0      1.156      1.321
REMARK  Name = 
REMARK  8 active torsions:
REMARK  status: ('A' for Active; 'I' for Inactive)
REMARK    1  A    between atoms: C_1  and  O_2
REMARK    2  A    between atoms: O_2  and  C_3
REMARK    3  A    between atoms: C_6  and  S_7
REMARK    4  A    between atoms: S_7  and  N_10
REMARK    5  A    between atoms: N_10  and  C_11
REMARK    6  A    between atoms: C_13  and  C_14
REMARK    7  A    between atoms: C_21  and  C_22
REMARK    8  A    between atoms: C_29  and  C_30
REMARK                            x       y       z     vdW  Elec       q    Type
REMARK                         _______ _______ _______ _____ _____    ______ ____
ROOT
ATOM      1  C   UNL     1       3.958   4.016  18.253  0.00  0.00    +0.000 A 
ATOM      2  C   UNL     1       3.470   5.319  18.093  0.00  0.00    +0.000 A 
ATOM      3  C   UNL     1       2.802   5.985  19.134  0.00  0.00    +0.000 A 
ATOM      4  C   UNL     1       2.665   5.261  20.320  0.00  0.00    +0.000 A 
ATOM      5  N   UNL     1       3.146   4.010  20.530  0.00  0.00    +0.000 NA
ATOM      6  C   UNL     1       3.786   3.404  19.494  0.00  0.00    +0.000 A 
ENDROOT
BRANCH   3   7
ATOM      7  C   UNL     1       2.285   7.368  18.981  0.00  0.00    +0.000 A 
ATOM      8  C   UNL     1       2.409   8.051  17.760  0.00  0.00    +0.000 A 
ATOM      9  C   UNL     1       1.957   9.368  17.596  0.00  0.00    +0.000 A 
ATOM     10  C   UNL     1       1.329  10.030  18.663  0.00  0.00    +0.000 A 
ATOM     11  N   UNL     1       0.824  11.315  18.637  0.00  0.00    +0.000 NA
ATOM     12  C   UNL     1       0.217  11.585  19.767  0.00  0.00    +0.000 A 
ATOM     13  N   UNL     1      -0.399  12.794  19.921  0.00  0.00    +0.000 N 
ATOM     14  C   UNL     1      -1.282  13.325  20.796  0.00  0.00    +0.000 C 
ATOM     15  C   UNL     1      -1.953  12.578  21.912  0.00  0.00    +0.000 C 
ATOM     16  O   UNL     1      -1.594  14.510  20.618  0.00  0.00    +0.000 OA
ATOM     17  S   UNL     1       0.346  10.396  20.970  0.00  0.00    +0.000 S 
ATOM     18  C   UNL     1       1.176   9.354  19.871  0.00  0.00    +0.000 A 
ATOM     19  C   UNL     1       1.657   8.042  20.054  0.00  0.00    +0.000 A 
ATOM     20  H   UNL     1      -0.187  13.427  19.160  0.00  0.00    +0.000 HD
ENDBRANCH   3   7
BRANCH   1  21
ATOM     21  N   UNL     1       4.622   3.392  17.154  0.00  0.00    +0.000 N 
ATOM     22  H   UNL     1       4.957   2.434  17.229  0.00  0.00    +0.000 HD
BRANCH  21  23
ATOM     23  S   UNL     1       5.417   4.336  16.005  0.00  0.00    +0.000 S 
ATOM     24  O   UNL     1       4.422   5.120  15.309  0.00  0.00    +0.000 OA
ATOM     25  O   UNL     1       6.334   3.458  15.312  0.00  0.00    +0.000 OA
BRANCH  23  29
ATOM     26  C   UNL     1       7.994   7.199  18.465  0.00  0.00    +0.000 A 
ATOM     27  C   UNL     1       7.198   7.681  17.422  0.00  0.00    +0.000 A 
ATOM     28  C   UNL     1       6.383   6.814  16.691  0.00  0.00    +0.000 A 
ATOM     29  C   UNL     1       6.404   5.447  16.983  0.00  0.00    +0.000 A 
ATOM     30  C   UNL     1       7.189   4.956  18.030  0.00  0.00    +0.000 A 
ATOM     31  C   UNL     1       7.985   5.837  18.771  0.00  0.00    +0.000 A 
BRANCH  26  33
ATOM     32  C   UNL     1       8.780   9.430  18.477  0.00  0.00    +0.000 C 
ATOM     33  O   UNL     1       8.767   8.142  19.085  0.00  0.00    +0.000 OA
ENDBRANCH  26  33
ENDBRANCH  23  29
ENDBRANCH  21  23
ENDBRANCH   1  21
BRANCH   6  34
ATOM     34  C   UNL     1       4.392   2.140  19.824  0.00  0.00    +0.000 C 
ATOM     35  N   UNL     1       4.922   1.151  20.127  0.00  0.00    +0.000 NA
ENDBRANCH   6  34
TORSDOF 6
ENDMDL
MODEL 4
REMARK VINA RESULT:      -7.9      1.737      2.202
REMARK  Name = 
REMARK  8 active torsions:
REMARK  status: ('A' for Active; 'I' for Inactive)
REMARK    1  A    between atoms: C_1  and  O_2
REMARK    2  A    between atoms: O_2  and  C_3
REMARK    3  A    between atoms: C_6  and  S_7
REMARK    4  A    between atoms: S_7  and  N_10
REMARK    5  A    between atoms: N_10  and  C_11
REMARK    6  A    between atoms: C_13  and  C_14
REMARK    7  A    between atoms: C_21  and  C_22
REMARK    8  A    between atoms: C_29  and  C_30
REMARK                            x       y       z     vdW  Elec       q    Type
REMARK                         _______ _______ _______ _____ _____    ______ ____
ROOT
ATOM      1  C   UNL     1       3.384   5.078  18.353  0.00  0.00    +0.000 A 
ATOM      2  C   UNL     1       3.016   6.347  18.818  0.00  0.00    +0.000 A 
ATOM      3  C   UNL     1       2.044   6.507  19.820  0.00  0.00    +0.000 A 
ATOM      4  C   UNL     1       1.485   5.324  20.309  0.00  0.00    +0.000 A 
ATOM      5  N   UNL     1       1.831   4.075  19.910  0.00  0.00    +0.000 NA
ATOM      6  C   UNL     1       2.776   3.968  18.937  0.00  0.00    +0.000 A 
ENDROOT
BRANCH   3   7
ATOM      7  C   UNL     1       1.648   7.844  20.328  0.00  0.00    +0.000 A 
ATOM      8  C   UNL     1       1.369   8.042  21.690  0.00  0.00    +0.000 A 
ATOM      9  C   UNL     1       0.963   9.286  22.193  0.00  0.00    +0.000 A 
ATOM     10  C   UNL     1       0.860  10.388  21.330  0.00  0.00    +0.000 A 
ATOM     11  N   UNL     1       0.488  11.669  21.690  0.00  0.00    +0.000 NA
ATOM     12  C   UNL     1       0.591  12.476  20.662  0.00  0.00    +0.000 A 
ATOM     13  N   UNL     1       0.320  13.804  20.825  0.00  0.00    +0.000 N 
ATOM     14  C   UNL     1       0.528  14.929  20.106  0.00  0.00    +0.000 C 
ATOM     15  C   UNL     1       1.292  15.004  18.816  0.00  0.00    +0.000 C 
ATOM     16  O   UNL     1       0.096  15.984  20.589  0.00  0.00    +0.000 OA
ATOM     17  S   UNL     1       0.980  11.734  19.185  0.00  0.00    +0.000 S 
ATOM     18  C   UNL     1       1.159  10.212  19.982  0.00  0.00    +0.000 A 
ATOM     19  C   UNL     1       1.535   8.957  19.463  0.00  0.00    +0.000 A 
ATOM     20  H   UNL     1      -0.084  13.999  21.732  0.00  0.00    +0.000 HD
ENDBRANCH   3   7
BRANCH   1  21
ATOM     21  N   UNL     1       4.373   4.985  17.327  0.00  0.00    +0.000 N 
ATOM     22  H   UNL     1       4.102   4.786  16.366  0.00  0.00    +0.000 HD
BRANCH  21  23
ATOM     23  S   UNL     1       5.959   4.570  17.720  0.00  0.00    +0.000 S 
ATOM     24  O   UNL     1       6.536   3.889  16.584  0.00  0.00    +0.000 OA
ATOM     25  O   UNL     1       5.915   3.977  19.038  0.00  0.00    +0.000 OA
BRANCH  23  29
ATOM     26  C   UNL     1       8.081   8.602  18.091  0.00  0.00    +0.000 A 
ATOM     27  C   UNL     1       6.998   8.448  17.219  0.00  0.00    +0.000 A 
ATOM     28  C   UNL     1       6.327   7.228  17.129  0.00  0.00    +0.000 A 
ATOM     29  C   UNL     1       6.775   6.143  17.889  0.00  0.00    +0.000 A 
ATOM     30  C   UNL     1       7.849   6.288  18.770  0.00  0.00    +0.000 A 
ATOM     31  C   UNL     1       8.502   7.522  18.869  0.00  0.00    +0.000 A 
BRANCH  26  33
ATOM     32  C   UNL     1       9.256  10.268  19.292  0.00  0.00    +0.000 C 
ATOM     33  O   UNL     1       8.671   9.836  18.067  0.00  0.00    +0.000 OA
ENDBRANCH  26  33
ENDBRANCH  23  29
ENDBRANCH  21  23
ENDBRANCH   1  21
BRANCH   6  34
ATOM     34  C   UNL     1       3.198   2.619  18.659  0.00  0.00    +0.000 C 
ATOM     35  N   UNL     1       3.498   1.511  18.479  0.00  0.00    +0.000 NA
ENDBRANCH   6  34
TORSDOF 6
ENDMDL
MODEL 5
REMARK VINA RESULT:      -7.9      2.442      3.693
REMARK  Name = 
REMARK  8 active torsions:
REMARK  status: ('A' for Active; 'I' for Inactive)
REMARK    1  A    between atoms: C_1  and  O_2
REMARK    2  A    between atoms: O_2  and  C_3
REMARK    3  A    between atoms: C_6  and  S_7
REMARK    4  A    between atoms: S_7  and  N_10
REMARK    5  A    between atoms: N_10  and  C_11
REMARK    6  A    between atoms: C_13  and  C_14
REMARK    7  A    between atoms: C_21  and  C_22
REMARK    8  A    between atoms: C_29  and  C_30
REMARK                            x       y       z     vdW  Elec       q    Type
REMARK                         _______ _______ _______ _____ _____    ______ ____
ROOT
ATOM      1  C   UNL     1       4.578   4.626  19.126  0.00  0.00    +0.000 A 
ATOM      2  C   UNL     1       3.980   5.890  19.053  0.00  0.00    +0.000 A 
ATOM      3  C   UNL     1       2.728   6.144  19.638  0.00  0.00    +0.000 A 
ATOM      4  C   UNL     1       2.138   5.058  20.288  0.00  0.00    +0.000 A 
ATOM      5  N   UNL     1       2.692   3.826  20.409  0.00  0.00    +0.000 NA
ATOM      6  C   UNL     1       3.905   3.626  19.826  0.00  0.00    +0.000 A 
ENDROOT
BRANCH   3   7
ATOM      7  C   UNL     1       2.084   7.480  19.575  0.00  0.00    +0.000 A 
ATOM      8  C   UNL     1       2.098   8.229  18.387  0.00  0.00    +0.000 A 
ATOM      9  C   UNL     1       1.525   9.506  18.307  0.00  0.00    +0.000 A 
ATOM     10  C   UNL     1       0.882  10.055  19.427  0.00  0.00    +0.000 A 
ATOM     11  N   UNL     1       0.264  11.289  19.485  0.00  0.00    +0.000 NA
ATOM     12  C   UNL     1      -0.320  11.448  20.648  0.00  0.00    +0.000 A 
ATOM     13  N   UNL     1      -1.035  12.587  20.886  0.00  0.00    +0.000 N 
ATOM     14  C   UNL     1      -1.927  12.993  21.816  0.00  0.00    +0.000 C 
ATOM     15  C   UNL     1      -2.484  12.134  22.915  0.00  0.00    +0.000 C 
ATOM     16  O   UNL     1      -2.351  14.151  21.711  0.00  0.00    +0.000 OA
ATOM     17  S   UNL     1      -0.038  10.219  21.784  0.00  0.00    +0.000 S 
ATOM     18  C   UNL     1       0.838   9.312  20.604  0.00  0.00    +0.000 A 
ATOM     19  C   UNL     1       1.441   8.041  20.703  0.00  0.00    +0.000 A 
ATOM     20  H   UNL     1      -0.911  13.273  20.151  0.00  0.00    +0.000 HD
ENDBRANCH   3   7
BRANCH   1  21
ATOM     21  N   UNL     1       5.849   4.432  18.503  0.00  0.00    +0.000 N 
ATOM     22  H   UNL     1       6.527   3.788  18.904  0.00  0.00    +0.000 HD
BRANCH  21  23
ATOM     23  S   UNL     1       6.504   5.644  17.532  0.00  0.00    +0.000 S 
ATOM     24  O   UNL     1       7.905   5.771  17.865  0.00  0.00    +0.000 OA
ATOM     25  O   UNL     1       5.589   6.762  17.593  0.00  0.00    +0.000 OA
BRANCH  23  29
ATOM     26  C   UNL     1       6.210   3.981  13.284  0.00  0.00    +0.000 A 
ATOM     27  C   UNL     1       7.366   4.644  13.707  0.00  0.00    +0.000 A 
ATOM     28  C   UNL     1       7.472   5.122  15.015  0.00  0.00    +0.000 A 
ATOM     29  C   UNL     1       6.391   4.972  15.888  0.00  0.00    +0.000 A 
ATOM     30  C   UNL     1       5.235   4.303  15.479  0.00  0.00    +0.000 A 
ATOM     31  C   UNL     1       5.147   3.807  14.173  0.00  0.00    +0.000 A 
BRANCH  26  33
ATOM     32  C   UNL     1       5.707   2.280  11.719  0.00  0.00    +0.000 C 
ATOM     33  O   UNL     1       6.217   3.585  11.975  0.00  0.00    +0.000 OA
ENDBRANCH  26  33
ENDBRANCH  23  29
ENDBRANCH  21  23
ENDBRANCH   1  21
BRANCH   6  34
ATOM     34  C   UNL     1       4.500   2.345  20.109  0.00  0.00    +0.000 C 
ATOM     35  N   UNL     1       5.034   1.334  20.314  0.00  0.00    +0.000 NA
ENDBRANCH   6  34
TORSDOF 6
ENDMDL
MODEL 6
REMARK VINA RESULT:      -7.9      2.765      4.023
REMARK  Name = 
REMARK  8 active torsions:
REMARK  status: ('A' for Active; 'I' for Inactive)
REMARK    1  A    between atoms: C_1  and  O_2
REMARK    2  A    between atoms: O_2  and  C_3
REMARK    3  A    between atoms: C_6  and  S_7
REMARK    4  A    between atoms: S_7  and  N_10
REMARK    5  A    between atoms: N_10  and  C_11
REMARK    6  A    between atoms: C_13  and  C_14
REMARK    7  A    between atoms: C_21  and  C_22
REMARK    8  A    between atoms: C_29  and  C_30
REMARK                            x       y       z     vdW  Elec       q    Type
REMARK                         _______ _______ _______ _____ _____    ______ ____
ROOT
ATOM      1  C   UNL     1       3.127   5.480  18.685  0.00  0.00    +0.000 A 
ATOM      2  C   UNL     1       2.575   6.758  18.844  0.00  0.00    +0.000 A 
ATOM      3  C   UNL     1       1.867   7.113  20.004  0.00  0.00    +0.000 A 
ATOM      4  C   UNL     1       1.758   6.110  20.970  0.00  0.00    +0.000 A 
ATOM      5  N   UNL     1       2.299   4.870  20.873  0.00  0.00    +0.000 NA
ATOM      6  C   UNL     1       2.976   4.571  19.732  0.00  0.00    +0.000 A 
ENDROOT
BRANCH   3   7
ATOM      7  C   UNL     1       1.283   8.464  20.190  0.00  0.00    +0.000 A 
ATOM      8  C   UNL     1       1.446   9.459  19.211  0.00  0.00    +0.000 A 
ATOM      9  C   UNL     1       0.932  10.753  19.373  0.00  0.00    +0.000 A 
ATOM     10  C   UNL     1       0.199  11.074  20.526  0.00  0.00    +0.000 A 
ATOM     11  N   UNL     1      -0.376  12.298  20.808  0.00  0.00    +0.000 NA
ATOM     12  C   UNL     1      -1.070  12.227  21.918  0.00  0.00    +0.000 A 
ATOM     13  N   UNL     1      -1.763  13.324  22.343  0.00  0.00    +0.000 N 
ATOM     14  C   UNL     1      -2.729  13.563  23.257  0.00  0.00    +0.000 C 
ATOM     15  C   UNL     1      -3.427  12.515  24.074  0.00  0.00    +0.000 C 
ATOM     16  O   UNL     1      -3.097  14.739  23.381  0.00  0.00    +0.000 OA
ATOM     17  S   UNL     1      -0.952  10.760  22.763  0.00  0.00    +0.000 S 
ATOM     18  C   UNL     1       0.007  10.090  21.492  0.00  0.00    +0.000 A 
ATOM     19  C   UNL     1       0.549   8.796  21.352  0.00  0.00    +0.000 A 
ATOM     20  H   UNL     1      -1.538  14.148  21.800  0.00  0.00    +0.000 HD
ENDBRANCH   3   7
BRANCH   1  21
ATOM     21  N   UNL     1       3.829   5.182  17.478  0.00  0.00    +0.000 N 
ATOM     22  H   UNL     1       3.530   4.411  16.884  0.00  0.00    +0.000 HD
BRANCH  21  23
ATOM     23  S   UNL     1       5.448   5.619  17.316  0.00  0.00    +0.000 S 
ATOM     24  O   UNL     1       6.213   4.863  18.281  0.00  0.00    +0.000 OA
ATOM     25  O   UNL     1       5.482   7.064  17.262  0.00  0.00    +0.000 OA
BRANCH  23  29
ATOM     26  C   UNL     1       6.562   4.046  13.170  0.00  0.00    +0.000 A 
ATOM     27  C   UNL     1       5.293   3.801  13.704  0.00  0.00    +0.000 A 
ATOM     28  C   UNL     1       4.938   4.310  14.955  0.00  0.00    +0.000 A 
ATOM     29  C   UNL     1       5.881   5.031  15.693  0.00  0.00    +0.000 A 
ATOM     30  C   UNL     1       7.149   5.290  15.165  0.00  0.00    +0.000 A 
ATOM     31  C   UNL     1       7.488   4.795  13.900  0.00  0.00    +0.000 A 
BRANCH  26  33
ATOM     32  C   UNL     1       6.039   2.301  11.661  0.00  0.00    +0.000 C 
ATOM     33  O   UNL     1       6.796   3.472  11.951  0.00  0.00    +0.000 OA
ENDBRANCH  26  33
ENDBRANCH  23  29
ENDBRANCH  21  23
ENDBRANCH   1  21
BRANCH   6  34
ATOM     34  C   UNL     1       3.643   3.295  19.749  0.00  0.00    +0.000 C 
ATOM     35  N   UNL     1       4.156   2.253  19.706  0.00  0.00    +0.000 NA
ENDBRANCH   6  34
TORSDOF 6
ENDMDL
MODEL 7
REMARK VINA RESULT:      -7.9      2.967      4.271
REMARK  Name = 
REMARK  8 active torsions:
REMARK  status: ('A' for Active; 'I' for Inactive)
REMARK    1  A    between atoms: C_1  and  O_2
REMARK    2  A    between atoms: O_2  and  C_3
REMARK    3  A    between atoms: C_6  and  S_7
REMARK    4  A    between atoms: S_7  and  N_10
REMARK    5  A    between atoms: N_10  and  C_11
REMARK    6  A    between atoms: C_13  and  C_14
REMARK    7  A    between atoms: C_21  and  C_22
REMARK    8  A    between atoms: C_29  and  C_30
REMARK                            x       y       z     vdW  Elec       q    Type
REMARK                         _______ _______ _______ _____ _____    ______ ____
ROOT
ATOM      1  C   UNL     1       3.019   5.327  18.582  0.00  0.00    +0.000 A 
ATOM      2  C   UNL     1       2.581   6.599  18.972  0.00  0.00    +0.000 A 
ATOM      3  C   UNL     1       1.880   6.797  20.174  0.00  0.00    +0.000 A 
ATOM      4  C   UNL     1       1.660   5.648  20.937  0.00  0.00    +0.000 A 
ATOM      5  N   UNL     1       2.090   4.403  20.613  0.00  0.00    +0.000 NA
ATOM      6  C   UNL     1       2.764   4.259  19.441  0.00  0.00    +0.000 A 
ENDROOT
BRANCH   3   7
ATOM      7  C   UNL     1       1.415   8.139  20.604  0.00  0.00    +0.000 A 
ATOM      8  C   UNL     1       1.033   8.375  21.935  0.00  0.00    +0.000 A 
ATOM      9  C   UNL     1       0.561   9.624  22.363  0.00  0.00    +0.000 A 
ATOM     10  C   UNL     1       0.493  10.693  21.456  0.00  0.00    +0.000 A 
ATOM     11  N   UNL     1       0.064  11.975  21.742  0.00  0.00    +0.000 NA
ATOM     12  C   UNL     1       0.221  12.749  20.696  0.00  0.00    +0.000 A 
ATOM     13  N   UNL     1      -0.094  14.073  20.791  0.00  0.00    +0.000 N 
ATOM     14  C   UNL     1       0.137  15.179  20.050  0.00  0.00    +0.000 C 
ATOM     15  C   UNL     1       0.990  15.232  18.816  0.00  0.00    +0.000 C 
ATOM     16  O   UNL     1      -0.356  16.237  20.463  0.00  0.00    +0.000 OA
ATOM     17  S   UNL     1       0.734  11.968  19.278  0.00  0.00    +0.000 S 
ATOM     18  C   UNL     1       0.893  10.480  20.139  0.00  0.00    +0.000 A 
ATOM     19  C   UNL     1       1.337   9.218  19.694  0.00  0.00    +0.000 A 
ATOM     20  H   UNL     1      -0.567  14.288  21.660  0.00  0.00    +0.000 HD
ENDBRANCH   3   7
BRANCH   1  21
ATOM     21  N   UNL     1       3.719   5.193  17.345  0.00  0.00    +0.000 N 
ATOM     22  H   UNL     1       3.385   4.551  16.630  0.00  0.00    +0.000 HD
BRANCH  21  23
ATOM     23  S   UNL     1       5.363   5.556  17.264  0.00  0.00    +0.000 S 
ATOM     24  O   UNL     1       6.047   4.744  18.244  0.00  0.00    +0.000 OA
ATOM     25  O   UNL     1       5.467   6.999  17.246  0.00  0.00    +0.000 OA
BRANCH  23  29
ATOM     26  C   UNL     1       6.590   4.022  13.137  0.00  0.00    +0.000 A 
ATOM     27  C   UNL     1       5.304   3.779  13.630  0.00  0.00    +0.000 A 
ATOM     28  C   UNL     1       4.916   4.277  14.875  0.00  0.00    +0.000 A 
ATOM     29  C   UNL     1       5.841   4.984  15.648  0.00  0.00    +0.000 A 
ATOM     30  C   UNL     1       7.125   5.240  15.161  0.00  0.00    +0.000 A 
ATOM     31  C   UNL     1       7.498   4.756  13.902  0.00  0.00    +0.000 A 
BRANCH  26  33
ATOM     32  C   UNL     1       6.069   2.324  11.574  0.00  0.00    +0.000 C 
ATOM     33  O   UNL     1       6.857   3.459  11.919  0.00  0.00    +0.000 OA
ENDBRANCH  26  33
ENDBRANCH  23  29
ENDBRANCH  21  23
ENDBRANCH   1  21
BRANCH   6  34
ATOM     34  C   UNL     1       3.314   2.945  19.225  0.00  0.00    +0.000 C 
ATOM     35  N   UNL     1       3.811   1.912  19.032  0.00  0.00    +0.000 NA
ENDBRANCH   6  34
TORSDOF 6
ENDMDL
MODEL 8
REMARK VINA RESULT:      -7.8      1.254      1.348
REMARK  Name = 
REMARK  8 active torsions:
REMARK  status: ('A' for Active; 'I' for Inactive)
REMARK    1  A    between atoms: C_1  and  O_2
REMARK    2  A    between atoms: O_2  and  C_3
REMARK    3  A    between atoms: C_6  and  S_7
REMARK    4  A    between atoms: S_7  and  N_10
REMARK    5  A    between atoms: N_10  and  C_11
REMARK    6  A    between atoms: C_13  and  C_14
REMARK    7  A    between atoms: C_21  and  C_22
REMARK    8  A    between atoms: C_29  and  C_30
REMARK                            x       y       z     vdW  Elec       q    Type
REMARK                         _______ _______ _______ _____ _____    ______ ____
ROOT
ATOM      1  C   UNL     1       4.075   5.065  17.591  0.00  0.00    +0.000 A 
ATOM      2  C   UNL     1       3.656   6.376  17.847  0.00  0.00    +0.000 A 
ATOM      3  C   UNL     1       2.476   6.643  18.561  0.00  0.00    +0.000 A 
ATOM      4  C   UNL     1       1.765   5.520  18.988  0.00  0.00    +0.000 A 
ATOM      5  N   UNL     1       2.146   4.233  18.787  0.00  0.00    +0.000 NA
ATOM      6  C   UNL     1       3.296   4.022  18.092  0.00  0.00    +0.000 A 
ENDROOT
BRANCH   3   7
ATOM      7  C   UNL     1       2.023   8.027  18.847  0.00  0.00    +0.000 A 
ATOM      8  C   UNL     1       2.205   9.053  17.905  0.00  0.00    +0.000 A 
ATOM      9  C   UNL     1       1.815  10.375  18.159  0.00  0.00    +0.000 A 
ATOM     10  C   UNL     1       1.190  10.697  19.374  0.00  0.00    +0.000 A 
ATOM     11  N   UNL     1       0.742  11.949  19.749  0.00  0.00    +0.000 NA
ATOM     12  C   UNL     1       0.119  11.879  20.901  0.00  0.00    +0.000 A 
ATOM     13  N   UNL     1      -0.448  13.007  21.422  0.00  0.00    +0.000 N 
ATOM     14  C   UNL     1      -1.328  13.278  22.411  0.00  0.00    +0.000 C 
ATOM     15  C   UNL     1      -2.058  12.252  23.228  0.00  0.00    +0.000 C 
ATOM     16  O   UNL     1      -1.585  14.473  22.613  0.00  0.00    +0.000 OA
ATOM     17  S   UNL     1       0.167  10.367  21.670  0.00  0.00    +0.000 S 
ATOM     18  C   UNL     1       0.979   9.685  20.307  0.00  0.00    +0.000 A 
ATOM     19  C   UNL     1       1.398   8.360  20.072  0.00  0.00    +0.000 A 
ATOM     20  H   UNL     1      -0.191  13.836  20.902  0.00  0.00    +0.000 HD
ENDBRANCH   3   7
BRANCH   1  21
ATOM     21  N   UNL     1       5.280   4.862  16.853  0.00  0.00    +0.000 N 
ATOM     22  H   UNL     1       5.253   4.450  15.922  0.00  0.00    +0.000 HD
BRANCH  21  23
ATOM     23  S   UNL     1       6.746   4.687  17.667  0.00  0.00    +0.000 S 
ATOM     24  O   UNL     1       7.672   4.023  16.778  0.00  0.00    +0.000 OA
ATOM     25  O   UNL     1       6.430   4.173  18.981  0.00  0.00    +0.000 OA
BRANCH  23  29
ATOM     26  C   UNL     1       8.218   8.985  18.178  0.00  0.00    +0.000 A 
ATOM     27  C   UNL     1       7.288   8.668  17.183  0.00  0.00    +0.000 A 
ATOM     28  C   UNL     1       6.811   7.363  17.047  0.00  0.00    +0.000 A 
ATOM     29  C   UNL     1       7.306   6.362  17.888  0.00  0.00    +0.000 A 
ATOM     30  C   UNL     1       8.228   6.669  18.892  0.00  0.00    +0.000 A 
ATOM     31  C   UNL     1       8.684   7.985  19.035  0.00  0.00    +0.000 A 
BRANCH  26  33
ATOM     32  C   UNL     1       9.366  10.697  19.340  0.00  0.00    +0.000 C 
ATOM     33  O   UNL     1       8.628  10.290  18.191  0.00  0.00    +0.000 OA
ENDBRANCH  26  33
ENDBRANCH  23  29
ENDBRANCH  21  23
ENDBRANCH   1  21
BRANCH   6  34
ATOM     34  C   UNL     1       3.716   2.646  18.035  0.00  0.00    +0.000 C 
ATOM     35  N   UNL     1       4.037   1.534  17.929  0.00  0.00    +0.000 NA
ENDBRANCH   6  34
TORSDOF 6
ENDMDL
MODEL 9
REMARK VINA RESULT:      -7.8      3.324      9.778
REMARK  Name = 
REMARK  8 active torsions:
REMARK  status: ('A' for Active; 'I' for Inactive)
REMARK    1  A    between atoms: C_1  and  O_2
REMARK    2  A    between atoms: O_2  and  C_3
REMARK    3  A    between atoms: C_6  and  S_7
REMARK    4  A    between atoms: S_7  and  N_10
REMARK    5  A    between atoms: N_10  and  C_11
REMARK    6  A    between atoms: C_13  and  C_14
REMARK    7  A    between atoms: C_21  and  C_22
REMARK    8  A    between atoms: C_29  and  C_30
REMARK                            x       y       z     vdW  Elec       q    Type
REMARK                         _______ _______ _______ _____ _____    ______ ____
ROOT
ATOM      1  C   UNL     1       0.318  10.969  21.395  0.00  0.00    +0.000 A 
ATOM      2  C   UNL     1       1.012   9.920  20.781  0.00  0.00    +0.000 A 
ATOM      3  C   UNL     1       0.776   8.580  21.130  0.00  0.00    +0.000 A 
ATOM      4  C   UNL     1      -0.188   8.379  22.120  0.00  0.00    +0.000 A 
ATOM      5  N   UNL     1      -0.905   9.361  22.721  0.00  0.00    +0.000 NA
ATOM      6  C   UNL     1      -0.643  10.643  22.351  0.00  0.00    +0.000 A 
ENDROOT
BRANCH   3   7
ATOM      7  C   UNL     1       1.499   7.457  20.484  0.00  0.00    +0.000 A 
ATOM      8  C   UNL     1       1.301   6.133  20.910  0.00  0.00    +0.000 A 
ATOM      9  C   UNL     1       1.992   5.056  20.339  0.00  0.00    +0.000 A 
ATOM     10  C   UNL     1       2.889   5.283  19.283  0.00  0.00    +0.000 A 
ATOM     11  N   UNL     1       3.623   4.318  18.620  0.00  0.00    +0.000 NA
ATOM     12  C   UNL     1       4.284   4.858  17.625  0.00  0.00    +0.000 A 
ATOM     13  N   UNL     1       5.031   4.059  16.808  0.00  0.00    +0.000 N 
ATOM     14  C   UNL     1       5.631   4.196  15.606  0.00  0.00    +0.000 C 
ATOM     15  C   UNL     1       5.529   5.403  14.719  0.00  0.00    +0.000 C 
ATOM     16  O   UNL     1       6.268   3.219  15.188  0.00  0.00    +0.000 OA
ATOM     17  S   UNL     1       4.196   6.549  17.519  0.00  0.00    +0.000 S 
ATOM     18  C   UNL     1       3.076   6.587  18.833  0.00  0.00    +0.000 A 
ATOM     19  C   UNL     1       2.410   7.679  19.425  0.00  0.00    +0.000 A 
ATOM     20  H   UNL     1       5.104   3.114  17.166  0.00  0.00    +0.000 HD
ENDBRANCH   3   7
BRANCH   1  21
ATOM     21  N   UNL     1       0.610  12.310  20.999  0.00  0.00    +0.000 N 
ATOM     22  H   UNL     1       0.604  13.063  21.683  0.00  0.00    +0.000 HD
BRANCH  21  23
ATOM     23  S   UNL     1       0.350  12.793  19.405  0.00  0.00    +0.000 S 
ATOM     24  O   UNL     1       1.315  12.113  18.571  0.00  0.00    +0.000 OA
ATOM     25  O   UNL     1       0.223  14.233  19.426  0.00  0.00    +0.000 OA
BRANCH  23  29
ATOM     26  C   UNL     1      -3.783  11.138  18.368  0.00  0.00    +0.000 A 
ATOM     27  C   UNL     1      -2.638  10.617  17.758  0.00  0.00    +0.000 A 
ATOM     28  C   UNL     1      -1.372  11.097  18.099  0.00  0.00    +0.000 A 
ATOM     29  C   UNL     1      -1.260  12.138  19.025  0.00  0.00    +0.000 A 
ATOM     30  C   UNL     1      -2.398  12.659  19.647  0.00  0.00    +0.000 A 
ATOM     31  C   UNL     1      -3.661  12.156  19.316  0.00  0.00    +0.000 A 
BRANCH  26  33
ATOM     32  C   UNL     1      -6.042  11.524  17.779  0.00  0.00    +0.000 C 
ATOM     33  O   UNL     1      -4.964  10.605  17.930  0.00  0.00    +0.000 OA
ENDBRANCH  26  33
ENDBRANCH  23  29
ENDBRANCH  21  23
ENDBRANCH   1  21
BRANCH   6  34
ATOM     34  C   UNL     1      -1.531  11.623  22.921  0.00  0.00    +0.000 C 
ATOM     35  N   UNL     1      -2.291  12.369  23.387  0.00  0.00    +0.000 NA
ENDBRANCH   6  34
TORSDOF 6
ENDMDL
