MODEL 1
REMARK VINA RESULT:     -10.0      0.000      0.000
REMARK  Name = 
REMARK  9 active torsions:
REMARK  status: ('A' for Active; 'I' for Inactive)
REMARK    1  A    between atoms: C_1  and  C_2
REMARK    2  A    between atoms: N_4  and  N_5
REMARK    3  A    between atoms: N_7  and  C_8
REMARK    4  A    between atoms: C_8  and  C_9
REMARK    5  A    between atoms: C_12  and  C_13
REMARK    6  A    between atoms: C_20  and  C_21
REMARK    7  A    between atoms: C_24  and  C_25
REMARK    8  A    between atoms: C_31  and  C_32
REMARK    9  A    between atoms: C_33  and  C_34
REMARK                            x       y       z     vdW  Elec       q    Type
REMARK                         _______ _______ _______ _____ _____    ______ ____
ROOT
ATOM      1  C   UNL     1       1.417   9.429  19.323  0.00  0.00    +0.000 A 
ATOM      2  C   UNL     1       1.690   9.049  18.005  0.00  0.00    +0.000 A 
ATOM      3  C   UNL     1       2.102   7.741  17.699  0.00  0.00    +0.000 A 
ATOM      4  C   UNL     1       2.167   6.727  18.672  0.00  0.00    +0.000 A 
ATOM      5  C   UNL     1       1.891   7.130  19.994  0.00  0.00    +0.000 A 
ATOM      6  C   UNL     1       1.537   8.452  20.306  0.00  0.00    +0.000 A 
ATOM      7  F   UNL     1       1.307   8.758  21.591  0.00  0.00    +0.000 F 
ENDROOT
BRANCH   4   8
ATOM      8  C   UNL     1       2.522   5.309  18.336  0.00  0.00    +0.000 A 
ATOM      9  C   UNL     1       1.568   4.290  18.620  0.00  0.00    +0.000 A 
ATOM     10  C   UNL     1       1.816   2.936  18.371  0.00  0.00    +0.000 A 
ATOM     11 CL   UNL     1       0.601   1.763  18.694  0.00  0.00    +0.000 Cl
ATOM     12  C   UNL     1       3.034   2.532  17.858  0.00  0.00    +0.000 A 
ATOM     13  C   UNL     1       3.985   3.498  17.560  0.00  0.00    +0.000 A 
ATOM     14  F   UNL     1       5.140   3.061  17.035  0.00  0.00    +0.000 F 
ATOM     15  C   UNL     1       3.753   4.878  17.756  0.00  0.00    +0.000 A 
BRANCH  15  16
ATOM     16  C   UNL     1       4.800   5.783  17.287  0.00  0.00    +0.000 A 
ATOM     17  N   UNL     1       4.985   6.127  16.001  0.00  0.00    +0.000 NA
ATOM     18  O   UNL     1       6.089   6.973  16.033  0.00  0.00    +0.000 OA
ATOM     19  C   UNL     1       6.507   7.012  17.328  0.00  0.00    +0.000 A 
ATOM     20  C   UNL     1       7.756   7.738  17.608  0.00  0.00    +0.000 C 
ATOM     21  N   UNL     1       5.736   6.330  18.141  0.00  0.00    +0.000 NA
ENDBRANCH  15  16
ENDBRANCH   4   8
BRANCH   1  22
ATOM     22  C   UNL     1       0.985  10.843  19.656  0.00  0.00    +0.000 C 
BRANCH  22  25
ATOM     23  N   UNL     1      -2.462  12.184  19.195  0.00  0.00    +0.000 N 
ATOM     24  C   UNL     1      -1.297  11.684  19.770  0.00  0.00    +0.000 A 
ATOM     25  N   UNL     1      -0.301  11.122  19.031  0.00  0.00    +0.000 N 
ATOM     26  N   UNL     1      -1.330  11.849  21.073  0.00  0.00    +0.000 NA
ATOM     27  C   UNL     1      -2.558  12.402  21.364  0.00  0.00    +0.000 A 
ATOM     28  C   UNL     1      -2.937  12.708  22.763  0.00  0.00    +0.000 C 
ATOM     29  C   UNL     1      -3.315  12.541  20.207  0.00  0.00    +0.000 A 
ATOM     30  C   UNL     1      -4.737  12.961  20.067  0.00  0.00    +0.000 C 
ATOM     31  H   UNL     1      -0.179  11.554  18.114  0.00  0.00    +0.000 HD
BRANCH  23  35
ATOM     32  C   UNL     1      -3.551  11.043  15.833  0.00  0.00    +0.000 C 
ATOM     33  C   UNL     1      -3.139  10.900  17.275  0.00  0.00    +0.000 C 
ATOM     34  O   UNL     1      -3.131   9.796  17.811  0.00  0.00    +0.000 OA
ATOM     35  N   UNL     1      -2.857  12.102  17.886  0.00  0.00    +0.000 N 
ATOM     36  H   UNL     1      -2.644  12.911  17.326  0.00  0.00    +0.000 HD
ENDBRANCH  23  35
ENDBRANCH  22  25
ENDBRANCH   1  22
TORSDOF 5
ENDMDL
MODEL 2
REMARK VINA RESULT:      -9.7      1.363      1.423
REMARK  Name = 
REMARK  9 active torsions:
REMARK  status: ('A' for Active; 'I' for Inactive)
REMARK    1  A    between atoms: C_1  and  C_2
REMARK    2  A    between atoms: N_4  and  N_5
REMARK    3  A    between atoms: N_7  and  C_8
REMARK    4  A    between atoms: C_8  and  C_9
REMARK    5  A    between atoms: C_12  and  C_13
REMARK    6  A    between atoms: C_20  and  C_21
REMARK    7  A    between atoms: C_24  and  C_25
REMARK    8  A    between atoms: C_31  and  C_32
REMARK    9  A    between atoms: C_33  and  C_34
REMARK                            x       y       z     vdW  Elec       q    Type
REMARK                         _______ _______ _______ _____ _____    ______ ____
ROOT
ATOM      1  C   UNL     1       1.398   9.729  19.168  0.00  0.00    +0.000 A 
ATOM      2  C   UNL     1       2.051   9.010  18.163  0.00  0.00    +0.000 A 
ATOM      3  C   UNL     1       2.495   7.696  18.384  0.00  0.00    +0.000 A 
ATOM      4  C   UNL     1       2.224   7.002  19.578  0.00  0.00    +0.000 A 
ATOM      5  C   UNL     1       1.568   7.744  20.580  0.00  0.00    +0.000 A 
ATOM      6  C   UNL     1       1.177   9.078  20.378  0.00  0.00    +0.000 A 
ATOM      7  F   UNL     1       0.573   9.719  21.388  0.00  0.00    +0.000 F 
ENDROOT
BRANCH   4   8
ATOM      8  C   UNL     1       2.619   5.570  19.786  0.00  0.00    +0.000 A 
ATOM      9  C   UNL     1       1.818   4.768  20.648  0.00  0.00    +0.000 A 
ATOM     10  C   UNL     1       2.119   3.431  20.928  0.00  0.00    +0.000 A 
ATOM     11 CL   UNL     1       1.081   2.507  21.940  0.00  0.00    +0.000 Cl
ATOM     12  C   UNL     1       3.247   2.842  20.390  0.00  0.00    +0.000 A 
ATOM     13  C   UNL     1       4.048   3.590  19.538  0.00  0.00    +0.000 A 
ATOM     14  F   UNL     1       5.115   2.966  19.015  0.00  0.00    +0.000 F 
ATOM     15  C   UNL     1       3.749   4.929  19.196  0.00  0.00    +0.000 A 
BRANCH  15  16
ATOM     16  C   UNL     1       4.617   5.549  18.197  0.00  0.00    +0.000 A 
ATOM     17  N   UNL     1       4.463   5.413  16.869  0.00  0.00    +0.000 NA
ATOM     18  O   UNL     1       5.512   6.149  16.330  0.00  0.00    +0.000 OA
ATOM     19  C   UNL     1       6.240   6.611  17.383  0.00  0.00    +0.000 A 
ATOM     20  C   UNL     1       7.496   7.313  17.074  0.00  0.00    +0.000 C 
ATOM     21  N   UNL     1       5.720   6.302  18.547  0.00  0.00    +0.000 NA
ENDBRANCH  15  16
ENDBRANCH   4   8
BRANCH   1  22
ATOM     22  C   UNL     1       0.931  11.152  18.936  0.00  0.00    +0.000 C 
BRANCH  22  25
ATOM     23  N   UNL     1      -2.630  11.828  18.066  0.00  0.00    +0.000 N 
ATOM     24  C   UNL     1      -1.458  11.598  18.780  0.00  0.00    +0.000 A 
ATOM     25  N   UNL     1      -0.321  11.140  18.189  0.00  0.00    +0.000 N 
ATOM     26  N   UNL     1      -1.638  11.890  20.049  0.00  0.00    +0.000 NA
ATOM     27  C   UNL     1      -2.960  12.253  20.182  0.00  0.00    +0.000 A 
ATOM     28  C   UNL     1      -3.512  12.634  21.502  0.00  0.00    +0.000 C 
ATOM     29  C   UNL     1      -3.619  12.138  18.964  0.00  0.00    +0.000 A 
ATOM     30  C   UNL     1      -5.072  12.292  18.670  0.00  0.00    +0.000 C 
ATOM     31  H   UNL     1      -0.185  11.488  17.239  0.00  0.00    +0.000 HD
BRANCH  23  35
ATOM     32  C   UNL     1      -3.378  10.180  14.824  0.00  0.00    +0.000 C 
ATOM     33  C   UNL     1      -3.125  10.263  16.307  0.00  0.00    +0.000 C 
ATOM     34  O   UNL     1      -3.200   9.257  17.006  0.00  0.00    +0.000 OA
ATOM     35  N   UNL     1      -2.884  11.544  16.751  0.00  0.00    +0.000 N 
ATOM     36  H   UNL     1      -2.594  12.255  16.098  0.00  0.00    +0.000 HD
ENDBRANCH  23  35
ENDBRANCH  22  25
ENDBRANCH   1  22
TORSDOF 5
ENDMDL
MODEL 3
REMARK VINA RESULT:      -9.7      2.471      3.328
REMARK  Name = 
REMARK  9 active torsions:
REMARK  status: ('A' for Active; 'I' for Inactive)
REMARK    1  A    between atoms: C_1  and  C_2
REMARK    2  A    between atoms: N_4  and  N_5
REMARK    3  A    between atoms: N_7  and  C_8
REMARK    4  A    between atoms: C_8  and  C_9
REMARK    5  A    between atoms: C_12  and  C_13
REMARK    6  A    between atoms: C_20  and  C_21
REMARK    7  A    between atoms: C_24  and  C_25
REMARK    8  A    between atoms: C_31  and  C_32
REMARK    9  A    between atoms: C_33  and  C_34
REMARK                            x       y       z     vdW  Elec       q    Type
REMARK                         _______ _______ _______ _____ _____    ______ ____
ROOT
ATOM      1  C   UNL     1       1.501   9.131  19.424  0.00  0.00    +0.000 A 
ATOM      2  C   UNL     1       1.913   9.188  18.089  0.00  0.00    +0.000 A 
ATOM      3  C   UNL     1       2.674   8.153  17.521  0.00  0.00    +0.000 A 
ATOM      4  C   UNL     1       2.978   6.972  18.223  0.00  0.00    +0.000 A 
ATOM      5  C   UNL     1       2.557   6.934  19.567  0.00  0.00    +0.000 A 
ATOM      6  C   UNL     1       1.847   7.995  20.151  0.00  0.00    +0.000 A 
ATOM      7  F   UNL     1       1.499   7.889  21.441  0.00  0.00    +0.000 F 
ENDROOT
BRANCH   4   8
ATOM      8  C   UNL     1       3.716   5.827  17.593  0.00  0.00    +0.000 A 
ATOM      9  C   UNL     1       4.775   6.124  16.688  0.00  0.00    +0.000 A 
ATOM     10  C   UNL     1       5.503   5.129  16.029  0.00  0.00    +0.000 A 
ATOM     11 CL   UNL     1       6.801   5.557  14.987  0.00  0.00    +0.000 Cl
ATOM     12  C   UNL     1       5.190   3.796  16.214  0.00  0.00    +0.000 A 
ATOM     13  C   UNL     1       4.169   3.467  17.096  0.00  0.00    +0.000 A 
ATOM     14  F   UNL     1       3.922   2.159  17.267  0.00  0.00    +0.000 F 
ATOM     15  C   UNL     1       3.443   4.444  17.814  0.00  0.00    +0.000 A 
BRANCH  15  16
ATOM     16  C   UNL     1       2.479   3.943  18.792  0.00  0.00    +0.000 A 
ATOM     17  N   UNL     1       1.149   3.921  18.604  0.00  0.00    +0.000 NA
ATOM     18  O   UNL     1       0.649   3.389  19.788  0.00  0.00    +0.000 OA
ATOM     19  C   UNL     1       1.720   3.198  20.607  0.00  0.00    +0.000 A 
ATOM     20  C   UNL     1       1.440   2.767  21.986  0.00  0.00    +0.000 C 
ATOM     21  N   UNL     1       2.865   3.488  20.037  0.00  0.00    +0.000 NA
ENDBRANCH  15  16
ENDBRANCH   4   8
BRANCH   1  22
ATOM     22  C   UNL     1       0.690  10.253  20.042  0.00  0.00    +0.000 C 
BRANCH  22  25
ATOM     23  N   UNL     1      -2.424  11.892  18.814  0.00  0.00    +0.000 N 
ATOM     24  C   UNL     1      -1.457  11.328  19.641  0.00  0.00    +0.000 A 
ATOM     25  N   UNL     1      -0.411  10.605  19.156  0.00  0.00    +0.000 N 
ATOM     26  N   UNL     1      -1.720  11.610  20.898  0.00  0.00    +0.000 NA
ATOM     27  C   UNL     1      -2.907  12.308  20.901  0.00  0.00    +0.000 A 
ATOM     28  C   UNL     1      -3.508  12.772  22.172  0.00  0.00    +0.000 C 
ATOM     29  C   UNL     1      -3.406  12.421  19.610  0.00  0.00    +0.000 A 
ATOM     30  C   UNL     1      -4.717  12.971  19.160  0.00  0.00    +0.000 C 
ATOM     31  H   UNL     1      -0.066  10.940  18.255  0.00  0.00    +0.000 HD
BRANCH  23  35
ATOM     32  C   UNL     1      -3.000  10.584  15.386  0.00  0.00    +0.000 C 
ATOM     33  C   UNL     1      -2.896  10.528  16.888  0.00  0.00    +0.000 C 
ATOM     34  O   UNL     1      -3.150   9.488  17.489  0.00  0.00    +0.000 OA
ATOM     35  N   UNL     1      -2.568  11.737  17.461  0.00  0.00    +0.000 N 
ATOM     36  H   UNL     1      -2.137  12.455  16.902  0.00  0.00    +0.000 HD
ENDBRANCH  23  35
ENDBRANCH  22  25
ENDBRANCH   1  22
TORSDOF 5
ENDMDL
MODEL 4
REMARK VINA RESULT:      -9.6      1.544      1.746
REMARK  Name = 
REMARK  9 active torsions:
REMARK  status: ('A' for Active; 'I' for Inactive)
REMARK    1  A    between atoms: C_1  and  C_2
REMARK    2  A    between atoms: N_4  and  N_5
REMARK    3  A    between atoms: N_7  and  C_8
REMARK    4  A    between atoms: C_8  and  C_9
REMARK    5  A    between atoms: C_12  and  C_13
REMARK    6  A    between atoms: C_20  and  C_21
REMARK    7  A    between atoms: C_24  and  C_25
REMARK    8  A    between atoms: C_31  and  C_32
REMARK    9  A    between atoms: C_33  and  C_34
REMARK                            x       y       z     vdW  Elec       q    Type
REMARK                         _______ _______ _______ _____ _____    ______ ____
ROOT
ATOM      1  C   UNL     1       1.421   9.591  19.305  0.00  0.00    +0.000 A 
ATOM      2  C   UNL     1       1.237   8.968  20.544  0.00  0.00    +0.000 A 
ATOM      3  C   UNL     1       1.553   7.612  20.726  0.00  0.00    +0.000 A 
ATOM      4  C   UNL     1       2.155   6.838  19.717  0.00  0.00    +0.000 A 
ATOM      5  C   UNL     1       2.329   7.481  18.475  0.00  0.00    +0.000 A 
ATOM      6  C   UNL     1       1.958   8.821  18.278  0.00  0.00    +0.000 A 
ATOM      7  F   UNL     1       2.140   9.354  17.061  0.00  0.00    +0.000 F 
ENDROOT
BRANCH   4   8
ATOM      8  C   UNL     1       2.574   5.414  19.934  0.00  0.00    +0.000 A 
ATOM      9  C   UNL     1       1.785   4.604  20.801  0.00  0.00    +0.000 A 
ATOM     10  C   UNL     1       2.108   3.274  21.090  0.00  0.00    +0.000 A 
ATOM     11 CL   UNL     1       1.084   2.340  22.107  0.00  0.00    +0.000 Cl
ATOM     12  C   UNL     1       3.247   2.701  20.558  0.00  0.00    +0.000 A 
ATOM     13  C   UNL     1       4.037   3.457  19.702  0.00  0.00    +0.000 A 
ATOM     14  F   UNL     1       5.115   2.848  19.184  0.00  0.00    +0.000 F 
ATOM     15  C   UNL     1       3.716   4.788  19.351  0.00  0.00    +0.000 A 
BRANCH  15  16
ATOM     16  C   UNL     1       4.575   5.416  18.349  0.00  0.00    +0.000 A 
ATOM     17  N   UNL     1       4.377   5.336  17.023  0.00  0.00    +0.000 NA
ATOM     18  O   UNL     1       5.435   6.056  16.479  0.00  0.00    +0.000 OA
ATOM     19  C   UNL     1       6.209   6.454  17.525  0.00  0.00    +0.000 A 
ATOM     20  C   UNL     1       7.478   7.124  17.204  0.00  0.00    +0.000 C 
ATOM     21  N   UNL     1       5.712   6.118  18.692  0.00  0.00    +0.000 NA
ENDBRANCH  15  16
ENDBRANCH   4   8
BRANCH   1  22
ATOM     22  C   UNL     1       1.068  11.051  19.103  0.00  0.00    +0.000 C 
BRANCH  22  25
ATOM     23  N   UNL     1      -2.504  11.987  18.597  0.00  0.00    +0.000 N 
ATOM     24  C   UNL     1      -1.291  11.647  19.189  0.00  0.00    +0.000 A 
ATOM     25  N   UNL     1      -0.242  11.155  18.474  0.00  0.00    +0.000 N 
ATOM     26  N   UNL     1      -1.339  11.880  20.481  0.00  0.00    +0.000 NA
ATOM     27  C   UNL     1      -2.618  12.314  20.752  0.00  0.00    +0.000 A 
ATOM     28  C   UNL     1      -3.025  12.655  22.135  0.00  0.00    +0.000 C 
ATOM     29  C   UNL     1      -3.388  12.306  19.595  0.00  0.00    +0.000 A 
ATOM     30  C   UNL     1      -4.848  12.564  19.444  0.00  0.00    +0.000 C 
ATOM     31  H   UNL     1      -0.169  11.546  17.534  0.00  0.00    +0.000 HD
BRANCH  23  35
ATOM     32  C   UNL     1      -3.630  10.564  15.357  0.00  0.00    +0.000 C 
ATOM     33  C   UNL     1      -3.241  10.550  16.812  0.00  0.00    +0.000 C 
ATOM     34  O   UNL     1      -3.307   9.511  17.461  0.00  0.00    +0.000 OA
ATOM     35  N   UNL     1      -2.891  11.791  17.298  0.00  0.00    +0.000 N 
ATOM     36  H   UNL     1      -2.623  12.522  16.659  0.00  0.00    +0.000 HD
ENDBRANCH  23  35
ENDBRANCH  22  25
ENDBRANCH   1  22
TORSDOF 5
ENDMDL
MODEL 5
REMARK VINA RESULT:      -9.6      1.141      1.295
REMARK  Name = 
REMARK  9 active torsions:
REMARK  status: ('A' for Active; 'I' for Inactive)
REMARK    1  A    between atoms: C_1  and  C_2
REMARK    2  A    between atoms: N_4  and  N_5
REMARK    3  A    between atoms: N_7  and  C_8
REMARK    4  A    between atoms: C_8  and  C_9
REMARK    5  A    between atoms: C_12  and  C_13
REMARK    6  A    between atoms: C_20  and  C_21
REMARK    7  A    between atoms: C_24  and  C_25
REMARK    8  A    between atoms: C_31  and  C_32
REMARK    9  A    between atoms: C_33  and  C_34
REMARK                            x       y       z     vdW  Elec       q    Type
REMARK                         _______ _______ _______ _____ _____    ______ ____
ROOT
ATOM      1  C   UNL     1       1.923   9.385  18.734  0.00  0.00    +0.000 A 
ATOM      2  C   UNL     1       2.390   8.710  17.602  0.00  0.00    +0.000 A 
ATOM      3  C   UNL     1       2.701   7.341  17.651  0.00  0.00    +0.000 A 
ATOM      4  C   UNL     1       2.469   6.559  18.797  0.00  0.00    +0.000 A 
ATOM      5  C   UNL     1       2.001   7.256  19.929  0.00  0.00    +0.000 A 
ATOM      6  C   UNL     1       1.747   8.637  19.894  0.00  0.00    +0.000 A 
ATOM      7  F   UNL     1       1.321   9.229  21.019  0.00  0.00    +0.000 F 
ENDROOT
BRANCH   4   8
ATOM      8  C   UNL     1       2.717   5.079  18.828  0.00  0.00    +0.000 A 
ATOM      9  C   UNL     1       1.591   4.207  18.800  0.00  0.00    +0.000 A 
ATOM     10  C   UNL     1       1.717   2.815  18.853  0.00  0.00    +0.000 A 
ATOM     11 CL   UNL     1       0.318   1.819  18.766  0.00  0.00    +0.000 Cl
ATOM     12  C   UNL     1       2.963   2.230  18.970  0.00  0.00    +0.000 A 
ATOM     13  C   UNL     1       4.084   3.048  18.991  0.00  0.00    +0.000 A 
ATOM     14  F   UNL     1       5.274   2.434  19.074  0.00  0.00    +0.000 F 
ATOM     15  C   UNL     1       3.999   4.455  18.893  0.00  0.00    +0.000 A 
BRANCH  15  16
ATOM     16  C   UNL     1       5.268   5.176  18.810  0.00  0.00    +0.000 A 
ATOM     17  N   UNL     1       6.186   5.209  19.790  0.00  0.00    +0.000 NA
ATOM     18  O   UNL     1       7.196   6.017  19.279  0.00  0.00    +0.000 OA
ATOM     19  C   UNL     1       6.766   6.448  18.062  0.00  0.00    +0.000 A 
ATOM     20  C   UNL     1       7.604   7.438  17.367  0.00  0.00    +0.000 C 
ATOM     21  N   UNL     1       5.610   5.938  17.712  0.00  0.00    +0.000 NA
ENDBRANCH  15  16
ENDBRANCH   4   8
BRANCH   1  22
ATOM     22  C   UNL     1       1.600  10.865  18.686  0.00  0.00    +0.000 C 
BRANCH  22  25
ATOM     23  N   UNL     1      -1.966  11.940  18.547  0.00  0.00    +0.000 N 
ATOM     24  C   UNL     1      -0.722  11.521  19.010  0.00  0.00    +0.000 A 
ATOM     25  N   UNL     1       0.248  11.054  18.177  0.00  0.00    +0.000 N 
ATOM     26  N   UNL     1      -0.658  11.657  20.316  0.00  0.00    +0.000 NA
ATOM     27  C   UNL     1      -1.895  12.106  20.722  0.00  0.00    +0.000 A 
ATOM     28  C   UNL     1      -2.177  12.352  22.155  0.00  0.00    +0.000 C 
ATOM     29  C   UNL     1      -2.755  12.208  19.636  0.00  0.00    +0.000 A 
ATOM     30  C   UNL     1      -4.212  12.518  19.625  0.00  0.00    +0.000 C 
ATOM     31  H   UNL     1       0.260  11.513  17.265  0.00  0.00    +0.000 HD
BRANCH  23  35
ATOM     32  C   UNL     1      -3.434  10.808  15.329  0.00  0.00    +0.000 C 
ATOM     33  C   UNL     1      -2.939  10.674  16.746  0.00  0.00    +0.000 C 
ATOM     34  O   UNL     1      -3.033   9.603  17.337  0.00  0.00    +0.000 OA
ATOM     35  N   UNL     1      -2.463  11.854  17.274  0.00  0.00    +0.000 N 
ATOM     36  H   UNL     1      -2.189  12.604  16.659  0.00  0.00    +0.000 HD
ENDBRANCH  23  35
ENDBRANCH  22  25
ENDBRANCH   1  22
TORSDOF 5
ENDMDL
MODEL 6
REMARK VINA RESULT:      -9.5      2.570      3.509
REMARK  Name = 
REMARK  9 active torsions:
REMARK  status: ('A' for Active; 'I' for Inactive)
REMARK    1  A    between atoms: C_1  and  C_2
REMARK    2  A    between atoms: N_4  and  N_5
REMARK    3  A    between atoms: N_7  and  C_8
REMARK    4  A    between atoms: C_8  and  C_9
REMARK    5  A    between atoms: C_12  and  C_13
REMARK    6  A    between atoms: C_20  and  C_21
REMARK    7  A    between atoms: C_24  and  C_25
REMARK    8  A    between atoms: C_31  and  C_32
REMARK    9  A    between atoms: C_33  and  C_34
REMARK                            x       y       z     vdW  Elec       q    Type
REMARK                         _______ _______ _______ _____ _____    ______ ____
ROOT
ATOM      1  C   UNL     1       1.513   9.087  19.526  0.00  0.00    +0.000 A 
ATOM      2  C   UNL     1       1.777   7.910  20.233  0.00  0.00    +0.000 A 
ATOM      3  C   UNL     1       2.425   6.826  19.618  0.00  0.00    +0.000 A 
ATOM      4  C   UNL     1       2.927   6.896  18.306  0.00  0.00    +0.000 A 
ATOM      5  C   UNL     1       2.649   8.089  17.609  0.00  0.00    +0.000 A 
ATOM      6  C   UNL     1       1.949   9.150  18.206  0.00  0.00    +0.000 A 
ATOM      7  F   UNL     1       1.709  10.243  17.469  0.00  0.00    +0.000 F 
ENDROOT
BRANCH   4   8
ATOM      8  C   UNL     1       3.696   5.773  17.675  0.00  0.00    +0.000 A 
ATOM      9  C   UNL     1       4.772   6.101  16.802  0.00  0.00    +0.000 A 
ATOM     10  C   UNL     1       5.530   5.126  16.143  0.00  0.00    +0.000 A 
ATOM     11 CL   UNL     1       6.847   5.591  15.140  0.00  0.00    +0.000 Cl
ATOM     12  C   UNL     1       5.231   3.787  16.298  0.00  0.00    +0.000 A 
ATOM     13  C   UNL     1       4.194   3.429  17.149  0.00  0.00    +0.000 A 
ATOM     14  F   UNL     1       3.962   2.115  17.292  0.00  0.00    +0.000 F 
ATOM     15  C   UNL     1       3.437   4.383  17.866  0.00  0.00    +0.000 A 
BRANCH  15  16
ATOM     16  C   UNL     1       2.458   3.852  18.811  0.00  0.00    +0.000 A 
ATOM     17  N   UNL     1       1.137   3.785  18.577  0.00  0.00    +0.000 NA
ATOM     18  O   UNL     1       0.614   3.239  19.745  0.00  0.00    +0.000 OA
ATOM     19  C   UNL     1       1.661   3.085  20.601  0.00  0.00    +0.000 A 
ATOM     20  C   UNL     1       1.348   2.648  21.971  0.00  0.00    +0.000 C 
ATOM     21  N   UNL     1       2.815   3.413  20.070  0.00  0.00    +0.000 NA
ENDBRANCH  15  16
ENDBRANCH   4   8
BRANCH   1  22
ATOM     22  C   UNL     1       0.802  10.253  20.184  0.00  0.00    +0.000 C 
BRANCH  22  25
ATOM     23  N   UNL     1      -2.325  12.003  19.158  0.00  0.00    +0.000 N 
ATOM     24  C   UNL     1      -1.337  11.386  19.920  0.00  0.00    +0.000 A 
ATOM     25  N   UNL     1      -0.327  10.664  19.361  0.00  0.00    +0.000 N 
ATOM     26  N   UNL     1      -1.542  11.618  21.197  0.00  0.00    +0.000 NA
ATOM     27  C   UNL     1      -2.713  12.338  21.280  0.00  0.00    +0.000 A 
ATOM     28  C   UNL     1      -3.252  12.758  22.594  0.00  0.00    +0.000 C 
ATOM     29  C   UNL     1      -3.263  12.517  20.016  0.00  0.00    +0.000 A 
ATOM     30  C   UNL     1      -4.578  13.110  19.646  0.00  0.00    +0.000 C 
ATOM     31  H   UNL     1      -0.012  11.031  18.461  0.00  0.00    +0.000 HD
BRANCH  23  35
ATOM     32  C   UNL     1      -3.035  10.848  15.701  0.00  0.00    +0.000 C 
ATOM     33  C   UNL     1      -2.862  10.723  17.193  0.00  0.00    +0.000 C 
ATOM     34  O   UNL     1      -3.072   9.652  17.753  0.00  0.00    +0.000 OA
ATOM     35  N   UNL     1      -2.527  11.909  17.807  0.00  0.00    +0.000 N 
ATOM     36  H   UNL     1      -2.134  12.662  17.264  0.00  0.00    +0.000 HD
ENDBRANCH  23  35
ENDBRANCH  22  25
ENDBRANCH   1  22
TORSDOF 5
ENDMDL
MODEL 7
REMARK VINA RESULT:      -9.4      0.818      1.155
REMARK  Name = 
REMARK  9 active torsions:
REMARK  status: ('A' for Active; 'I' for Inactive)
REMARK    1  A    between atoms: C_1  and  C_2
REMARK    2  A    between atoms: N_4  and  N_5
REMARK    3  A    between atoms: N_7  and  C_8
REMARK    4  A    between atoms: C_8  and  C_9
REMARK    5  A    between atoms: C_12  and  C_13
REMARK    6  A    between atoms: C_20  and  C_21
REMARK    7  A    between atoms: C_24  and  C_25
REMARK    8  A    between atoms: C_31  and  C_32
REMARK    9  A    between atoms: C_33  and  C_34
REMARK                            x       y       z     vdW  Elec       q    Type
REMARK                         _______ _______ _______ _____ _____    ______ ____
ROOT
ATOM      1  C   UNL     1       1.468   9.226  19.527  0.00  0.00    +0.000 A 
ATOM      2  C   UNL     1       1.475   8.196  20.473  0.00  0.00    +0.000 A 
ATOM      3  C   UNL     1       1.801   6.880  20.107  0.00  0.00    +0.000 A 
ATOM      4  C   UNL     1       2.230   6.544  18.809  0.00  0.00    +0.000 A 
ATOM      5  C   UNL     1       2.213   7.595  17.870  0.00  0.00    +0.000 A 
ATOM      6  C   UNL     1       1.830   8.898  18.224  0.00  0.00    +0.000 A 
ATOM      7  F   UNL     1       1.824   9.837  17.267  0.00  0.00    +0.000 F 
ENDROOT
BRANCH   4   8
ATOM      8  C   UNL     1       2.663   5.157  18.437  0.00  0.00    +0.000 A 
ATOM      9  C   UNL     1       1.778   4.077  18.718  0.00  0.00    +0.000 A 
ATOM     10  C   UNL     1       2.102   2.746  18.435  0.00  0.00    +0.000 A 
ATOM     11 CL   UNL     1       0.968   1.495  18.757  0.00  0.00    +0.000 Cl
ATOM     12  C   UNL     1       3.332   2.427  17.891  0.00  0.00    +0.000 A 
ATOM     13  C   UNL     1       4.217   3.455  17.595  0.00  0.00    +0.000 A 
ATOM     14  F   UNL     1       5.385   3.099  17.038  0.00  0.00    +0.000 F 
ATOM     15  C   UNL     1       3.905   4.814  17.824  0.00  0.00    +0.000 A 
BRANCH  15  16
ATOM     16  C   UNL     1       4.886   5.790  17.353  0.00  0.00    +0.000 A 
ATOM     17  N   UNL     1       4.966   6.234  16.088  0.00  0.00    +0.000 NA
ATOM     18  O   UNL     1       6.042   7.117  16.108  0.00  0.00    +0.000 OA
ATOM     19  C   UNL     1       6.550   7.076  17.370  0.00  0.00    +0.000 A 
ATOM     20  C   UNL     1       7.791   7.827  17.617  0.00  0.00    +0.000 C 
ATOM     21  N   UNL     1       5.862   6.308  18.180  0.00  0.00    +0.000 NA
ENDBRANCH  15  16
ENDBRANCH   4   8
BRANCH   1  22
ATOM     22  C   UNL     1       1.103  10.645  19.917  0.00  0.00    +0.000 C 
BRANCH  22  25
ATOM     23  N   UNL     1      -2.237  12.222  19.414  0.00  0.00    +0.000 N 
ATOM     24  C   UNL     1      -1.122  11.632  20.001  0.00  0.00    +0.000 A 
ATOM     25  N   UNL     1      -0.147  11.023  19.271  0.00  0.00    +0.000 N 
ATOM     26  N   UNL     1      -1.175  11.768  21.307  0.00  0.00    +0.000 NA
ATOM     27  C   UNL     1      -2.370  12.394  21.585  0.00  0.00    +0.000 A 
ATOM     28  C   UNL     1      -2.762  12.690  22.982  0.00  0.00    +0.000 C 
ATOM     29  C   UNL     1      -3.088  12.610  20.416  0.00  0.00    +0.000 A 
ATOM     30  C   UNL     1      -4.476  13.128  20.254  0.00  0.00    +0.000 C 
ATOM     31  H   UNL     1       0.026  11.468  18.368  0.00  0.00    +0.000 HD
BRANCH  23  35
ATOM     32  C   UNL     1      -3.259  11.233  15.984  0.00  0.00    +0.000 C 
ATOM     33  C   UNL     1      -2.878  11.026  17.426  0.00  0.00    +0.000 C 
ATOM     34  O   UNL     1      -2.885   9.900  17.914  0.00  0.00    +0.000 OA
ATOM     35  N   UNL     1      -2.604  12.199  18.094  0.00  0.00    +0.000 N 
ATOM     36  H   UNL     1      -2.376  13.031  17.574  0.00  0.00    +0.000 HD
ENDBRANCH  23  35
ENDBRANCH  22  25
ENDBRANCH   1  22
TORSDOF 5
ENDMDL
MODEL 8
REMARK VINA RESULT:      -9.2      3.138      4.090
REMARK  Name = 
REMARK  9 active torsions:
REMARK  status: ('A' for Active; 'I' for Inactive)
REMARK    1  A    between atoms: C_1  and  C_2
REMARK    2  A    between atoms: N_4  and  N_5
REMARK    3  A    between atoms: N_7  and  C_8
REMARK    4  A    between atoms: C_8  and  C_9
REMARK    5  A    between atoms: C_12  and  C_13
REMARK    6  A    between atoms: C_20  and  C_21
REMARK    7  A    between atoms: C_24  and  C_25
REMARK    8  A    between atoms: C_31  and  C_32
REMARK    9  A    between atoms: C_33  and  C_34
REMARK                            x       y       z     vdW  Elec       q    Type
REMARK                         _______ _______ _______ _____ _____    ______ ____
ROOT
ATOM      1  C   UNL     1       1.447   9.765  19.224  0.00  0.00    +0.000 A 
ATOM      2  C   UNL     1       1.670   9.343  17.909  0.00  0.00    +0.000 A 
ATOM      3  C   UNL     1       2.068   8.025  17.629  0.00  0.00    +0.000 A 
ATOM      4  C   UNL     1       2.168   7.042  18.630  0.00  0.00    +0.000 A 
ATOM      5  C   UNL     1       1.942   7.486  19.948  0.00  0.00    +0.000 A 
ATOM      6  C   UNL     1       1.601   8.819  20.232  0.00  0.00    +0.000 A 
ATOM      7  F   UNL     1       1.421   9.166  21.514  0.00  0.00    +0.000 F 
ENDROOT
BRANCH   4   8
ATOM      8  C   UNL     1       2.507   5.612  18.326  0.00  0.00    +0.000 A 
ATOM      9  C   UNL     1       1.531   4.614  18.604  0.00  0.00    +0.000 A 
ATOM     10  C   UNL     1       1.763   3.252  18.383  0.00  0.00    +0.000 A 
ATOM     11 CL   UNL     1       0.522   2.104  18.696  0.00  0.00    +0.000 Cl
ATOM     12  C   UNL     1       2.986   2.821  17.906  0.00  0.00    +0.000 A 
ATOM     13  C   UNL     1       3.959   3.767  17.614  0.00  0.00    +0.000 A 
ATOM     14  F   UNL     1       5.119   3.303  17.124  0.00  0.00    +0.000 F 
ATOM     15  C   UNL     1       3.744   5.153  17.782  0.00  0.00    +0.000 A 
BRANCH  15  16
ATOM     16  C   UNL     1       4.817   6.033  17.323  0.00  0.00    +0.000 A 
ATOM     17  N   UNL     1       4.975   6.435  16.051  0.00  0.00    +0.000 NA
ATOM     18  O   UNL     1       6.118   7.228  16.087  0.00  0.00    +0.000 OA
ATOM     19  C   UNL     1       6.579   7.181  17.367  0.00  0.00    +0.000 A 
ATOM     20  C   UNL     1       7.869   7.835  17.639  0.00  0.00    +0.000 C 
ATOM     21  N   UNL     1       5.805   6.492  18.171  0.00  0.00    +0.000 NA
ENDBRANCH  15  16
ENDBRANCH   4   8
BRANCH   1  22
ATOM     22  C   UNL     1       1.030  11.190  19.528  0.00  0.00    +0.000 C 
BRANCH  22  25
ATOM     23  N   UNL     1       2.544  14.409  18.413  0.00  0.00    +0.000 N 
ATOM     24  C   UNL     1       1.630  13.443  18.827  0.00  0.00    +0.000 A 
ATOM     25  N   UNL     1       1.934  12.117  18.860  0.00  0.00    +0.000 N 
ATOM     26  N   UNL     1       0.495  14.012  19.164  0.00  0.00    +0.000 NA
ATOM     27  C   UNL     1       0.641  15.357  18.906  0.00  0.00    +0.000 A 
ATOM     28  C   UNL     1      -0.471  16.301  19.161  0.00  0.00    +0.000 C 
ATOM     29  C   UNL     1       1.890  15.612  18.355  0.00  0.00    +0.000 A 
ATOM     30  C   UNL     1       2.423  16.889  17.800  0.00  0.00    +0.000 C 
ATOM     31  H   UNL     1       2.906  11.926  19.109  0.00  0.00    +0.000 HD
BRANCH  23  35
ATOM     32  C   UNL     1       6.198  14.320  17.756  0.00  0.00    +0.000 C 
ATOM     33  C   UNL     1       4.937  14.634  18.520  0.00  0.00    +0.000 C 
ATOM     34  O   UNL     1       4.998  15.161  19.626  0.00  0.00    +0.000 OA
ATOM     35  N   UNL     1       3.791  14.215  17.882  0.00  0.00    +0.000 N 
ATOM     36  H   UNL     1       3.808  14.029  16.892  0.00  0.00    +0.000 HD
ENDBRANCH  23  35
ENDBRANCH  22  25
ENDBRANCH   1  22
TORSDOF 5
ENDMDL
MODEL 9
REMARK VINA RESULT:      -9.2      3.332      4.423
REMARK  Name = 
REMARK  9 active torsions:
REMARK  status: ('A' for Active; 'I' for Inactive)
REMARK    1  A    between atoms: C_1  and  C_2
REMARK    2  A    between atoms: N_4  and  N_5
REMARK    3  A    between atoms: N_7  and  C_8
REMARK    4  A    between atoms: C_8  and  C_9
REMARK    5  A    between atoms: C_12  and  C_13
REMARK    6  A    between atoms: C_20  and  C_21
REMARK    7  A    between atoms: C_24  and  C_25
REMARK    8  A    between atoms: C_31  and  C_32
REMARK    9  A    between atoms: C_33  and  C_34
REMARK                            x       y       z     vdW  Elec       q    Type
REMARK                         _______ _______ _______ _____ _____    ______ ____
ROOT
ATOM      1  C   UNL     1       1.417   8.984  19.371  0.00  0.00    +0.000 A 
ATOM      2  C   UNL     1       1.839   9.031  18.039  0.00  0.00    +0.000 A 
ATOM      3  C   UNL     1       2.641   8.013  17.496  0.00  0.00    +0.000 A 
ATOM      4  C   UNL     1       2.979   6.856  18.222  0.00  0.00    +0.000 A 
ATOM      5  C   UNL     1       2.549   6.829  19.564  0.00  0.00    +0.000 A 
ATOM      6  C   UNL     1       1.796   7.875  20.121  0.00  0.00    +0.000 A 
ATOM      7  F   UNL     1       1.441   7.781  21.411  0.00  0.00    +0.000 F 
ENDROOT
BRANCH   4   8
ATOM      8  C   UNL     1       3.762   5.727  17.620  0.00  0.00    +0.000 A 
ATOM      9  C   UNL     1       4.855   6.046  16.765  0.00  0.00    +0.000 A 
ATOM     10  C   UNL     1       5.628   5.065  16.133  0.00  0.00    +0.000 A 
ATOM     11 CL   UNL     1       6.964   5.519  15.152  0.00  0.00    +0.000 Cl
ATOM     12  C   UNL     1       5.327   3.727  16.297  0.00  0.00    +0.000 A 
ATOM     13  C   UNL     1       4.273   3.377  17.131  0.00  0.00    +0.000 A 
ATOM     14  F   UNL     1       4.038   2.065  17.284  0.00  0.00    +0.000 F 
ATOM     15  C   UNL     1       3.500   4.339  17.821  0.00  0.00    +0.000 A 
BRANCH  15  16
ATOM     16  C   UNL     1       2.502   3.817  18.753  0.00  0.00    +0.000 A 
ATOM     17  N   UNL     1       1.186   3.748  18.493  0.00  0.00    +0.000 NA
ATOM     18  O   UNL     1       0.640   3.214  19.656  0.00  0.00    +0.000 OA
ATOM     19  C   UNL     1       1.670   3.069  20.534  0.00  0.00    +0.000 A 
ATOM     20  C   UNL     1       1.331   2.644  21.901  0.00  0.00    +0.000 C 
ATOM     21  N   UNL     1       2.835   3.390  20.023  0.00  0.00    +0.000 NA
ENDBRANCH  15  16
ENDBRANCH   4   8
BRANCH   1  22
ATOM     22  C   UNL     1       0.563  10.088  19.961  0.00  0.00    +0.000 C 
BRANCH  22  25
ATOM     23  N   UNL     1       0.594  13.752  19.275  0.00  0.00    +0.000 N 
ATOM     24  C   UNL     1       0.183  12.471  19.632  0.00  0.00    +0.000 A 
ATOM     25  N   UNL     1       0.922  11.363  19.352  0.00  0.00    +0.000 N 
ATOM     26  N   UNL     1      -0.972  12.525  20.255  0.00  0.00    +0.000 NA
ATOM     27  C   UNL     1      -1.357  13.848  20.248  0.00  0.00    +0.000 A 
ATOM     28  C   UNL     1      -2.638  14.266  20.862  0.00  0.00    +0.000 C 
ATOM     29  C   UNL     1      -0.427  14.620  19.563  0.00  0.00    +0.000 A 
ATOM     30  C   UNL     1      -0.502  16.062  19.193  0.00  0.00    +0.000 C 
ATOM     31  H   UNL     1       1.930  11.521  19.398  0.00  0.00    +0.000 HD
BRANCH  23  35
ATOM     32  C   UNL     1       3.965  14.731  18.064  0.00  0.00    +0.000 C 
ATOM     33  C   UNL     1       2.916  14.352  19.077  0.00  0.00    +0.000 C 
ATOM     34  O   UNL     1       3.213  14.233  20.261  0.00  0.00    +0.000 OA
ATOM     35  N   UNL     1       1.680  14.108  18.521  0.00  0.00    +0.000 N 
ATOM     36  H   UNL     1       1.463  14.467  17.605  0.00  0.00    +0.000 HD
ENDBRANCH  23  35
ENDBRANCH  22  25
ENDBRANCH   1  22
TORSDOF 5
ENDMDL
