MODEL 1
REMARK VINA RESULT:      -8.7      0.000      0.000
REMARK  Name = 
REMARK  6 active torsions:
REMARK  status: ('A' for Active; 'I' for Inactive)
REMARK    1  A    between atoms: C_1  and  C_2
REMARK    2  A    between atoms: C_4  and  C_5
REMARK    3  A    between atoms: C_11  and  C_12
REMARK    4  A    between atoms: C_11  and  C_13
REMARK    5  A    between atoms: C_16  and  C_17
REMARK    6  A    between atoms: C_25  and  C_26
REMARK                            x       y       z     vdW  Elec       q    Type
REMARK                         _______ _______ _______ _____ _____    ______ ____
ROOT
ATOM      1  C   UNL     1       6.088   5.397  15.474  0.00  0.00    +0.000 C 
ATOM      2  O   UNL     1       6.912   6.240  15.818  0.00  0.00    +0.000 OA
ATOM      3  N   UNL     1       4.914   5.176  16.232  0.00  0.00    +0.000 N 
ATOM      4  C   UNL     1       3.987   4.080  15.977  0.00  0.00    +0.000 C 
ATOM      5  C   UNL     1       3.228   3.630  17.208  0.00  0.00    +0.000 C 
ATOM      6  C   UNL     1       2.531   4.812  17.862  0.00  0.00    +0.000 C 
ATOM      7  C   UNL     1       3.513   5.958  18.218  0.00  0.00    +0.000 C 
ATOM      8  C   UNL     1       4.467   5.506  19.346  0.00  0.00    +0.000 C 
ATOM      9  C   UNL     1       4.363   6.327  16.967  0.00  0.00    +0.000 C 
ENDROOT
BRANCH   1  13
ATOM     10  C   UNL     1       5.652   2.150  11.529  0.00  0.00    +0.000 C 
ATOM     11  C   UNL     1       6.034   3.183  12.508  0.00  0.00    +0.000 A 
ATOM     12  C   UNL     1       5.457   3.597  13.680  0.00  0.00    +0.000 A 
ATOM     13  C   UNL     1       6.280   4.626  14.236  0.00  0.00    +0.000 A 
ATOM     14  C   UNL     1       7.269   4.825  13.275  0.00  0.00    +0.000 A 
ATOM     15  C   UNL     1       8.395   5.772  13.114  0.00  0.00    +0.000 C 
ATOM     16  O   UNL     1       7.136   3.930  12.252  0.00  0.00    +0.000 OA
ENDBRANCH   1  13
BRANCH   7  17
ATOM     17  C   UNL     1       2.707   7.146  18.693  0.00  0.00    +0.000 A 
ATOM     18  N   UNL     1       2.490   8.215  17.911  0.00  0.00    +0.000 NA
ATOM     19  O   UNL     1       1.781   9.082  18.737  0.00  0.00    +0.000 OA
ATOM     20  C   UNL     1       1.642   8.452  19.941  0.00  0.00    +0.000 A 
ATOM     21  N   UNL     1       2.198   7.260  19.965  0.00  0.00    +0.000 NA
BRANCH  20  22
ATOM     22  C   UNL     1       0.941   9.181  20.989  0.00  0.00    +0.000 A 
ATOM     23  C   UNL     1       1.012   8.794  22.330  0.00  0.00    +0.000 A 
ATOM     24  C   UNL     1       0.311   9.531  23.272  0.00  0.00    +0.000 A 
ATOM     25  N   UNL     1      -0.440  10.604  22.971  0.00  0.00    +0.000 NA
ATOM     26  C   UNL     1      -0.499  10.967  21.672  0.00  0.00    +0.000 A 
ATOM     27  C   UNL     1       0.165  10.297  20.659  0.00  0.00    +0.000 A 
ENDBRANCH  20  22
ENDBRANCH   7  17
TORSDOF 3
ENDMDL
MODEL 2
REMARK VINA RESULT:      -8.4      3.314     10.857
REMARK  Name = 
REMARK  6 active torsions:
REMARK  status: ('A' for Active; 'I' for Inactive)
REMARK    1  A    between atoms: C_1  and  C_2
REMARK    2  A    between atoms: C_4  and  C_5
REMARK    3  A    between atoms: C_11  and  C_12
REMARK    4  A    between atoms: C_11  and  C_13
REMARK    5  A    between atoms: C_16  and  C_17
REMARK    6  A    between atoms: C_25  and  C_26
REMARK                            x       y       z     vdW  Elec       q    Type
REMARK                         _______ _______ _______ _____ _____    ______ ____
ROOT
ATOM      1  C   UNL     1      -1.050  12.541  21.729  0.00  0.00    +0.000 C 
ATOM      2  O   UNL     1      -0.081  12.717  22.461  0.00  0.00    +0.000 OA
ATOM      3  N   UNL     1      -0.929  11.804  20.527  0.00  0.00    +0.000 N 
ATOM      4  C   UNL     1      -1.992  11.706  19.534  0.00  0.00    +0.000 C 
ATOM      5  C   UNL     1      -1.485  11.476  18.125  0.00  0.00    +0.000 C 
ATOM      6  C   UNL     1      -0.567  10.265  18.084  0.00  0.00    +0.000 C 
ATOM      7  C   UNL     1       0.620  10.385  19.076  0.00  0.00    +0.000 C 
ATOM      8  C   UNL     1       1.578  11.508  18.621  0.00  0.00    +0.000 C 
ATOM      9  C   UNL     1       0.083  10.735  20.494  0.00  0.00    +0.000 C 
ENDROOT
BRANCH   1  13
ATOM     10  C   UNL     1      -5.735  13.220  23.700  0.00  0.00    +0.000 C 
ATOM     11  C   UNL     1      -4.435  13.313  23.014  0.00  0.00    +0.000 A 
ATOM     12  C   UNL     1      -3.369  12.456  22.942  0.00  0.00    +0.000 A 
ATOM     13  C   UNL     1      -2.375  13.055  22.107  0.00  0.00    +0.000 A 
ATOM     14  C   UNL     1      -2.897  14.313  21.810  0.00  0.00    +0.000 A 
ATOM     15  C   UNL     1      -2.404  15.505  21.085  0.00  0.00    +0.000 C 
ATOM     16  O   UNL     1      -4.153  14.450  22.330  0.00  0.00    +0.000 OA
ENDBRANCH   1  13
BRANCH   7  17
ATOM     17  C   UNL     1       1.364   9.070  19.089  0.00  0.00    +0.000 A 
ATOM     18  N   UNL     1       1.517   8.351  20.212  0.00  0.00    +0.000 NA
ATOM     19  O   UNL     1       2.300   7.275  19.805  0.00  0.00    +0.000 OA
ATOM     20  C   UNL     1       2.549   7.452  18.474  0.00  0.00    +0.000 A 
ATOM     21  N   UNL     1       1.998   8.544  17.988  0.00  0.00    +0.000 NA
BRANCH  20  22
ATOM     22  C   UNL     1       3.379   6.449  17.820  0.00  0.00    +0.000 A 
ATOM     23  C   UNL     1       3.114   5.082  17.939  0.00  0.00    +0.000 A 
ATOM     24  C   UNL     1       3.952   4.184  17.296  0.00  0.00    +0.000 A 
ATOM     25  N   UNL     1       5.013   4.552  16.557  0.00  0.00    +0.000 NA
ATOM     26  C   UNL     1       5.256   5.876  16.450  0.00  0.00    +0.000 A 
ATOM     27  C   UNL     1       4.478   6.849  17.054  0.00  0.00    +0.000 A 
ENDBRANCH  20  22
ENDBRANCH   7  17
TORSDOF 3
ENDMDL
MODEL 3
REMARK VINA RESULT:      -8.4      1.757      2.053
REMARK  Name = 
REMARK  6 active torsions:
REMARK  status: ('A' for Active; 'I' for Inactive)
REMARK    1  A    between atoms: C_1  and  C_2
REMARK    2  A    between atoms: C_4  and  C_5
REMARK    3  A    between atoms: C_11  and  C_12
REMARK    4  A    between atoms: C_11  and  C_13
REMARK    5  A    between atoms: C_16  and  C_17
REMARK    6  A    between atoms: C_25  and  C_26
REMARK                            x       y       z     vdW  Elec       q    Type
REMARK                         _______ _______ _______ _____ _____    ______ ____
ROOT
ATOM      1  C   UNL     1       6.108   5.378  15.480  0.00  0.00    +0.000 C 
ATOM      2  O   UNL     1       6.929   6.227  15.815  0.00  0.00    +0.000 OA
ATOM      3  N   UNL     1       4.962   5.122  16.269  0.00  0.00    +0.000 N 
ATOM      4  C   UNL     1       4.045   4.017  16.021  0.00  0.00    +0.000 C 
ATOM      5  C   UNL     1       3.332   3.529  17.265  0.00  0.00    +0.000 C 
ATOM      6  C   UNL     1       2.638   4.686  17.965  0.00  0.00    +0.000 C 
ATOM      7  C   UNL     1       3.613   5.841  18.314  0.00  0.00    +0.000 C 
ATOM      8  C   UNL     1       4.609   5.382  19.402  0.00  0.00    +0.000 C 
ATOM      9  C   UNL     1       4.417   6.249  17.045  0.00  0.00    +0.000 C 
ENDROOT
BRANCH   1  13
ATOM     10  C   UNL     1       5.577   2.233  11.464  0.00  0.00    +0.000 C 
ATOM     11  C   UNL     1       5.985   3.238  12.462  0.00  0.00    +0.000 A 
ATOM     12  C   UNL     1       5.431   3.629  13.652  0.00  0.00    +0.000 A 
ATOM     13  C   UNL     1       6.273   4.635  14.221  0.00  0.00    +0.000 A 
ATOM     14  C   UNL     1       7.249   4.848  13.249  0.00  0.00    +0.000 A 
ATOM     15  C   UNL     1       8.383   5.786  13.094  0.00  0.00    +0.000 C 
ATOM     16  O   UNL     1       7.091   3.979  12.207  0.00  0.00    +0.000 OA
ENDBRANCH   1  13
BRANCH   7  17
ATOM     17  C   UNL     1       2.803   7.005  18.838  0.00  0.00    +0.000 A 
ATOM     18  N   UNL     1       2.275   7.006  20.072  0.00  0.00    +0.000 NA
ATOM     19  O   UNL     1       1.570   8.204  20.122  0.00  0.00    +0.000 OA
ATOM     20  C   UNL     1       1.737   8.810  18.910  0.00  0.00    +0.000 A 
ATOM     21  N   UNL     1       2.485   8.110  18.084  0.00  0.00    +0.000 NA
BRANCH  20  22
ATOM     22  C   UNL     1       1.066  10.088  18.714  0.00  0.00    +0.000 A 
ATOM     23  C   UNL     1       1.772  11.294  18.680  0.00  0.00    +0.000 A 
ATOM     24  C   UNL     1       1.066  12.472  18.498  0.00  0.00    +0.000 A 
ATOM     25  N   UNL     1      -0.270  12.526  18.351  0.00  0.00    +0.000 NA
ATOM     26  C   UNL     1      -0.938  11.354  18.384  0.00  0.00    +0.000 A 
ATOM     27  C   UNL     1      -0.324  10.126  18.560  0.00  0.00    +0.000 A 
ENDBRANCH  20  22
ENDBRANCH   7  17
TORSDOF 3
ENDMDL
MODEL 4
REMARK VINA RESULT:      -8.4      4.138     10.785
REMARK  Name = 
REMARK  6 active torsions:
REMARK  status: ('A' for Active; 'I' for Inactive)
REMARK    1  A    between atoms: C_1  and  C_2
REMARK    2  A    between atoms: C_4  and  C_5
REMARK    3  A    between atoms: C_11  and  C_12
REMARK    4  A    between atoms: C_11  and  C_13
REMARK    5  A    between atoms: C_16  and  C_17
REMARK    6  A    between atoms: C_25  and  C_26
REMARK                            x       y       z     vdW  Elec       q    Type
REMARK                         _______ _______ _______ _____ _____    ______ ____
ROOT
ATOM      1  C   UNL     1      -0.873  12.597  22.085  0.00  0.00    +0.000 C 
ATOM      2  O   UNL     1       0.175  12.762  22.703  0.00  0.00    +0.000 OA
ATOM      3  N   UNL     1      -0.873  12.021  20.793  0.00  0.00    +0.000 N 
ATOM      4  C   UNL     1      -2.054  11.955  19.941  0.00  0.00    +0.000 C 
ATOM      5  C   UNL     1      -1.734  11.937  18.461  0.00  0.00    +0.000 C 
ATOM      6  C   UNL     1      -0.754  10.819  18.145  0.00  0.00    +0.000 C 
ATOM      7  C   UNL     1       0.549  10.916  18.982  0.00  0.00    +0.000 C 
ATOM      8  C   UNL     1       1.359  12.160  18.556  0.00  0.00    +0.000 C 
ATOM      9  C   UNL     1       0.192  11.049  20.491  0.00  0.00    +0.000 C 
ENDROOT
BRANCH   1  13
ATOM     10  C   UNL     1      -5.342  12.604  24.600  0.00  0.00    +0.000 C 
ATOM     11  C   UNL     1      -4.123  12.907  23.831  0.00  0.00    +0.000 A 
ATOM     12  C   UNL     1      -3.050  12.137  23.465  0.00  0.00    +0.000 A 
ATOM     13  C   UNL     1      -2.163  12.952  22.695  0.00  0.00    +0.000 A 
ATOM     14  C   UNL     1      -2.743  14.218  22.741  0.00  0.00    +0.000 A 
ATOM     15  C   UNL     1      -2.356  15.564  22.259  0.00  0.00    +0.000 C 
ATOM     16  O   UNL     1      -3.940  14.179  23.397  0.00  0.00    +0.000 OA
ENDBRANCH   1  13
BRANCH   7  17
ATOM     17  C   UNL     1       1.371   9.673  18.728  0.00  0.00    +0.000 A 
ATOM     18  N   UNL     1       2.049   9.490  17.585  0.00  0.00    +0.000 NA
ATOM     19  O   UNL     1       2.599   8.221  17.733  0.00  0.00    +0.000 OA
ATOM     20  C   UNL     1       2.195   7.757  18.953  0.00  0.00    +0.000 A 
ATOM     21  N   UNL     1       1.435   8.613  19.601  0.00  0.00    +0.000 NA
BRANCH  20  22
ATOM     22  C   UNL     1       2.635   6.421  19.328  0.00  0.00    +0.000 A 
ATOM     23  C   UNL     1       2.002   5.694  20.340  0.00  0.00    +0.000 A 
ATOM     24  C   UNL     1       2.481   4.431  20.650  0.00  0.00    +0.000 A 
ATOM     25  N   UNL     1       3.528   3.857  20.031  0.00  0.00    +0.000 NA
ATOM     26  C   UNL     1       4.129   4.571  19.055  0.00  0.00    +0.000 A 
ATOM     27  C   UNL     1       3.725   5.839  18.673  0.00  0.00    +0.000 A 
ENDBRANCH  20  22
ENDBRANCH   7  17
TORSDOF 3
ENDMDL
MODEL 5
REMARK VINA RESULT:      -8.2      5.201      7.635
REMARK  Name = 
REMARK  6 active torsions:
REMARK  status: ('A' for Active; 'I' for Inactive)
REMARK    1  A    between atoms: C_1  and  C_2
REMARK    2  A    between atoms: C_4  and  C_5
REMARK    3  A    between atoms: C_11  and  C_12
REMARK    4  A    between atoms: C_11  and  C_13
REMARK    5  A    between atoms: C_16  and  C_17
REMARK    6  A    between atoms: C_25  and  C_26
REMARK                            x       y       z     vdW  Elec       q    Type
REMARK                         _______ _______ _______ _____ _____    ______ ____
ROOT
ATOM      1  C   UNL     1       3.651   5.225  18.246  0.00  0.00    +0.000 C 
ATOM      2  O   UNL     1       2.987   5.917  17.480  0.00  0.00    +0.000 OA
ATOM      3  N   UNL     1       5.046   5.417  18.376  0.00  0.00    +0.000 N 
ATOM      4  C   UNL     1       5.915   4.524  19.132  0.00  0.00    +0.000 C 
ATOM      5  C   UNL     1       7.343   4.497  18.629  0.00  0.00    +0.000 C 
ATOM      6  C   UNL     1       7.908   5.906  18.566  0.00  0.00    +0.000 C 
ATOM      7  C   UNL     1       7.044   6.856  17.696  0.00  0.00    +0.000 C 
ATOM      8  C   UNL     1       7.121   6.431  16.213  0.00  0.00    +0.000 C 
ATOM      9  C   UNL     1       5.559   6.780  18.158  0.00  0.00    +0.000 C 
ENDROOT
BRANCH   1  13
ATOM     10  C   UNL     1       1.343   2.645  22.030  0.00  0.00    +0.000 C 
ATOM     11  C   UNL     1       1.971   3.116  20.783  0.00  0.00    +0.000 A 
ATOM     12  C   UNL     1       2.502   4.326  20.421  0.00  0.00    +0.000 A 
ATOM     13  C   UNL     1       3.002   4.207  19.087  0.00  0.00    +0.000 A 
ATOM     14  C   UNL     1       2.633   2.920  18.701  0.00  0.00    +0.000 A 
ATOM     15  C   UNL     1       2.726   2.136  17.449  0.00  0.00    +0.000 C 
ATOM     16  O   UNL     1       2.042   2.255  19.739  0.00  0.00    +0.000 OA
ENDBRANCH   1  13
BRANCH   7  17
ATOM     17  C   UNL     1       7.585   8.259  17.842  0.00  0.00    +0.000 A 
ATOM     18  N   UNL     1       7.087   9.289  17.140  0.00  0.00    +0.000 NA
ATOM     19  O   UNL     1       7.895  10.358  17.517  0.00  0.00    +0.000 OA
ATOM     20  C   UNL     1       8.806   9.869  18.408  0.00  0.00    +0.000 A 
ATOM     21  N   UNL     1       8.659   8.581  18.638  0.00  0.00    +0.000 NA
BRANCH  20  22
ATOM     22  C   UNL     1       9.785  10.810  18.934  0.00  0.00    +0.000 A 
ATOM     23  C   UNL     1      10.745  11.411  18.115  0.00  0.00    +0.000 A 
ATOM     24  C   UNL     1      11.650  12.290  18.687  0.00  0.00    +0.000 A 
ATOM     25  N   UNL     1      11.661  12.603  19.995  0.00  0.00    +0.000 NA
ATOM     26  C   UNL     1      10.727  12.017  20.774  0.00  0.00    +0.000 A 
ATOM     27  C   UNL     1       9.781  11.126  20.297  0.00  0.00    +0.000 A 
ENDBRANCH  20  22
ENDBRANCH   7  17
TORSDOF 3
ENDMDL
MODEL 6
REMARK VINA RESULT:      -8.2      1.257      1.622
REMARK  Name = 
REMARK  6 active torsions:
REMARK  status: ('A' for Active; 'I' for Inactive)
REMARK    1  A    between atoms: C_1  and  C_2
REMARK    2  A    between atoms: C_4  and  C_5
REMARK    3  A    between atoms: C_11  and  C_12
REMARK    4  A    between atoms: C_11  and  C_13
REMARK    5  A    between atoms: C_16  and  C_17
REMARK    6  A    between atoms: C_25  and  C_26
REMARK                            x       y       z     vdW  Elec       q    Type
REMARK                         _______ _______ _______ _____ _____    ______ ____
ROOT
ATOM      1  C   UNL     1       6.063   5.288  15.534  0.00  0.00    +0.000 C 
ATOM      2  O   UNL     1       6.751   6.273  15.788  0.00  0.00    +0.000 OA
ATOM      3  N   UNL     1       5.095   4.821  16.452  0.00  0.00    +0.000 N 
ATOM      4  C   UNL     1       4.370   3.566  16.289  0.00  0.00    +0.000 C 
ATOM      5  C   UNL     1       3.925   2.949  17.598  0.00  0.00    +0.000 C 
ATOM      6  C   UNL     1       3.127   3.953  18.413  0.00  0.00    +0.000 C 
ATOM      7  C   UNL     1       3.911   5.267  18.671  0.00  0.00    +0.000 C 
ATOM      8  C   UNL     1       5.105   4.994  19.611  0.00  0.00    +0.000 C 
ATOM      9  C   UNL     1       4.457   5.823  17.323  0.00  0.00    +0.000 C 
ENDROOT
BRANCH   1  13
ATOM     10  C   UNL     1       5.411   2.340  11.389  0.00  0.00    +0.000 C 
ATOM     11  C   UNL     1       5.856   3.286  12.427  0.00  0.00    +0.000 A 
ATOM     12  C   UNL     1       5.321   3.644  13.636  0.00  0.00    +0.000 A 
ATOM     13  C   UNL     1       6.198   4.596  14.243  0.00  0.00    +0.000 A 
ATOM     14  C   UNL     1       7.176   4.818  13.276  0.00  0.00    +0.000 A 
ATOM     15  C   UNL     1       8.340   5.724  13.154  0.00  0.00    +0.000 C 
ATOM     16  O   UNL     1       6.985   4.001  12.197  0.00  0.00    +0.000 OA
ENDBRANCH   1  13
BRANCH   7  17
ATOM     17  C   UNL     1       2.976   6.258  19.325  0.00  0.00    +0.000 A 
ATOM     18  N   UNL     1       2.280   5.955  20.431  0.00  0.00    +0.000 NA
ATOM     19  O   UNL     1       1.514   7.095  20.655  0.00  0.00    +0.000 OA
ATOM     20  C   UNL     1       1.819   7.976  19.657  0.00  0.00    +0.000 A 
ATOM     21  N   UNL     1       2.711   7.506  18.812  0.00  0.00    +0.000 NA
BRANCH  20  22
ATOM     22  C   UNL     1       1.117   9.252  19.668  0.00  0.00    +0.000 A 
ATOM     23  C   UNL     1       0.289   9.629  20.728  0.00  0.00    +0.000 A 
ATOM     24  C   UNL     1      -0.354  10.855  20.665  0.00  0.00    +0.000 A 
ATOM     25  N   UNL     1      -0.228  11.712  19.636  0.00  0.00    +0.000 NA
ATOM     26  C   UNL     1       0.576  11.335  18.620  0.00  0.00    +0.000 A 
ATOM     27  C   UNL     1       1.261  10.132  18.590  0.00  0.00    +0.000 A 
ENDBRANCH  20  22
ENDBRANCH   7  17
TORSDOF 3
ENDMDL
MODEL 7
REMARK VINA RESULT:      -8.2      3.062     10.511
REMARK  Name = 
REMARK  6 active torsions:
REMARK  status: ('A' for Active; 'I' for Inactive)
REMARK    1  A    between atoms: C_1  and  C_2
REMARK    2  A    between atoms: C_4  and  C_5
REMARK    3  A    between atoms: C_11  and  C_12
REMARK    4  A    between atoms: C_11  and  C_13
REMARK    5  A    between atoms: C_16  and  C_17
REMARK    6  A    between atoms: C_25  and  C_26
REMARK                            x       y       z     vdW  Elec       q    Type
REMARK                         _______ _______ _______ _____ _____    ______ ____
ROOT
ATOM      1  C   UNL     1      -0.317  12.162  21.389  0.00  0.00    +0.000 C 
ATOM      2  O   UNL     1       0.738  12.472  21.933  0.00  0.00    +0.000 OA
ATOM      3  N   UNL     1      -0.330  11.320  20.253  0.00  0.00    +0.000 N 
ATOM      4  C   UNL     1      -1.525  11.055  19.461  0.00  0.00    +0.000 C 
ATOM      5  C   UNL     1      -1.231  10.721  18.013  0.00  0.00    +0.000 C 
ATOM      6  C   UNL     1      -0.236   9.576  17.925  0.00  0.00    +0.000 C 
ATOM      7  C   UNL     1       1.079   9.871  18.692  0.00  0.00    +0.000 C 
ATOM      8  C   UNL     1       1.858  11.004  17.990  0.00  0.00    +0.000 C 
ATOM      9  C   UNL     1       0.748  10.322  20.145  0.00  0.00    +0.000 C 
ENDROOT
BRANCH   1  13
ATOM     10  C   UNL     1      -4.661  12.731  24.055  0.00  0.00    +0.000 C 
ATOM     11  C   UNL     1      -3.503  12.837  23.151  0.00  0.00    +0.000 A 
ATOM     12  C   UNL     1      -2.392  12.052  22.983  0.00  0.00    +0.000 A 
ATOM     13  C   UNL     1      -1.604  12.622  21.936  0.00  0.00    +0.000 A 
ATOM     14  C   UNL     1      -2.274  13.799  21.610  0.00  0.00    +0.000 A 
ATOM     15  C   UNL     1      -2.011  14.935  20.697  0.00  0.00    +0.000 C 
ATOM     16  O   UNL     1      -3.435  13.907  22.322  0.00  0.00    +0.000 OA
ENDBRANCH   1  13
BRANCH   7  17
ATOM     17  C   UNL     1       1.920   8.615  18.696  0.00  0.00    +0.000 A 
ATOM     18  N   UNL     1       1.889   7.741  19.714  0.00  0.00    +0.000 NA
ATOM     19  O   UNL     1       2.838   6.789  19.354  0.00  0.00    +0.000 OA
ATOM     20  C   UNL     1       3.355   7.183  18.153  0.00  0.00    +0.000 A 
ATOM     21  N   UNL     1       2.825   8.302  17.708  0.00  0.00    +0.000 NA
BRANCH  20  22
ATOM     22  C   UNL     1       4.395   6.343  17.575  0.00  0.00    +0.000 A 
ATOM     23  C   UNL     1       4.817   6.498  16.252  0.00  0.00    +0.000 A 
ATOM     24  C   UNL     1       5.806   5.657  15.767  0.00  0.00    +0.000 A 
ATOM     25  N   UNL     1       6.389   4.692  16.500  0.00  0.00    +0.000 NA
ATOM     26  C   UNL     1       5.973   4.555  17.777  0.00  0.00    +0.000 A 
ATOM     27  C   UNL     1       4.993   5.346  18.352  0.00  0.00    +0.000 A 
ENDBRANCH  20  22
ENDBRANCH   7  17
TORSDOF 3
ENDMDL
MODEL 8
REMARK VINA RESULT:      -8.2      3.974     10.245
REMARK  Name = 
REMARK  6 active torsions:
REMARK  status: ('A' for Active; 'I' for Inactive)
REMARK    1  A    between atoms: C_1  and  C_2
REMARK    2  A    between atoms: C_4  and  C_5
REMARK    3  A    between atoms: C_11  and  C_12
REMARK    4  A    between atoms: C_11  and  C_13
REMARK    5  A    between atoms: C_16  and  C_17
REMARK    6  A    between atoms: C_25  and  C_26
REMARK                            x       y       z     vdW  Elec       q    Type
REMARK                         _______ _______ _______ _____ _____    ______ ____
ROOT
ATOM      1  C   UNL     1      -0.319  12.176  21.421  0.00  0.00    +0.000 C 
ATOM      2  O   UNL     1       0.748  12.462  21.955  0.00  0.00    +0.000 OA
ATOM      3  N   UNL     1      -0.356  11.397  20.241  0.00  0.00    +0.000 N 
ATOM      4  C   UNL     1      -1.570  11.169  19.465  0.00  0.00    +0.000 C 
ATOM      5  C   UNL     1      -1.311  10.917  17.995  0.00  0.00    +0.000 C 
ATOM      6  C   UNL     1      -0.314   9.784  17.820  0.00  0.00    +0.000 C 
ATOM      7  C   UNL     1       1.019  10.043  18.569  0.00  0.00    +0.000 C 
ATOM      8  C   UNL     1       1.776  11.218  17.911  0.00  0.00    +0.000 C 
ATOM      9  C   UNL     1       0.722  10.413  20.052  0.00  0.00    +0.000 C 
ENDROOT
BRANCH   1  13
ATOM     10  C   UNL     1      -4.559  12.616  24.271  0.00  0.00    +0.000 C 
ATOM     11  C   UNL     1      -3.444  12.756  23.320  0.00  0.00    +0.000 A 
ATOM     12  C   UNL     1      -2.321  12.003  23.101  0.00  0.00    +0.000 A 
ATOM     13  C   UNL     1      -1.593  12.598  22.024  0.00  0.00    +0.000 A 
ATOM     14  C   UNL     1      -2.309  13.757  21.732  0.00  0.00    +0.000 A 
ATOM     15  C   UNL     1      -2.116  14.903  20.814  0.00  0.00    +0.000 C 
ATOM     16  O   UNL     1      -3.442  13.831  22.492  0.00  0.00    +0.000 OA
ENDBRANCH   1  13
BRANCH   7  17
ATOM     17  C   UNL     1       1.865   8.794  18.483  0.00  0.00    +0.000 A 
ATOM     18  N   UNL     1       2.744   8.597  17.487  0.00  0.00    +0.000 NA
ATOM     19  O   UNL     1       3.247   7.326  17.745  0.00  0.00    +0.000 OA
ATOM     20  C   UNL     1       2.619   6.875  18.871  0.00  0.00    +0.000 A 
ATOM     21  N   UNL     1       1.757   7.740  19.359  0.00  0.00    +0.000 NA
BRANCH  20  22
ATOM     22  C   UNL     1       2.971   5.539  19.331  0.00  0.00    +0.000 A 
ATOM     23  C   UNL     1       2.283   4.914  20.375  0.00  0.00    +0.000 A 
ATOM     24  C   UNL     1       2.680   3.645  20.766  0.00  0.00    +0.000 A 
ATOM     25  N   UNL     1       3.696   2.972  20.198  0.00  0.00    +0.000 NA
ATOM     26  C   UNL     1       4.350   3.588  19.190  0.00  0.00    +0.000 A 
ATOM     27  C   UNL     1       4.030   4.853  18.727  0.00  0.00    +0.000 A 
ENDBRANCH  20  22
ENDBRANCH   7  17
TORSDOF 3
ENDMDL
MODEL 9
REMARK VINA RESULT:      -8.0      3.464     10.728
REMARK  Name = 
REMARK  6 active torsions:
REMARK  status: ('A' for Active; 'I' for Inactive)
REMARK    1  A    between atoms: C_1  and  C_2
REMARK    2  A    between atoms: C_4  and  C_5
REMARK    3  A    between atoms: C_11  and  C_12
REMARK    4  A    between atoms: C_11  and  C_13
REMARK    5  A    between atoms: C_16  and  C_17
REMARK    6  A    between atoms: C_25  and  C_26
REMARK                            x       y       z     vdW  Elec       q    Type
REMARK                         _______ _______ _______ _____ _____    ______ ____
ROOT
ATOM      1  C   UNL     1      -0.084  13.087  21.329  0.00  0.00    +0.000 C 
ATOM      2  O   UNL     1       1.017  13.270  21.840  0.00  0.00    +0.000 OA
ATOM      3  N   UNL     1      -0.255  12.145  20.289  0.00  0.00    +0.000 N 
ATOM      4  C   UNL     1      -1.490  12.003  19.526  0.00  0.00    +0.000 C 
ATOM      5  C   UNL     1      -1.278  11.474  18.123  0.00  0.00    +0.000 C 
ATOM      6  C   UNL     1      -0.492  10.174  18.160  0.00  0.00    +0.000 C 
ATOM      7  C   UNL     1       0.866  10.321  18.896  0.00  0.00    +0.000 C 
ATOM      8  C   UNL     1       1.815  11.226  18.079  0.00  0.00    +0.000 C 
ATOM      9  C   UNL     1       0.637  10.973  20.291  0.00  0.00    +0.000 C 
ENDROOT
BRANCH   1  13
ATOM     10  C   UNL     1      -3.744  16.553  22.272  0.00  0.00    +0.000 C 
ATOM     11  C   UNL     1      -2.865  15.373  22.191  0.00  0.00    +0.000 A 
ATOM     12  C   UNL     1      -1.705  15.136  21.501  0.00  0.00    +0.000 A 
ATOM     13  C   UNL     1      -1.266  13.813  21.820  0.00  0.00    +0.000 A 
ATOM     14  C   UNL     1      -2.280  13.305  22.627  0.00  0.00    +0.000 A 
ATOM     15  C   UNL     1      -2.562  11.992  23.251  0.00  0.00    +0.000 C 
ATOM     16  O   UNL     1      -3.225  14.260  22.876  0.00  0.00    +0.000 OA
ENDBRANCH   1  13
BRANCH   7  17
ATOM     17  C   UNL     1       1.483   8.949  19.035  0.00  0.00    +0.000 A 
ATOM     18  N   UNL     1       1.644   8.360  20.231  0.00  0.00    +0.000 NA
ATOM     19  O   UNL     1       2.294   7.169  19.921  0.00  0.00    +0.000 OA
ATOM     20  C   UNL     1       2.467   7.156  18.566  0.00  0.00    +0.000 A 
ATOM     21  N   UNL     1       1.989   8.231  17.977  0.00  0.00    +0.000 NA
BRANCH  20  22
ATOM     22  C   UNL     1       3.153   6.002  18.000  0.00  0.00    +0.000 A 
ATOM     23  C   UNL     1       2.513   4.770  17.842  0.00  0.00    +0.000 A 
ATOM     24  C   UNL     1       3.232   3.713  17.304  0.00  0.00    +0.000 A 
ATOM     25  N   UNL     1       4.518   3.803  16.922  0.00  0.00    +0.000 NA
ATOM     26  C   UNL     1       5.122   5.000  17.079  0.00  0.00    +0.000 A 
ATOM     27  C   UNL     1       4.490   6.114  17.606  0.00  0.00    +0.000 A 
ENDBRANCH  20  22
ENDBRANCH   7  17
TORSDOF 3
ENDMDL
