MODEL 1
REMARK VINA RESULT:      -6.9      0.000      0.000
REMARK  Name = 
REMARK  2 active torsions:
REMARK  status: ('A' for Active; 'I' for Inactive)
REMARK    1  A    between atoms: C_1  and  N_2
REMARK    2  A    between atoms: C_3  and  C_4
REMARK                            x       y       z     vdW  Elec       q    Type
REMARK                         _______ _______ _______ _____ _____    ______ ____
ROOT
ATOM      1  C   UNL     1       1.478   7.829  20.700  0.00  0.00    +0.000 C 
ATOM      2  N   UNL     1       1.795   8.218  19.353  0.00  0.00    +0.000 N 
ATOM      3  C   UNL     1       2.511   7.512  18.402  0.00  0.00    +0.000 A 
ATOM      4  N   UNL     1       2.557   8.247  17.307  0.00  0.00    +0.000 NA
ATOM      5  N   UNL     1       1.979   9.470  17.567  0.00  0.00    +0.000 NA
ATOM      6  C   UNL     1       1.503   9.449  18.794  0.00  0.00    +0.000 A 
ATOM      7  N   UNL     1       0.975  10.472  19.521  0.00  0.00    +0.000 N 
ATOM      8  C   UNL     1       1.335  11.845  19.125  0.00  0.00    +0.000 C 
ATOM      9  C   UNL     1       1.445  12.698  20.389  0.00  0.00    +0.000 C 
ATOM     10  S   UNL     1      -0.170  12.831  21.228  0.00  0.00    +0.000 S 
ATOM     11  O   UNL     1       0.085  13.397  22.671  0.00  0.00    +0.000 OA
ATOM     12  C   UNL     1      -0.461  11.039  21.393  0.00  0.00    +0.000 C 
ATOM     13  C   UNL     1      -0.400  10.369  20.025  0.00  0.00    +0.000 C 
ENDROOT
BRANCH   3  14
ATOM     14  C   UNL     1       3.110   6.178  18.537  0.00  0.00    +0.000 A 
ATOM     15  C   UNL     1       4.470   5.988  18.828  0.00  0.00    +0.000 A 
ATOM     16  C   UNL     1       5.002   4.709  19.009  0.00  0.00    +0.000 A 
ATOM     17  C   UNL     1       4.195   3.593  18.826  0.00  0.00    +0.000 A 
ATOM     18  C   UNL     1       2.859   3.764  18.463  0.00  0.00    +0.000 A 
ATOM     19 CL   UNL     1       1.877   2.380  18.180  0.00  0.00    +0.000 Cl
ATOM     20  C   UNL     1       2.314   5.041  18.326  0.00  0.00    +0.000 A 
ENDBRANCH   3  14
TORSDOF 1
ENDMDL
MODEL 2
REMARK VINA RESULT:      -6.9      5.749      7.416
REMARK  Name = 
REMARK  2 active torsions:
REMARK  status: ('A' for Active; 'I' for Inactive)
REMARK    1  A    between atoms: C_1  and  N_2
REMARK    2  A    between atoms: C_3  and  C_4
REMARK                            x       y       z     vdW  Elec       q    Type
REMARK                         _______ _______ _______ _____ _____    ______ ____
ROOT
ATOM      1  C   UNL     1       3.963   4.456  16.157  0.00  0.00    +0.000 C 
ATOM      2  N   UNL     1       5.279   4.451  16.734  0.00  0.00    +0.000 N 
ATOM      3  C   UNL     1       6.502   4.436  16.085  0.00  0.00    +0.000 A 
ATOM      4  N   UNL     1       7.446   4.439  17.006  0.00  0.00    +0.000 NA
ATOM      5  N   UNL     1       6.857   4.341  18.248  0.00  0.00    +0.000 NA
ATOM      6  C   UNL     1       5.551   4.366  18.087  0.00  0.00    +0.000 A 
ATOM      7  N   UNL     1       4.575   4.160  19.014  0.00  0.00    +0.000 N 
ATOM      8  C   UNL     1       4.937   3.409  20.229  0.00  0.00    +0.000 C 
ATOM      9  C   UNL     1       3.737   2.559  20.646  0.00  0.00    +0.000 C 
ATOM     10  S   UNL     1       2.325   3.615  21.119  0.00  0.00    +0.000 S 
ATOM     11  O   UNL     1       1.046   2.703  21.182  0.00  0.00    +0.000 OA
ATOM     12  C   UNL     1       2.244   4.555  19.559  0.00  0.00    +0.000 C 
ATOM     13  C   UNL     1       3.587   5.215  19.274  0.00  0.00    +0.000 C 
ENDROOT
BRANCH   3  14
ATOM     14  C   UNL     1       6.748   4.437  14.637  0.00  0.00    +0.000 A 
ATOM     15  C   UNL     1       7.596   5.368  14.017  0.00  0.00    +0.000 A 
ATOM     16  C   UNL     1       7.859   5.310  12.646  0.00  0.00    +0.000 A 
ATOM     17  C   UNL     1       7.214   4.363  11.858  0.00  0.00    +0.000 A 
ATOM     18  C   UNL     1       6.311   3.480  12.448  0.00  0.00    +0.000 A 
ATOM     19 CL   UNL     1       5.471   2.348  11.462  0.00  0.00    +0.000 Cl
ATOM     20  C   UNL     1       6.081   3.506  13.825  0.00  0.00    +0.000 A 
ENDBRANCH   3  14
TORSDOF 1
ENDMDL
MODEL 3
REMARK VINA RESULT:      -6.7      1.314      1.686
REMARK  Name = 
REMARK  2 active torsions:
REMARK  status: ('A' for Active; 'I' for Inactive)
REMARK    1  A    between atoms: C_1  and  N_2
REMARK    2  A    between atoms: C_3  and  C_4
REMARK                            x       y       z     vdW  Elec       q    Type
REMARK                         _______ _______ _______ _____ _____    ______ ____
ROOT
ATOM      1  C   UNL     1       1.474   7.742  20.575  0.00  0.00    +0.000 C 
ATOM      2  N   UNL     1       1.776   8.253  19.266  0.00  0.00    +0.000 N 
ATOM      3  C   UNL     1       2.516   7.656  18.260  0.00  0.00    +0.000 A 
ATOM      4  N   UNL     1       2.536   8.481  17.231  0.00  0.00    +0.000 NA
ATOM      5  N   UNL     1       1.914   9.657  17.591  0.00  0.00    +0.000 NA
ATOM      6  C   UNL     1       1.441   9.516  18.811  0.00  0.00    +0.000 A 
ATOM      7  N   UNL     1       0.877  10.455  19.620  0.00  0.00    +0.000 N 
ATOM      8  C   UNL     1       1.188  11.868  19.341  0.00  0.00    +0.000 C 
ATOM      9  C   UNL     1       1.268  12.616  20.672  0.00  0.00    +0.000 C 
ATOM     10  S   UNL     1      -0.350  12.621  21.516  0.00  0.00    +0.000 S 
ATOM     11  O   UNL     1      -0.114  13.073  23.002  0.00  0.00    +0.000 OA
ATOM     12  C   UNL     1      -0.577  10.812  21.529  0.00  0.00    +0.000 C 
ATOM     13  C   UNL     1      -0.493  10.262  20.110  0.00  0.00    +0.000 C 
ENDROOT
BRANCH   3  14
ATOM     14  C   UNL     1       3.162   6.337  18.285  0.00  0.00    +0.000 A 
ATOM     15  C   UNL     1       2.433   5.141  18.374  0.00  0.00    +0.000 A 
ATOM     16  C   UNL     1       3.069   3.898  18.337  0.00  0.00    +0.000 A 
ATOM     17  C   UNL     1       4.456   3.833  18.288  0.00  0.00    +0.000 A 
ATOM     18  C   UNL     1       5.198   5.014  18.274  0.00  0.00    +0.000 A 
ATOM     19 CL   UNL     1       6.917   4.931  18.272  0.00  0.00    +0.000 Cl
ATOM     20  C   UNL     1       4.564   6.257  18.265  0.00  0.00    +0.000 A 
ENDBRANCH   3  14
TORSDOF 1
ENDMDL
MODEL 4
REMARK VINA RESULT:      -6.6      1.094      1.094
REMARK  Name = 
REMARK  2 active torsions:
REMARK  status: ('A' for Active; 'I' for Inactive)
REMARK    1  A    between atoms: C_1  and  N_2
REMARK    2  A    between atoms: C_3  and  C_4
REMARK                            x       y       z     vdW  Elec       q    Type
REMARK                         _______ _______ _______ _____ _____    ______ ____
ROOT
ATOM      1  C   UNL     1       1.309   8.229  21.279  0.00  0.00    +0.000 C 
ATOM      2  N   UNL     1       1.593   8.394  19.880  0.00  0.00    +0.000 N 
ATOM      3  C   UNL     1       2.194   7.497  19.014  0.00  0.00    +0.000 A 
ATOM      4  N   UNL     1       2.252   8.064  17.824  0.00  0.00    +0.000 NA
ATOM      5  N   UNL     1       1.801   9.362  17.927  0.00  0.00    +0.000 NA
ATOM      6  C   UNL     1       1.387   9.557  19.161  0.00  0.00    +0.000 A 
ATOM      7  N   UNL     1       0.990  10.718  19.753  0.00  0.00    +0.000 N 
ATOM      8  C   UNL     1       1.452  11.981  19.151  0.00  0.00    +0.000 C 
ATOM      9  C   UNL     1       1.702  12.987  20.274  0.00  0.00    +0.000 C 
ATOM     10  S   UNL     1       0.149  13.391  21.144  0.00  0.00    +0.000 S 
ATOM     11  O   UNL     1       0.526  14.126  22.481  0.00  0.00    +0.000 OA
ATOM     12  C   UNL     1      -0.294  11.676  21.575  0.00  0.00    +0.000 C 
ATOM     13  C   UNL     1      -0.362  10.820  20.316  0.00  0.00    +0.000 C 
ENDROOT
BRANCH   3  14
ATOM     14  C   UNL     1       2.676   6.143  19.317  0.00  0.00    +0.000 A 
ATOM     15  C   UNL     1       3.938   5.683  18.911  0.00  0.00    +0.000 A 
ATOM     16  C   UNL     1       4.396   4.411  19.263  0.00  0.00    +0.000 A 
ATOM     17  C   UNL     1       3.562   3.547  19.965  0.00  0.00    +0.000 A 
ATOM     18  C   UNL     1       2.277   3.963  20.310  0.00  0.00    +0.000 A 
ATOM     19 CL   UNL     1       1.228   2.871  21.126  0.00  0.00    +0.000 Cl
ATOM     20  C   UNL     1       1.835   5.250  19.999  0.00  0.00    +0.000 A 
ENDBRANCH   3  14
TORSDOF 1
ENDMDL
MODEL 5
REMARK VINA RESULT:      -6.6      4.803      7.406
REMARK  Name = 
REMARK  2 active torsions:
REMARK  status: ('A' for Active; 'I' for Inactive)
REMARK    1  A    between atoms: C_1  and  N_2
REMARK    2  A    between atoms: C_3  and  C_4
REMARK                            x       y       z     vdW  Elec       q    Type
REMARK                         _______ _______ _______ _____ _____    ______ ____
ROOT
ATOM      1  C   UNL     1       2.875   8.057  17.802  0.00  0.00    +0.000 C 
ATOM      2  N   UNL     1       2.574   7.245  18.950  0.00  0.00    +0.000 N 
ATOM      3  C   UNL     1       1.772   7.554  20.034  0.00  0.00    +0.000 A 
ATOM      4  N   UNL     1       1.779   6.516  20.849  0.00  0.00    +0.000 NA
ATOM      5  N   UNL     1       2.665   5.578  20.366  0.00  0.00    +0.000 NA
ATOM      6  C   UNL     1       3.133   6.007  19.213  0.00  0.00    +0.000 A 
ATOM      7  N   UNL     1       4.128   5.480  18.447  0.00  0.00    +0.000 N 
ATOM      8  C   UNL     1       5.107   4.604  19.114  0.00  0.00    +0.000 C 
ATOM      9  C   UNL     1       6.475   4.832  18.470  0.00  0.00    +0.000 C 
ATOM     10  S   UNL     1       6.463   4.320  16.718  0.00  0.00    +0.000 S 
ATOM     11  O   UNL     1       7.754   4.907  16.040  0.00  0.00    +0.000 OA
ATOM     12  C   UNL     1       5.060   5.368  16.211  0.00  0.00    +0.000 C 
ATOM     13  C   UNL     1       3.840   5.062  17.070  0.00  0.00    +0.000 C 
ENDROOT
BRANCH   3  14
ATOM     14  C   UNL     1       1.016   8.792  20.266  0.00  0.00    +0.000 A 
ATOM     15  C   UNL     1       0.905   9.801  19.297  0.00  0.00    +0.000 A 
ATOM     16  C   UNL     1       0.131  10.942  19.522  0.00  0.00    +0.000 A 
ATOM     17  C   UNL     1      -0.483  11.128  20.756  0.00  0.00    +0.000 A 
ATOM     18  C   UNL     1      -0.320  10.170  21.755  0.00  0.00    +0.000 A 
ATOM     19 CL   UNL     1      -1.033  10.430  23.299  0.00  0.00    +0.000 Cl
ATOM     20  C   UNL     1       0.415   9.007  21.517  0.00  0.00    +0.000 A 
ENDBRANCH   3  14
TORSDOF 1
ENDMDL
MODEL 6
REMARK VINA RESULT:      -6.4      4.621      7.295
REMARK  Name = 
REMARK  2 active torsions:
REMARK  status: ('A' for Active; 'I' for Inactive)
REMARK    1  A    between atoms: C_1  and  N_2
REMARK    2  A    between atoms: C_3  and  C_4
REMARK                            x       y       z     vdW  Elec       q    Type
REMARK                         _______ _______ _______ _____ _____    ______ ____
ROOT
ATOM      1  C   UNL     1       2.683   8.602  17.782  0.00  0.00    +0.000 C 
ATOM      2  N   UNL     1       2.237   7.931  18.973  0.00  0.00    +0.000 N 
ATOM      3  C   UNL     1       1.371   8.395  19.947  0.00  0.00    +0.000 A 
ATOM      4  N   UNL     1       1.243   7.448  20.857  0.00  0.00    +0.000 NA
ATOM      5  N   UNL     1       2.103   6.416  20.548  0.00  0.00    +0.000 NA
ATOM      6  C   UNL     1       2.690   6.697  19.404  0.00  0.00    +0.000 A 
ATOM      7  N   UNL     1       3.708   6.038  18.784  0.00  0.00    +0.000 N 
ATOM      8  C   UNL     1       4.571   5.181  19.617  0.00  0.00    +0.000 C 
ATOM      9  C   UNL     1       5.998   5.264  19.077  0.00  0.00    +0.000 C 
ATOM     10  S   UNL     1       6.097   4.576  17.389  0.00  0.00    +0.000 S 
ATOM     11  O   UNL     1       7.474   5.015  16.773  0.00  0.00    +0.000 OA
ATOM     12  C   UNL     1       4.812   5.643  16.660  0.00  0.00    +0.000 C 
ATOM     13  C   UNL     1       3.507   5.497  17.435  0.00  0.00    +0.000 C 
ENDROOT
BRANCH   3  14
ATOM     14  C   UNL     1       0.681   9.690  19.989  0.00  0.00    +0.000 A 
ATOM     15  C   UNL     1       0.851  10.601  21.044  0.00  0.00    +0.000 A 
ATOM     16  C   UNL     1       0.228  11.852  21.031  0.00  0.00    +0.000 A 
ATOM     17  C   UNL     1      -0.640  12.180  19.995  0.00  0.00    +0.000 A 
ATOM     18  C   UNL     1      -0.877  11.256  18.979  0.00  0.00    +0.000 A 
ATOM     19 CL   UNL     1      -1.996  11.642  17.731  0.00  0.00    +0.000 Cl
ATOM     20  C   UNL     1      -0.221  10.024  18.966  0.00  0.00    +0.000 A 
ENDBRANCH   3  14
TORSDOF 1
ENDMDL
MODEL 7
REMARK VINA RESULT:      -6.3      4.789      7.378
REMARK  Name = 
REMARK  2 active torsions:
REMARK  status: ('A' for Active; 'I' for Inactive)
REMARK    1  A    between atoms: C_1  and  N_2
REMARK    2  A    between atoms: C_3  and  C_4
REMARK                            x       y       z     vdW  Elec       q    Type
REMARK                         _______ _______ _______ _____ _____    ______ ____
ROOT
ATOM      1  C   UNL     1       2.933   8.016  17.996  0.00  0.00    +0.000 C 
ATOM      2  N   UNL     1       2.632   7.106  19.067  0.00  0.00    +0.000 N 
ATOM      3  C   UNL     1       1.849   7.326  20.187  0.00  0.00    +0.000 A 
ATOM      4  N   UNL     1       1.847   6.217  20.901  0.00  0.00    +0.000 NA
ATOM      5  N   UNL     1       2.710   5.312  20.321  0.00  0.00    +0.000 NA
ATOM      6  C   UNL     1       3.170   5.839  19.206  0.00  0.00    +0.000 A 
ATOM      7  N   UNL     1       4.146   5.368  18.381  0.00  0.00    +0.000 N 
ATOM      8  C   UNL     1       5.117   4.417  18.949  0.00  0.00    +0.000 C 
ATOM      9  C   UNL     1       6.480   4.681  18.310  0.00  0.00    +0.000 C 
ATOM     10  S   UNL     1       6.437   4.335  16.518  0.00  0.00    +0.000 S 
ATOM     11  O   UNL     1       7.730   4.960  15.879  0.00  0.00    +0.000 OA
ATOM     12  C   UNL     1       5.048   5.449  16.130  0.00  0.00    +0.000 C 
ATOM     13  C   UNL     1       3.832   5.086  16.975  0.00  0.00    +0.000 C 
ENDROOT
BRANCH   3  14
ATOM     14  C   UNL     1       1.119   8.549  20.544  0.00  0.00    +0.000 A 
ATOM     15  C   UNL     1       0.875   8.920  21.875  0.00  0.00    +0.000 A 
ATOM     16  C   UNL     1       0.229  10.119  22.188  0.00  0.00    +0.000 A 
ATOM     17  C   UNL     1      -0.253  10.931  21.168  0.00  0.00    +0.000 A 
ATOM     18  C   UNL     1      -0.084  10.539  19.841  0.00  0.00    +0.000 A 
ATOM     19 CL   UNL     1      -0.732  11.517  18.582  0.00  0.00    +0.000 Cl
ATOM     20  C   UNL     1       0.601   9.364  19.525  0.00  0.00    +0.000 A 
ENDBRANCH   3  14
TORSDOF 1
ENDMDL
MODEL 8
REMARK VINA RESULT:      -6.3      1.482      1.720
REMARK  Name = 
REMARK  2 active torsions:
REMARK  status: ('A' for Active; 'I' for Inactive)
REMARK    1  A    between atoms: C_1  and  N_2
REMARK    2  A    between atoms: C_3  and  C_4
REMARK                            x       y       z     vdW  Elec       q    Type
REMARK                         _______ _______ _______ _____ _____    ______ ____
ROOT
ATOM      1  C   UNL     1       1.192   8.589  21.525  0.00  0.00    +0.000 C 
ATOM      2  N   UNL     1       1.435   8.715  20.113  0.00  0.00    +0.000 N 
ATOM      3  C   UNL     1       1.972   7.778  19.248  0.00  0.00    +0.000 A 
ATOM      4  N   UNL     1       2.011   8.318  18.044  0.00  0.00    +0.000 NA
ATOM      5  N   UNL     1       1.612   9.634  18.134  0.00  0.00    +0.000 NA
ATOM      6  C   UNL     1       1.247   9.871  19.377  0.00  0.00    +0.000 A 
ATOM      7  N   UNL     1       0.915  11.057  19.956  0.00  0.00    +0.000 N 
ATOM      8  C   UNL     1       1.403  12.289  19.313  0.00  0.00    +0.000 C 
ATOM      9  C   UNL     1       1.729  13.308  20.405  0.00  0.00    +0.000 C 
ATOM     10  S   UNL     1       0.222  13.788  21.316  0.00  0.00    +0.000 S 
ATOM     11  O   UNL     1       0.671  14.535  22.624  0.00  0.00    +0.000 OA
ATOM     12  C   UNL     1      -0.270  12.100  21.798  0.00  0.00    +0.000 C 
ATOM     13  C   UNL     1      -0.413  11.222  20.561  0.00  0.00    +0.000 C 
ENDROOT
BRANCH   3  14
ATOM     14  C   UNL     1       2.412   6.414  19.564  0.00  0.00    +0.000 A 
ATOM     15  C   UNL     1       1.713   5.582  20.452  0.00  0.00    +0.000 A 
ATOM     16  C   UNL     1       2.121   4.267  20.691  0.00  0.00    +0.000 A 
ATOM     17  C   UNL     1       3.285   3.788  20.101  0.00  0.00    +0.000 A 
ATOM     18  C   UNL     1       4.032   4.627  19.275  0.00  0.00    +0.000 A 
ATOM     19 CL   UNL     1       5.502   4.050  18.593  0.00  0.00    +0.000 Cl
ATOM     20  C   UNL     1       3.601   5.926  18.999  0.00  0.00    +0.000 A 
ENDBRANCH   3  14
TORSDOF 1
ENDMDL
MODEL 9
REMARK VINA RESULT:      -6.2      2.384      3.539
REMARK  Name = 
REMARK  2 active torsions:
REMARK  status: ('A' for Active; 'I' for Inactive)
REMARK    1  A    between atoms: C_1  and  N_2
REMARK    2  A    between atoms: C_3  and  C_4
REMARK                            x       y       z     vdW  Elec       q    Type
REMARK                         _______ _______ _______ _____ _____    ______ ____
ROOT
ATOM      1  C   UNL     1      -0.206  10.034  19.336  0.00  0.00    +0.000 C 
ATOM      2  N   UNL     1       0.370   9.826  20.636  0.00  0.00    +0.000 N 
ATOM      3  C   UNL     1       1.180   8.787  21.061  0.00  0.00    +0.000 A 
ATOM      4  N   UNL     1       1.476   9.000  22.329  0.00  0.00    +0.000 NA
ATOM      5  N   UNL     1       0.777  10.104  22.770  0.00  0.00    +0.000 NA
ATOM      6  C   UNL     1       0.124  10.613  21.747  0.00  0.00    +0.000 A 
ATOM      7  N   UNL     1      -0.796  11.617  21.738  0.00  0.00    +0.000 N 
ATOM      8  C   UNL     1      -1.494  11.911  23.002  0.00  0.00    +0.000 C 
ATOM      9  C   UNL     1      -2.931  12.318  22.676  0.00  0.00    +0.000 C 
ATOM     10  S   UNL     1      -2.967  13.870  21.717  0.00  0.00    +0.000 S 
ATOM     11  O   UNL     1      -4.411  14.030  21.118  0.00  0.00    +0.000 OA
ATOM     12  C   UNL     1      -1.881  13.300  20.369  0.00  0.00    +0.000 C 
ATOM     13  C   UNL     1      -0.550  12.820  20.934  0.00  0.00    +0.000 C 
ENDROOT
BRANCH   3  14
ATOM     14  C   UNL     1       1.663   7.647  20.272  0.00  0.00    +0.000 A 
ATOM     15  C   UNL     1       2.271   7.801  19.016  0.00  0.00    +0.000 A 
ATOM     16  C   UNL     1       2.774   6.704  18.313  0.00  0.00    +0.000 A 
ATOM     17  C   UNL     1       2.607   5.421  18.822  0.00  0.00    +0.000 A 
ATOM     18  C   UNL     1       1.938   5.246  20.033  0.00  0.00    +0.000 A 
ATOM     19 CL   UNL     1       1.682   3.653  20.632  0.00  0.00    +0.000 Cl
ATOM     20  C   UNL     1       1.475   6.344  20.760  0.00  0.00    +0.000 A 
ENDBRANCH   3  14
TORSDOF 1
ENDMDL
