MODEL 1
REMARK VINA RESULT:      -7.8      0.000      0.000
REMARK  Name = 
REMARK  5 active torsions:
REMARK  status: ('A' for Active; 'I' for Inactive)
REMARK    1  A    between atoms: C_1  and  C_2
REMARK    2  A    between atoms: C_4  and  C_5
REMARK    3  A    between atoms: C_11  and  C_12
REMARK    4  A    between atoms: C_12  and  O_14
REMARK    5  A    between atoms: C_15  and  C_16
REMARK                            x       y       z     vdW  Elec       q    Type
REMARK                         _______ _______ _______ _____ _____    ______ ____
ROOT
ATOM      1  C   UNL     1       5.652   4.440  18.358  0.00  0.00    +0.000 C 
ATOM      2  O   UNL     1       6.262   4.582  19.418  0.00  0.00    +0.000 OA
ATOM      3  N   UNL     1       4.330   4.023  18.385  0.00  0.00    +0.000 N 
ATOM      4  C   UNL     1       3.421   3.862  17.264  0.00  0.00    +0.000 C 
ATOM      5  C   UNL     1       2.110   4.408  17.780  0.00  0.00    +0.000 C 
ATOM      6  C   UNL     1       2.103   4.014  19.249  0.00  0.00    +0.000 C 
ATOM      7  C   UNL     1       3.587   3.933  19.651  0.00  0.00    +0.000 C 
ENDROOT
BRANCH   1  11
ATOM      8  C   UNL     1       6.949   4.502  13.420  0.00  0.00    +0.000 C 
ATOM      9  C   UNL     1       6.815   4.681  14.878  0.00  0.00    +0.000 A 
ATOM     10  C   UNL     1       6.255   3.917  15.874  0.00  0.00    +0.000 A 
ATOM     11  C   UNL     1       6.263   4.713  17.063  0.00  0.00    +0.000 A 
ATOM     12  C   UNL     1       6.983   5.850  16.729  0.00  0.00    +0.000 A 
ATOM     13  C   UNL     1       7.414   7.066  17.452  0.00  0.00    +0.000 C 
ATOM     14  O   UNL     1       7.292   5.842  15.398  0.00  0.00    +0.000 OA
ENDBRANCH   1  11
BRANCH   7  15
ATOM     15  C   UNL     1       3.913   2.632  20.408  0.00  0.00    +0.000 C 
ATOM     16  O   UNL     1       3.401   2.286  21.461  0.00  0.00    +0.000 OA
BRANCH  15  17
ATOM     17  O   UNL     1       4.885   1.893  19.815  0.00  0.00    +0.000 OA
ATOM     18  H   UNL     1       5.249   1.190  20.405  0.00  0.00    +0.000 HD
ENDBRANCH  15  17
ENDBRANCH   7  15
TORSDOF 3
ENDMDL
MODEL 2
REMARK VINA RESULT:      -7.7      1.392      1.528
REMARK  Name = 
REMARK  5 active torsions:
REMARK  status: ('A' for Active; 'I' for Inactive)
REMARK    1  A    between atoms: C_1  and  C_2
REMARK    2  A    between atoms: C_4  and  C_5
REMARK    3  A    between atoms: C_11  and  C_12
REMARK    4  A    between atoms: C_12  and  O_14
REMARK    5  A    between atoms: C_15  and  C_16
REMARK                            x       y       z     vdW  Elec       q    Type
REMARK                         _______ _______ _______ _____ _____    ______ ____
ROOT
ATOM      1  C   UNL     1       5.230   4.435  18.478  0.00  0.00    +0.000 C 
ATOM      2  O   UNL     1       5.640   3.707  19.381  0.00  0.00    +0.000 OA
ATOM      3  N   UNL     1       3.998   5.058  18.614  0.00  0.00    +0.000 N 
ATOM      4  C   UNL     1       3.369   6.000  17.705  0.00  0.00    +0.000 C 
ATOM      5  C   UNL     1       2.759   7.035  18.623  0.00  0.00    +0.000 C 
ATOM      6  C   UNL     1       2.313   6.230  19.835  0.00  0.00    +0.000 C 
ATOM      7  C   UNL     1       3.264   5.022  19.887  0.00  0.00    +0.000 C 
ENDROOT
BRANCH   1  11
ATOM      8  C   UNL     1       6.975   4.643  13.684  0.00  0.00    +0.000 C 
ATOM      9  C   UNL     1       6.740   4.725  15.138  0.00  0.00    +0.000 A 
ATOM     10  C   UNL     1       5.955   4.007  16.008  0.00  0.00    +0.000 A 
ATOM     11  C   UNL     1       6.001   4.687  17.267  0.00  0.00    +0.000 A 
ATOM     12  C   UNL     1       6.950   5.684  17.102  0.00  0.00    +0.000 A 
ATOM     13  C   UNL     1       7.532   6.730  17.972  0.00  0.00    +0.000 C 
ATOM     14  O   UNL     1       7.376   5.724  15.804  0.00  0.00    +0.000 OA
ENDBRANCH   1  11
BRANCH   7  15
ATOM     15  C   UNL     1       2.505   3.694  20.066  0.00  0.00    +0.000 C 
ATOM     16  O   UNL     1       1.377   3.470  19.657  0.00  0.00    +0.000 OA
BRANCH  15  17
ATOM     17  O   UNL     1       3.197   2.770  20.782  0.00  0.00    +0.000 OA
ATOM     18  H   UNL     1       2.832   2.633  21.689  0.00  0.00    +0.000 HD
ENDBRANCH  15  17
ENDBRANCH   7  15
TORSDOF 3
ENDMDL
MODEL 3
REMARK VINA RESULT:      -7.7      1.032      1.032
REMARK  Name = 
REMARK  5 active torsions:
REMARK  status: ('A' for Active; 'I' for Inactive)
REMARK    1  A    between atoms: C_1  and  C_2
REMARK    2  A    between atoms: C_4  and  C_5
REMARK    3  A    between atoms: C_11  and  C_12
REMARK    4  A    between atoms: C_12  and  O_14
REMARK    5  A    between atoms: C_15  and  C_16
REMARK                            x       y       z     vdW  Elec       q    Type
REMARK                         _______ _______ _______ _____ _____    ______ ____
ROOT
ATOM      1  C   UNL     1       5.172   4.280  18.051  0.00  0.00    +0.000 C 
ATOM      2  O   UNL     1       5.946   4.497  18.983  0.00  0.00    +0.000 OA
ATOM      3  N   UNL     1       3.896   3.809  18.323  0.00  0.00    +0.000 N 
ATOM      4  C   UNL     1       2.818   3.556  17.383  0.00  0.00    +0.000 C 
ATOM      5  C   UNL     1       1.589   4.070  18.097  0.00  0.00    +0.000 C 
ATOM      6  C   UNL     1       1.854   3.746  19.559  0.00  0.00    +0.000 C 
ATOM      7  C   UNL     1       3.386   3.747  19.701  0.00  0.00    +0.000 C 
ENDROOT
BRANCH   1  11
ATOM      8  C   UNL     1       6.353   3.823  13.105  0.00  0.00    +0.000 C 
ATOM      9  C   UNL     1       6.080   4.256  14.488  0.00  0.00    +0.000 A 
ATOM     10  C   UNL     1       6.067   3.601  15.696  0.00  0.00    +0.000 A 
ATOM     11  C   UNL     1       5.538   4.517  16.660  0.00  0.00    +0.000 A 
ATOM     12  C   UNL     1       5.421   5.722  15.984  0.00  0.00    +0.000 A 
ATOM     13  C   UNL     1       4.985   7.088  16.348  0.00  0.00    +0.000 C 
ATOM     14  O   UNL     1       5.723   5.555  14.662  0.00  0.00    +0.000 OA
ENDBRANCH   1  11
BRANCH   7  15
ATOM     15  C   UNL     1       3.901   2.499  20.441  0.00  0.00    +0.000 C 
ATOM     16  O   UNL     1       3.523   2.130  21.542  0.00  0.00    +0.000 OA
BRANCH  15  17
ATOM     17  O   UNL     1       4.880   1.840  19.768  0.00  0.00    +0.000 OA
ATOM     18  H   UNL     1       4.990   2.157  18.839  0.00  0.00    +0.000 HD
ENDBRANCH  15  17
ENDBRANCH   7  15
TORSDOF 3
ENDMDL
MODEL 4
REMARK VINA RESULT:      -7.6      1.936      2.233
REMARK  Name = 
REMARK  5 active torsions:
REMARK  status: ('A' for Active; 'I' for Inactive)
REMARK    1  A    between atoms: C_1  and  C_2
REMARK    2  A    between atoms: C_4  and  C_5
REMARK    3  A    between atoms: C_11  and  C_12
REMARK    4  A    between atoms: C_12  and  O_14
REMARK    5  A    between atoms: C_15  and  C_16
REMARK                            x       y       z     vdW  Elec       q    Type
REMARK                         _______ _______ _______ _____ _____    ______ ____
ROOT
ATOM      1  C   UNL     1       4.346   5.648  17.203  0.00  0.00    +0.000 C 
ATOM      2  O   UNL     1       4.034   6.820  17.414  0.00  0.00    +0.000 OA
ATOM      3  N   UNL     1       3.599   4.631  17.781  0.00  0.00    +0.000 N 
ATOM      4  C   UNL     1       3.756   3.199  17.606  0.00  0.00    +0.000 C 
ATOM      5  C   UNL     1       2.336   2.689  17.507  0.00  0.00    +0.000 C 
ATOM      6  C   UNL     1       1.559   3.590  18.454  0.00  0.00    +0.000 C 
ATOM      7  C   UNL     1       2.336   4.918  18.477  0.00  0.00    +0.000 C 
ENDROOT
BRANCH   1  11
ATOM      8  C   UNL     1       7.513   4.831  13.283  0.00  0.00    +0.000 C 
ATOM      9  C   UNL     1       6.816   4.916  14.580  0.00  0.00    +0.000 A 
ATOM     10  C   UNL     1       5.497   5.075  14.933  0.00  0.00    +0.000 A 
ATOM     11  C   UNL     1       5.468   5.279  16.349  0.00  0.00    +0.000 A 
ATOM     12  C   UNL     1       6.772   5.065  16.770  0.00  0.00    +0.000 A 
ATOM     13  C   UNL     1       7.464   5.071  18.078  0.00  0.00    +0.000 C 
ATOM     14  O   UNL     1       7.592   4.873  15.694  0.00  0.00    +0.000 OA
ENDBRANCH   1  11
BRANCH   7  15
ATOM     15  C   UNL     1       2.581   5.423  19.911  0.00  0.00    +0.000 C 
ATOM     16  O   UNL     1       2.629   4.716  20.905  0.00  0.00    +0.000 OA
BRANCH  15  17
ATOM     17  O   UNL     1       2.698   6.773  19.994  0.00  0.00    +0.000 OA
ATOM     18  H   UNL     1       3.494   7.060  20.503  0.00  0.00    +0.000 HD
ENDBRANCH  15  17
ENDBRANCH   7  15
TORSDOF 3
ENDMDL
MODEL 5
REMARK VINA RESULT:      -7.6      1.818      5.473
REMARK  Name = 
REMARK  5 active torsions:
REMARK  status: ('A' for Active; 'I' for Inactive)
REMARK    1  A    between atoms: C_1  and  C_2
REMARK    2  A    between atoms: C_4  and  C_5
REMARK    3  A    between atoms: C_11  and  C_12
REMARK    4  A    between atoms: C_12  and  O_14
REMARK    5  A    between atoms: C_15  and  C_16
REMARK                            x       y       z     vdW  Elec       q    Type
REMARK                         _______ _______ _______ _____ _____    ______ ____
ROOT
ATOM      1  C   UNL     1       5.406   4.988  19.144  0.00  0.00    +0.000 C 
ATOM      2  O   UNL     1       6.311   5.081  19.974  0.00  0.00    +0.000 OA
ATOM      3  N   UNL     1       5.685   5.221  17.805  0.00  0.00    +0.000 N 
ATOM      4  C   UNL     1       4.786   5.098  16.672  0.00  0.00    +0.000 C 
ATOM      5  C   UNL     1       5.639   4.456  15.602  0.00  0.00    +0.000 C 
ATOM      6  C   UNL     1       7.021   5.048  15.834  0.00  0.00    +0.000 C 
ATOM      7  C   UNL     1       7.068   5.385  17.335  0.00  0.00    +0.000 C 
ENDROOT
BRANCH   1  11
ATOM      8  C   UNL     1       1.230   2.704  20.990  0.00  0.00    +0.000 C 
ATOM      9  C   UNL     1       2.230   3.558  20.325  0.00  0.00    +0.000 A 
ATOM     10  C   UNL     1       3.529   3.351  19.923  0.00  0.00    +0.000 A 
ATOM     11  C   UNL     1       4.044   4.622  19.511  0.00  0.00    +0.000 A 
ATOM     12  C   UNL     1       2.954   5.479  19.544  0.00  0.00    +0.000 A 
ATOM     13  C   UNL     1       2.735   6.906  19.222  0.00  0.00    +0.000 C 
ATOM     14  O   UNL     1       1.863   4.840  20.064  0.00  0.00    +0.000 OA
ENDBRANCH   1  11
BRANCH   7  15
ATOM     15  C   UNL     1       7.589   6.811  17.593  0.00  0.00    +0.000 C 
ATOM     16  O   UNL     1       7.466   7.753  16.825  0.00  0.00    +0.000 OA
BRANCH  15  17
ATOM     17  O   UNL     1       8.262   6.935  18.766  0.00  0.00    +0.000 OA
ATOM     18  H   UNL     1       8.671   6.088  19.067  0.00  0.00    +0.000 HD
ENDBRANCH  15  17
ENDBRANCH   7  15
TORSDOF 3
ENDMDL
MODEL 6
REMARK VINA RESULT:      -7.5      2.655      3.839
REMARK  Name = 
REMARK  5 active torsions:
REMARK  status: ('A' for Active; 'I' for Inactive)
REMARK    1  A    between atoms: C_1  and  C_2
REMARK    2  A    between atoms: C_4  and  C_5
REMARK    3  A    between atoms: C_11  and  C_12
REMARK    4  A    between atoms: C_12  and  O_14
REMARK    5  A    between atoms: C_15  and  C_16
REMARK                            x       y       z     vdW  Elec       q    Type
REMARK                         _______ _______ _______ _____ _____    ______ ____
ROOT
ATOM      1  C   UNL     1       3.802   5.230  19.182  0.00  0.00    +0.000 C 
ATOM      2  O   UNL     1       4.948   5.081  19.607  0.00  0.00    +0.000 OA
ATOM      3  N   UNL     1       2.871   4.219  19.369  0.00  0.00    +0.000 N 
ATOM      4  C   UNL     1       1.464   4.224  19.010  0.00  0.00    +0.000 C 
ATOM      5  C   UNL     1       0.788   3.561  20.188  0.00  0.00    +0.000 C 
ATOM      6  C   UNL     1       1.791   2.511  20.641  0.00  0.00    +0.000 C 
ATOM      7  C   UNL     1       3.166   3.063  20.229  0.00  0.00    +0.000 C 
ENDROOT
BRANCH   1  11
ATOM      8  C   UNL     1       1.812   9.767  17.948  0.00  0.00    +0.000 C 
ATOM      9  C   UNL     1       2.453   8.440  18.000  0.00  0.00    +0.000 A 
ATOM     10  C   UNL     1       2.356   7.379  18.869  0.00  0.00    +0.000 A 
ATOM     11  C   UNL     1       3.374   6.444  18.498  0.00  0.00    +0.000 A 
ATOM     12  C   UNL     1       3.909   6.943  17.320  0.00  0.00    +0.000 A 
ATOM     13  C   UNL     1       4.954   6.496  16.373  0.00  0.00    +0.000 C 
ATOM     14  O   UNL     1       3.370   8.166  17.035  0.00  0.00    +0.000 OA
ENDBRANCH   1  11
BRANCH   7  15
ATOM     15  C   UNL     1       4.017   2.012  19.492  0.00  0.00    +0.000 C 
ATOM     16  O   UNL     1       3.623   1.308  18.575  0.00  0.00    +0.000 OA
BRANCH  15  17
ATOM     17  O   UNL     1       5.275   1.891  19.990  0.00  0.00    +0.000 OA
ATOM     18  H   UNL     1       5.952   1.724  19.290  0.00  0.00    +0.000 HD
ENDBRANCH  15  17
ENDBRANCH   7  15
TORSDOF 3
ENDMDL
MODEL 7
REMARK VINA RESULT:      -7.4      1.812      3.027
REMARK  Name = 
REMARK  5 active torsions:
REMARK  status: ('A' for Active; 'I' for Inactive)
REMARK    1  A    between atoms: C_1  and  C_2
REMARK    2  A    between atoms: C_4  and  C_5
REMARK    3  A    between atoms: C_11  and  C_12
REMARK    4  A    between atoms: C_12  and  O_14
REMARK    5  A    between atoms: C_15  and  C_16
REMARK                            x       y       z     vdW  Elec       q    Type
REMARK                         _______ _______ _______ _____ _____    ______ ____
ROOT
ATOM      1  C   UNL     1       4.346   3.624  19.027  0.00  0.00    +0.000 C 
ATOM      2  O   UNL     1       4.621   2.435  19.198  0.00  0.00    +0.000 OA
ATOM      3  N   UNL     1       3.069   4.075  19.329  0.00  0.00    +0.000 N 
ATOM      4  C   UNL     1       2.566   5.435  19.266  0.00  0.00    +0.000 C 
ATOM      5  C   UNL     1       1.712   5.563  20.507  0.00  0.00    +0.000 C 
ATOM      6  C   UNL     1       1.095   4.182  20.669  0.00  0.00    +0.000 C 
ATOM      7  C   UNL     1       2.102   3.213  20.025  0.00  0.00    +0.000 C 
ENDROOT
BRANCH   1  11
ATOM      8  C   UNL     1       8.177   6.960  18.523  0.00  0.00    +0.000 C 
ATOM      9  C   UNL     1       7.007   6.075  18.373  0.00  0.00    +0.000 A 
ATOM     10  C   UNL     1       6.130   5.512  19.270  0.00  0.00    +0.000 A 
ATOM     11  C   UNL     1       5.320   4.588  18.534  0.00  0.00    +0.000 A 
ATOM     12  C   UNL     1       5.666   4.786  17.206  0.00  0.00    +0.000 A 
ATOM     13  C   UNL     1       5.223   4.219  15.914  0.00  0.00    +0.000 C 
ATOM     14  O   UNL     1       6.707   5.666  17.113  0.00  0.00    +0.000 OA
ENDBRANCH   1  11
BRANCH   7  15
ATOM     15  C   UNL     1       1.422   2.228  19.056  0.00  0.00    +0.000 C 
ATOM     16  O   UNL     1       0.245   2.263  18.731  0.00  0.00    +0.000 OA
BRANCH  15  17
ATOM     17  O   UNL     1       2.253   1.252  18.608  0.00  0.00    +0.000 OA
ATOM     18  H   UNL     1       1.836   0.356  18.619  0.00  0.00    +0.000 HD
ENDBRANCH  15  17
ENDBRANCH   7  15
TORSDOF 3
ENDMDL
MODEL 8
REMARK VINA RESULT:      -7.4      1.622      2.020
REMARK  Name = 
REMARK  5 active torsions:
REMARK  status: ('A' for Active; 'I' for Inactive)
REMARK    1  A    between atoms: C_1  and  C_2
REMARK    2  A    between atoms: C_4  and  C_5
REMARK    3  A    between atoms: C_11  and  C_12
REMARK    4  A    between atoms: C_12  and  O_14
REMARK    5  A    between atoms: C_15  and  C_16
REMARK                            x       y       z     vdW  Elec       q    Type
REMARK                         _______ _______ _______ _____ _____    ______ ____
ROOT
ATOM      1  C   UNL     1       4.605   3.862  19.071  0.00  0.00    +0.000 C 
ATOM      2  O   UNL     1       4.974   3.057  19.927  0.00  0.00    +0.000 OA
ATOM      3  N   UNL     1       3.438   4.583  19.276  0.00  0.00    +0.000 N 
ATOM      4  C   UNL     1       2.870   5.620  18.434  0.00  0.00    +0.000 C 
ATOM      5  C   UNL     1       2.381   6.658  19.418  0.00  0.00    +0.000 C 
ATOM      6  C   UNL     1       1.900   5.838  20.605  0.00  0.00    +0.000 C 
ATOM      7  C   UNL     1       2.740   4.549  20.570  0.00  0.00    +0.000 C 
ENDROOT
BRANCH   1  11
ATOM      8  C   UNL     1       6.126   4.401  14.228  0.00  0.00    +0.000 C 
ATOM      9  C   UNL     1       5.987   4.301  15.692  0.00  0.00    +0.000 A 
ATOM     10  C   UNL     1       5.079   3.674  16.513  0.00  0.00    +0.000 A 
ATOM     11  C   UNL     1       5.360   4.104  17.848  0.00  0.00    +0.000 A 
ATOM     12  C   UNL     1       6.532   4.839  17.751  0.00  0.00    +0.000 A 
ATOM     13  C   UNL     1       7.408   5.544  18.711  0.00  0.00    +0.000 C 
ATOM     14  O   UNL     1       6.895   4.981  16.441  0.00  0.00    +0.000 OA
ENDBRANCH   1  11
BRANCH   7  15
ATOM     15  C   UNL     1       1.871   3.286  20.712  0.00  0.00    +0.000 C 
ATOM     16  O   UNL     1       1.187   2.802  19.825  0.00  0.00    +0.000 OA
BRANCH  15  17
ATOM     17  O   UNL     1       1.889   2.757  21.963  0.00  0.00    +0.000 OA
ATOM     18  H   UNL     1       2.704   2.992  22.469  0.00  0.00    +0.000 HD
ENDBRANCH  15  17
ENDBRANCH   7  15
TORSDOF 3
ENDMDL
MODEL 9
REMARK VINA RESULT:      -7.3      1.806      5.266
REMARK  Name = 
REMARK  5 active torsions:
REMARK  status: ('A' for Active; 'I' for Inactive)
REMARK    1  A    between atoms: C_1  and  C_2
REMARK    2  A    between atoms: C_4  and  C_5
REMARK    3  A    between atoms: C_11  and  C_12
REMARK    4  A    between atoms: C_12  and  O_14
REMARK    5  A    between atoms: C_15  and  C_16
REMARK                            x       y       z     vdW  Elec       q    Type
REMARK                         _______ _______ _______ _____ _____    ______ ____
ROOT
ATOM      1  C   UNL     1       5.114   4.646  18.556  0.00  0.00    +0.000 C 
ATOM      2  O   UNL     1       5.868   4.587  19.528  0.00  0.00    +0.000 OA
ATOM      3  N   UNL     1       5.619   5.047  17.328  0.00  0.00    +0.000 N 
ATOM      4  C   UNL     1       4.923   5.118  16.056  0.00  0.00    +0.000 C 
ATOM      5  C   UNL     1       5.932   4.592  15.062  0.00  0.00    +0.000 C 
ATOM      6  C   UNL     1       7.266   5.087  15.599  0.00  0.00    +0.000 C 
ATOM      7  C   UNL     1       7.065   5.215  17.119  0.00  0.00    +0.000 C 
ENDROOT
BRANCH   1  11
ATOM      8  C   UNL     1       0.642   2.201  18.841  0.00  0.00    +0.000 C 
ATOM      9  C   UNL     1       1.755   3.163  18.737  0.00  0.00    +0.000 A 
ATOM     10  C   UNL     1       3.063   3.050  18.331  0.00  0.00    +0.000 A 
ATOM     11  C   UNL     1       3.703   4.292  18.640  0.00  0.00    +0.000 A 
ATOM     12  C   UNL     1       2.681   5.127  19.065  0.00  0.00    +0.000 A 
ATOM     13  C   UNL     1       2.595   6.537  19.504  0.00  0.00    +0.000 C 
ATOM     14  O   UNL     1       1.506   4.433  19.150  0.00  0.00    +0.000 OA
ENDBRANCH   1  11
BRANCH   7  15
ATOM     15  C   UNL     1       7.562   6.570  17.658  0.00  0.00    +0.000 C 
ATOM     16  O   UNL     1       8.142   6.733  18.720  0.00  0.00    +0.000 OA
BRANCH  15  17
ATOM     17  O   UNL     1       7.252   7.617  16.850  0.00  0.00    +0.000 OA
ATOM     18  H   UNL     1       6.984   7.337  15.942  0.00  0.00    +0.000 HD
ENDBRANCH  15  17
ENDBRANCH   7  15
TORSDOF 3
ENDMDL
