MODEL 1
REMARK VINA RESULT:      -8.4      0.000      0.000
REMARK  Name = 
REMARK  10 active torsions:
REMARK  status: ('A' for Active; 'I' for Inactive)
REMARK    1  A    between atoms: C_2  and  C_3
REMARK    2  A    between atoms: C_3  and  C_4
REMARK    3  A    between atoms: C_4  and  C_5
REMARK    4  A    between atoms: C_5  and  N_6
REMARK    5  A    between atoms: C_7  and  S_8
REMARK    6  A    between atoms: S_8  and  C_9
REMARK    7  A    between atoms: C_9  and  C_10
REMARK    8  A    between atoms: C_10  and  C_12
REMARK    9  A    between atoms: N_28  and  C_29
REMARK   10  A    between atoms: C_29  and  C_30
REMARK                            x       y       z     vdW  Elec       q    Type
REMARK                         _______ _______ _______ _____ _____    ______ ____
ROOT
ATOM      1  N   UNL     1       4.089   5.967  18.603  0.00  0.00    +0.000 N 
ATOM      2  C   UNL     1       2.824   6.533  18.780  0.00  0.00    +0.000 A 
ATOM      3  N   UNL     1       1.863   5.957  19.428  0.00  0.00    +0.000 NA
ATOM      4  C   UNL     1       2.114   4.713  20.030  0.00  0.00    +0.000 A 
ATOM      5  C   UNL     1       1.080   4.029  20.675  0.00  0.00    +0.000 A 
ATOM      6  C   UNL     1       1.318   2.808  21.323  0.00  0.00    +0.000 A 
ATOM      7  C   UNL     1       2.601   2.264  21.352  0.00  0.00    +0.000 A 
ATOM      8  C   UNL     1       3.635   2.921  20.695  0.00  0.00    +0.000 A 
ATOM      9  C   UNL     1       3.373   4.121  20.021  0.00  0.00    +0.000 A 
ATOM     10  C   UNL     1       4.417   4.770  19.234  0.00  0.00    +0.000 A 
ATOM     11  O   UNL     1       5.524   4.227  19.164  0.00  0.00    +0.000 OA
ENDROOT
BRANCH   1  12
ATOM     12  C   UNL     1       5.154   6.539  17.764  0.00  0.00    +0.000 C 
BRANCH  12  13
ATOM     13  C   UNL     1       5.143   6.042  16.312  0.00  0.00    +0.000 C 
BRANCH  13  14
ATOM     14  C   UNL     1       6.086   4.868  16.054  0.00  0.00    +0.000 C 
BRANCH  14  16
ATOM     15  O   UNL     1       7.904   5.646  14.662  0.00  0.00    +0.000 OA
ATOM     16  C   UNL     1       6.864   5.008  14.760  0.00  0.00    +0.000 C 
ATOM     17  N   UNL     1       6.266   4.347  13.712  0.00  0.00    +0.000 N 
ATOM     18  H   UNL     1       5.468   3.752  13.892  0.00  0.00    +0.000 HD
BRANCH  17  19
ATOM     19  C   UNL     1       6.905   4.230  12.419  0.00  0.00    +0.000 C 
BRANCH  19  20
ATOM     20  C   UNL     1       6.545   2.924  11.811  0.00  0.00    +0.000 A 
ATOM     21  C   UNL     1       5.354   2.237  11.671  0.00  0.00    +0.000 A 
ATOM     22  C   UNL     1       5.662   1.031  10.998  0.00  0.00    +0.000 A 
ATOM     23  C   UNL     1       7.020   1.049  10.783  0.00  0.00    +0.000 A 
ATOM     24  O   UNL     1       7.564   2.195  11.268  0.00  0.00    +0.000 OA
ENDBRANCH  19  20
ENDBRANCH  17  19
ENDBRANCH  14  16
ENDBRANCH  13  14
ENDBRANCH  12  13
ENDBRANCH   1  12
BRANCH   2  25
ATOM     25  S   UNL     1       2.527   8.083  18.009  0.00  0.00    +0.000 S 
BRANCH  25  26
ATOM     26  C   UNL     1       1.488   8.978  19.191  0.00  0.00    +0.000 C 
BRANCH  26  27
ATOM     27  C   UNL     1       1.076  10.369  18.729  0.00  0.00    +0.000 C 
ATOM     28  O   UNL     1       1.828  11.341  18.698  0.00  0.00    +0.000 OA
BRANCH  27  29
ATOM     29  C   UNL     1      -0.365  10.571  18.362  0.00  0.00    +0.000 A 
ATOM     30  C   UNL     1      -1.058  11.639  18.948  0.00  0.00    +0.000 A 
ATOM     31  C   UNL     1      -2.435  11.791  18.742  0.00  0.00    +0.000 A 
ATOM     32  C   UNL     1      -3.118  10.890  17.929  0.00  0.00    +0.000 A 
ATOM     33 CL   UNL     1      -4.823  11.019  17.746  0.00  0.00    +0.000 Cl
ATOM     34  C   UNL     1      -2.425   9.870  17.278  0.00  0.00    +0.000 A 
ATOM     35  C   UNL     1      -1.050   9.709  17.491  0.00  0.00    +0.000 A 
ENDBRANCH  27  29
ENDBRANCH  26  27
ENDBRANCH  25  26
ENDBRANCH   2  25
TORSDOF 10
ENDMDL
MODEL 2
REMARK VINA RESULT:      -8.1      3.534      9.277
REMARK  Name = 
REMARK  10 active torsions:
REMARK  status: ('A' for Active; 'I' for Inactive)
REMARK    1  A    between atoms: C_2  and  C_3
REMARK    2  A    between atoms: C_3  and  C_4
REMARK    3  A    between atoms: C_4  and  C_5
REMARK    4  A    between atoms: C_5  and  N_6
REMARK    5  A    between atoms: C_7  and  S_8
REMARK    6  A    between atoms: S_8  and  C_9
REMARK    7  A    between atoms: C_9  and  C_10
REMARK    8  A    between atoms: C_10  and  C_12
REMARK    9  A    between atoms: N_28  and  C_29
REMARK   10  A    between atoms: C_29  and  C_30
REMARK                            x       y       z     vdW  Elec       q    Type
REMARK                         _______ _______ _______ _____ _____    ______ ____
ROOT
ATOM      1  N   UNL     1       2.940   6.663  19.209  0.00  0.00    +0.000 N 
ATOM      2  C   UNL     1       3.901   5.939  18.499  0.00  0.00    +0.000 A 
ATOM      3  N   UNL     1       4.180   4.697  18.731  0.00  0.00    +0.000 NA
ATOM      4  C   UNL     1       3.447   4.019  19.720  0.00  0.00    +0.000 A 
ATOM      5  C   UNL     1       3.771   2.699  20.047  0.00  0.00    +0.000 A 
ATOM      6  C   UNL     1       3.024   1.989  20.997  0.00  0.00    +0.000 A 
ATOM      7  C   UNL     1       1.927   2.583  21.619  0.00  0.00    +0.000 A 
ATOM      8  C   UNL     1       1.607   3.902  21.321  0.00  0.00    +0.000 A 
ATOM      9  C   UNL     1       2.386   4.611  20.397  0.00  0.00    +0.000 A 
ATOM     10  C   UNL     1       2.136   6.027  20.151  0.00  0.00    +0.000 A 
ATOM     11  O   UNL     1       1.237   6.585  20.789  0.00  0.00    +0.000 OA
ENDROOT
BRANCH   1  12
ATOM     12  C   UNL     1       2.694   8.107  19.056  0.00  0.00    +0.000 C 
BRANCH  12  13
ATOM     13  C   UNL     1       1.735   8.460  17.912  0.00  0.00    +0.000 C 
BRANCH  13  14
ATOM     14  C   UNL     1       1.614   9.960  17.649  0.00  0.00    +0.000 C 
BRANCH  14  16
ATOM     15  O   UNL     1      -0.609  10.487  18.442  0.00  0.00    +0.000 OA
ATOM     16  C   UNL     1       0.601  10.638  18.551  0.00  0.00    +0.000 C 
ATOM     17  N   UNL     1       1.193  11.444  19.496  0.00  0.00    +0.000 N 
ATOM     18  H   UNL     1       2.200  11.435  19.594  0.00  0.00    +0.000 HD
BRANCH  17  19
ATOM     19  C   UNL     1       0.427  12.077  20.547  0.00  0.00    +0.000 C 
BRANCH  19  20
ATOM     20  C   UNL     1       0.162  11.089  21.624  0.00  0.00    +0.000 A 
ATOM     21  C   UNL     1      -0.896  10.886  22.488  0.00  0.00    +0.000 A 
ATOM     22  C   UNL     1      -0.552   9.774  23.292  0.00  0.00    +0.000 A 
ATOM     23  C   UNL     1       0.699   9.377  22.881  0.00  0.00    +0.000 A 
ATOM     24  O   UNL     1       1.139  10.165  21.866  0.00  0.00    +0.000 OA
ENDBRANCH  19  20
ENDBRANCH  17  19
ENDBRANCH  14  16
ENDBRANCH  13  14
ENDBRANCH  12  13
ENDBRANCH   1  12
BRANCH   2  25
ATOM     25  S   UNL     1       4.814   6.808  17.276  0.00  0.00    +0.000 S 
BRANCH  25  26
ATOM     26  C   UNL     1       6.542   6.586  17.766  0.00  0.00    +0.000 C 
BRANCH  26  27
ATOM     27  C   UNL     1       7.115   5.217  17.429  0.00  0.00    +0.000 C 
ATOM     28  O   UNL     1       7.864   4.578  18.164  0.00  0.00    +0.000 OA
BRANCH  27  29
ATOM     29  C   UNL     1       6.795   4.655  16.074  0.00  0.00    +0.000 A 
ATOM     30  C   UNL     1       7.471   5.175  14.961  0.00  0.00    +0.000 A 
ATOM     31  C   UNL     1       7.115   4.780  13.666  0.00  0.00    +0.000 A 
ATOM     32  C   UNL     1       6.101   3.844  13.480  0.00  0.00    +0.000 A 
ATOM     33 CL   UNL     1       5.601   3.424  11.890  0.00  0.00    +0.000 Cl
ATOM     34  C   UNL     1       5.476   3.261  14.582  0.00  0.00    +0.000 A 
ATOM     35  C   UNL     1       5.822   3.663  15.879  0.00  0.00    +0.000 A 
ENDBRANCH  27  29
ENDBRANCH  26  27
ENDBRANCH  25  26
ENDBRANCH   2  25
TORSDOF 10
ENDMDL
MODEL 3
REMARK VINA RESULT:      -8.0      4.023      6.061
REMARK  Name = 
REMARK  10 active torsions:
REMARK  status: ('A' for Active; 'I' for Inactive)
REMARK    1  A    between atoms: C_2  and  C_3
REMARK    2  A    between atoms: C_3  and  C_4
REMARK    3  A    between atoms: C_4  and  C_5
REMARK    4  A    between atoms: C_5  and  N_6
REMARK    5  A    between atoms: C_7  and  S_8
REMARK    6  A    between atoms: S_8  and  C_9
REMARK    7  A    between atoms: C_9  and  C_10
REMARK    8  A    between atoms: C_10  and  C_12
REMARK    9  A    between atoms: N_28  and  C_29
REMARK   10  A    between atoms: C_29  and  C_30
REMARK                            x       y       z     vdW  Elec       q    Type
REMARK                         _______ _______ _______ _____ _____    ______ ____
ROOT
ATOM      1  N   UNL     1       4.274   5.675  17.096  0.00  0.00    +0.000 N 
ATOM      2  C   UNL     1       3.215   6.347  17.711  0.00  0.00    +0.000 A 
ATOM      3  N   UNL     1       2.207   5.750  18.260  0.00  0.00    +0.000 NA
ATOM      4  C   UNL     1       2.191   4.346  18.282  0.00  0.00    +0.000 A 
ATOM      5  C   UNL     1       1.084   3.668  18.799  0.00  0.00    +0.000 A 
ATOM      6  C   UNL     1       1.067   2.268  18.874  0.00  0.00    +0.000 A 
ATOM      7  C   UNL     1       2.169   1.525  18.450  0.00  0.00    +0.000 A 
ATOM      8  C   UNL     1       3.267   2.184  17.911  0.00  0.00    +0.000 A 
ATOM      9  C   UNL     1       3.253   3.582  17.809  0.00  0.00    +0.000 A 
ATOM     10  C   UNL     1       4.348   4.285  17.148  0.00  0.00    +0.000 A 
ATOM     11  O   UNL     1       5.271   3.620  16.668  0.00  0.00    +0.000 OA
ENDROOT
BRANCH   1  12
ATOM     12  C   UNL     1       5.365   6.328  16.354  0.00  0.00    +0.000 C 
BRANCH  12  13
ATOM     13  C   UNL     1       6.637   6.555  17.181  0.00  0.00    +0.000 C 
BRANCH  13  14
ATOM     14  C   UNL     1       7.240   7.949  17.014  0.00  0.00    +0.000 C 
BRANCH  14  16
ATOM     15  O   UNL     1       8.623   7.526  18.952  0.00  0.00    +0.000 OA
ATOM     16  C   UNL     1       8.165   8.332  18.153  0.00  0.00    +0.000 C 
ATOM     17  N   UNL     1       8.423   9.683  18.190  0.00  0.00    +0.000 N 
ATOM     18  H   UNL     1       8.097  10.271  17.434  0.00  0.00    +0.000 HD
BRANCH  17  19
ATOM     19  C   UNL     1       9.388  10.251  19.106  0.00  0.00    +0.000 C 
BRANCH  19  20
ATOM     20  C   UNL     1      10.024  11.436  18.475  0.00  0.00    +0.000 A 
ATOM     21  C   UNL     1      11.285  11.678  17.964  0.00  0.00    +0.000 A 
ATOM     22  C   UNL     1      11.281  13.014  17.500  0.00  0.00    +0.000 A 
ATOM     23  C   UNL     1      10.026  13.509  17.769  0.00  0.00    +0.000 A 
ATOM     24  O   UNL     1       9.255  12.558  18.356  0.00  0.00    +0.000 OA
ENDBRANCH  19  20
ENDBRANCH  17  19
ENDBRANCH  14  16
ENDBRANCH  13  14
ENDBRANCH  12  13
ENDBRANCH   1  12
BRANCH   2  25
ATOM     25  S   UNL     1       3.247   8.103  17.663  0.00  0.00    +0.000 S 
BRANCH  25  26
ATOM     26  C   UNL     1       1.623   8.597  18.289  0.00  0.00    +0.000 C 
BRANCH  26  27
ATOM     27  C   UNL     1       1.504  10.081  18.610  0.00  0.00    +0.000 C 
ATOM     28  O   UNL     1       2.175  10.962  18.077  0.00  0.00    +0.000 OA
BRANCH  27  29
ATOM     29  C   UNL     1       0.554  10.471  19.705  0.00  0.00    +0.000 A 
ATOM     30  C   UNL     1      -0.309  11.553  19.482  0.00  0.00    +0.000 A 
ATOM     31  C   UNL     1      -1.119  12.039  20.516  0.00  0.00    +0.000 A 
ATOM     32  C   UNL     1      -1.087  11.429  21.768  0.00  0.00    +0.000 A 
ATOM     33 CL   UNL     1      -2.011  12.078  23.064  0.00  0.00    +0.000 Cl
ATOM     34  C   UNL     1      -0.290  10.304  21.978  0.00  0.00    +0.000 A 
ATOM     35  C   UNL     1       0.529   9.822  20.949  0.00  0.00    +0.000 A 
ENDBRANCH  27  29
ENDBRANCH  26  27
ENDBRANCH  25  26
ENDBRANCH   2  25
TORSDOF 10
ENDMDL
MODEL 4
REMARK VINA RESULT:      -8.0      3.789      5.895
REMARK  Name = 
REMARK  10 active torsions:
REMARK  status: ('A' for Active; 'I' for Inactive)
REMARK    1  A    between atoms: C_2  and  C_3
REMARK    2  A    between atoms: C_3  and  C_4
REMARK    3  A    between atoms: C_4  and  C_5
REMARK    4  A    between atoms: C_5  and  N_6
REMARK    5  A    between atoms: C_7  and  S_8
REMARK    6  A    between atoms: S_8  and  C_9
REMARK    7  A    between atoms: C_9  and  C_10
REMARK    8  A    between atoms: C_10  and  C_12
REMARK    9  A    between atoms: N_28  and  C_29
REMARK   10  A    between atoms: C_29  and  C_30
REMARK                            x       y       z     vdW  Elec       q    Type
REMARK                         _______ _______ _______ _____ _____    ______ ____
ROOT
ATOM      1  N   UNL     1       4.089   5.830  17.278  0.00  0.00    +0.000 N 
ATOM      2  C   UNL     1       3.029   6.461  17.933  0.00  0.00    +0.000 A 
ATOM      3  N   UNL     1       2.030   5.827  18.457  0.00  0.00    +0.000 NA
ATOM      4  C   UNL     1       2.026   4.423  18.406  0.00  0.00    +0.000 A 
ATOM      5  C   UNL     1       0.929   3.710  18.895  0.00  0.00    +0.000 A 
ATOM      6  C   UNL     1       0.924   2.308  18.898  0.00  0.00    +0.000 A 
ATOM      7  C   UNL     1       2.029   1.598  18.429  0.00  0.00    +0.000 A 
ATOM      8  C   UNL     1       3.119   2.293  17.919  0.00  0.00    +0.000 A 
ATOM      9  C   UNL     1       3.092   3.694  17.888  0.00  0.00    +0.000 A 
ATOM     10  C   UNL     1       4.176   4.441  17.257  0.00  0.00    +0.000 A 
ATOM     11  O   UNL     1       5.101   3.808  16.738  0.00  0.00    +0.000 OA
ENDROOT
BRANCH   1  12
ATOM     12  C   UNL     1       5.169   6.530  16.563  0.00  0.00    +0.000 C 
BRANCH  12  13
ATOM     13  C   UNL     1       6.493   6.594  17.336  0.00  0.00    +0.000 C 
BRANCH  13  14
ATOM     14  C   UNL     1       7.337   7.826  17.013  0.00  0.00    +0.000 C 
BRANCH  14  16
ATOM     15  O   UNL     1       8.622   7.507  19.037  0.00  0.00    +0.000 OA
ATOM     16  C   UNL     1       8.203   8.270  18.176  0.00  0.00    +0.000 C 
ATOM     17  N   UNL     1       8.457   9.622  18.158  0.00  0.00    +0.000 N 
ATOM     18  H   UNL     1       8.168  10.170  17.358  0.00  0.00    +0.000 HD
BRANCH  17  19
ATOM     19  C   UNL     1       9.373  10.240  19.091  0.00  0.00    +0.000 C 
BRANCH  19  20
ATOM     20  C   UNL     1       9.612  11.648  18.685  0.00  0.00    +0.000 A 
ATOM     21  C   UNL     1       8.950  12.518  17.839  0.00  0.00    +0.000 A 
ATOM     22  C   UNL     1       9.675  13.733  17.865  0.00  0.00    +0.000 A 
ATOM     23  C   UNL     1      10.739  13.526  18.710  0.00  0.00    +0.000 A 
ATOM     24  O   UNL     1      10.708  12.266  19.216  0.00  0.00    +0.000 OA
ENDBRANCH  19  20
ENDBRANCH  17  19
ENDBRANCH  14  16
ENDBRANCH  13  14
ENDBRANCH  12  13
ENDBRANCH   1  12
BRANCH   2  25
ATOM     25  S   UNL     1       3.046   8.216  17.975  0.00  0.00    +0.000 S 
BRANCH  25  26
ATOM     26  C   UNL     1       1.334   8.688  17.622  0.00  0.00    +0.000 C 
BRANCH  26  27
ATOM     27  C   UNL     1       0.697   9.565  18.691  0.00  0.00    +0.000 C 
ATOM     28  O   UNL     1       1.163   9.737  19.815  0.00  0.00    +0.000 OA
BRANCH  27  29
ATOM     29  C   UNL     1      -0.625  10.194  18.363  0.00  0.00    +0.000 A 
ATOM     30  C   UNL     1      -1.105  11.211  19.201  0.00  0.00    +0.000 A 
ATOM     31  C   UNL     1      -2.390  11.736  19.015  0.00  0.00    +0.000 A 
ATOM     32  C   UNL     1      -3.188  11.266  17.976  0.00  0.00    +0.000 A 
ATOM     33 CL   UNL     1      -4.798  11.844  17.800  0.00  0.00    +0.000 Cl
ATOM     34  C   UNL     1      -2.693  10.311  17.089  0.00  0.00    +0.000 A 
ATOM     35  C   UNL     1      -1.412   9.775  17.279  0.00  0.00    +0.000 A 
ENDBRANCH  27  29
ENDBRANCH  26  27
ENDBRANCH  25  26
ENDBRANCH   2  25
TORSDOF 10
ENDMDL
MODEL 5
REMARK VINA RESULT:      -8.0      4.361      6.387
REMARK  Name = 
REMARK  10 active torsions:
REMARK  status: ('A' for Active; 'I' for Inactive)
REMARK    1  A    between atoms: C_2  and  C_3
REMARK    2  A    between atoms: C_3  and  C_4
REMARK    3  A    between atoms: C_4  and  C_5
REMARK    4  A    between atoms: C_5  and  N_6
REMARK    5  A    between atoms: C_7  and  S_8
REMARK    6  A    between atoms: S_8  and  C_9
REMARK    7  A    between atoms: C_9  and  C_10
REMARK    8  A    between atoms: C_10  and  C_12
REMARK    9  A    between atoms: N_28  and  C_29
REMARK   10  A    between atoms: C_29  and  C_30
REMARK                            x       y       z     vdW  Elec       q    Type
REMARK                         _______ _______ _______ _____ _____    ______ ____
ROOT
ATOM      1  N   UNL     1       4.466   6.163  17.452  0.00  0.00    +0.000 N 
ATOM      2  C   UNL     1       3.219   6.658  17.841  0.00  0.00    +0.000 A 
ATOM      3  N   UNL     1       2.210   5.907  18.141  0.00  0.00    +0.000 NA
ATOM      4  C   UNL     1       2.383   4.513  18.120  0.00  0.00    +0.000 A 
ATOM      5  C   UNL     1       1.296   3.670  18.366  0.00  0.00    +0.000 A 
ATOM      6  C   UNL     1       1.457   2.277  18.397  0.00  0.00    +0.000 A 
ATOM      7  C   UNL     1       2.715   1.708  18.202  0.00  0.00    +0.000 A 
ATOM      8  C   UNL     1       3.801   2.532  17.933  0.00  0.00    +0.000 A 
ATOM      9  C   UNL     1       3.616   3.920  17.869  0.00  0.00    +0.000 A 
ATOM     10  C   UNL     1       4.719   4.794  17.481  0.00  0.00    +0.000 A 
ATOM     11  O   UNL     1       5.805   4.281  17.195  0.00  0.00    +0.000 OA
ENDROOT
BRANCH   1  12
ATOM     12  C   UNL     1       5.589   6.992  16.982  0.00  0.00    +0.000 C 
BRANCH  12  13
ATOM     13  C   UNL     1       6.751   7.096  17.979  0.00  0.00    +0.000 C 
BRANCH  13  14
ATOM     14  C   UNL     1       7.971   7.833  17.431  0.00  0.00    +0.000 C 
BRANCH  14  16
ATOM     15  O   UNL     1       7.504  10.198  17.613  0.00  0.00    +0.000 OA
ATOM     16  C   UNL     1       8.131   9.224  18.010  0.00  0.00    +0.000 C 
ATOM     17  N   UNL     1       9.060   9.270  19.023  0.00  0.00    +0.000 N 
ATOM     18  H   UNL     1       9.459   8.406  19.369  0.00  0.00    +0.000 HD
BRANCH  17  19
ATOM     19  C   UNL     1       9.273  10.464  19.812  0.00  0.00    +0.000 C 
BRANCH  19  20
ATOM     20  C   UNL     1      10.424  11.220  19.254  0.00  0.00    +0.000 A 
ATOM     21  C   UNL     1      10.811  11.550  17.970  0.00  0.00    +0.000 A 
ATOM     22  C   UNL     1      12.013  12.287  18.089  0.00  0.00    +0.000 A 
ATOM     23  C   UNL     1      12.292  12.349  19.434  0.00  0.00    +0.000 A 
ATOM     24  O   UNL     1      11.332  11.709  20.150  0.00  0.00    +0.000 OA
ENDBRANCH  19  20
ENDBRANCH  17  19
ENDBRANCH  14  16
ENDBRANCH  13  14
ENDBRANCH  12  13
ENDBRANCH   1  12
BRANCH   2  25
ATOM     25  S   UNL     1       3.019   8.403  17.848  0.00  0.00    +0.000 S 
BRANCH  25  26
ATOM     26  C   UNL     1       1.415   8.666  18.646  0.00  0.00    +0.000 C 
BRANCH  26  27
ATOM     27  C   UNL     1       1.450   8.561  20.164  0.00  0.00    +0.000 C 
ATOM     28  O   UNL     1       2.077   7.707  20.786  0.00  0.00    +0.000 OA
BRANCH  27  29
ATOM     29  C   UNL     1       0.597   9.524  20.937  0.00  0.00    +0.000 A 
ATOM     30  C   UNL     1       0.371   9.269  22.297  0.00  0.00    +0.000 A 
ATOM     31  C   UNL     1      -0.523  10.061  23.029  0.00  0.00    +0.000 A 
ATOM     32  C   UNL     1      -1.172  11.126  22.410  0.00  0.00    +0.000 A 
ATOM     33 CL   UNL     1      -2.337  12.044  23.281  0.00  0.00    +0.000 Cl
ATOM     34  C   UNL     1      -0.897  11.437  21.079  0.00  0.00    +0.000 A 
ATOM     35  C   UNL     1      -0.012  10.639  20.342  0.00  0.00    +0.000 A 
ENDBRANCH  27  29
ENDBRANCH  26  27
ENDBRANCH  25  26
ENDBRANCH   2  25
TORSDOF 10
ENDMDL
MODEL 6
REMARK VINA RESULT:      -7.9      1.101      1.316
REMARK  Name = 
REMARK  10 active torsions:
REMARK  status: ('A' for Active; 'I' for Inactive)
REMARK    1  A    between atoms: C_2  and  C_3
REMARK    2  A    between atoms: C_3  and  C_4
REMARK    3  A    between atoms: C_4  and  C_5
REMARK    4  A    between atoms: C_5  and  N_6
REMARK    5  A    between atoms: C_7  and  S_8
REMARK    6  A    between atoms: S_8  and  C_9
REMARK    7  A    between atoms: C_9  and  C_10
REMARK    8  A    between atoms: C_10  and  C_12
REMARK    9  A    between atoms: N_28  and  C_29
REMARK   10  A    between atoms: C_29  and  C_30
REMARK                            x       y       z     vdW  Elec       q    Type
REMARK                         _______ _______ _______ _____ _____    ______ ____
ROOT
ATOM      1  N   UNL     1       4.211   5.959  18.269  0.00  0.00    +0.000 N 
ATOM      2  C   UNL     1       3.057   6.697  18.542  0.00  0.00    +0.000 A 
ATOM      3  N   UNL     1       2.073   6.255  19.257  0.00  0.00    +0.000 NA
ATOM      4  C   UNL     1       2.185   4.978  19.833  0.00  0.00    +0.000 A 
ATOM      5  C   UNL     1       1.114   4.439  20.550  0.00  0.00    +0.000 A 
ATOM      6  C   UNL     1       1.221   3.187  21.173  0.00  0.00    +0.000 A 
ATOM      7  C   UNL     1       2.411   2.464  21.104  0.00  0.00    +0.000 A 
ATOM      8  C   UNL     1       3.478   2.977  20.376  0.00  0.00    +0.000 A 
ATOM      9  C   UNL     1       3.342   4.213  19.728  0.00  0.00    +0.000 A 
ATOM     10  C   UNL     1       4.409   4.718  18.869  0.00  0.00    +0.000 A 
ATOM     11  O   UNL     1       5.418   4.023  18.714  0.00  0.00    +0.000 OA
ENDROOT
BRANCH   1  12
ATOM     12  C   UNL     1       5.283   6.385  17.355  0.00  0.00    +0.000 C 
BRANCH  12  13
ATOM     13  C   UNL     1       5.363   5.568  16.059  0.00  0.00    +0.000 C 
BRANCH  13  14
ATOM     14  C   UNL     1       6.739   4.958  15.797  0.00  0.00    +0.000 C 
BRANCH  14  16
ATOM     15  O   UNL     1       7.877   5.533  13.743  0.00  0.00    +0.000 OA
ATOM     16  C   UNL     1       7.057   4.831  14.320  0.00  0.00    +0.000 C 
ATOM     17  N   UNL     1       6.319   3.847  13.705  0.00  0.00    +0.000 N 
ATOM     18  H   UNL     1       5.741   3.237  14.267  0.00  0.00    +0.000 HD
BRANCH  17  19
ATOM     19  C   UNL     1       6.558   3.459  12.332  0.00  0.00    +0.000 C 
BRANCH  19  20
ATOM     20  C   UNL     1       5.256   3.286  11.638  0.00  0.00    +0.000 A 
ATOM     21  C   UNL     1       4.544   2.179  11.217  0.00  0.00    +0.000 A 
ATOM     22  C   UNL     1       3.363   2.668  10.611  0.00  0.00    +0.000 A 
ATOM     23  C   UNL     1       3.434   4.039  10.685  0.00  0.00    +0.000 A 
ATOM     24  O   UNL     1       4.576   4.424  11.310  0.00  0.00    +0.000 OA
ENDBRANCH  19  20
ENDBRANCH  17  19
ENDBRANCH  14  16
ENDBRANCH  13  14
ENDBRANCH  12  13
ENDBRANCH   1  12
BRANCH   2  25
ATOM     25  S   UNL     1       2.930   8.285  17.803  0.00  0.00    +0.000 S 
BRANCH  25  26
ATOM     26  C   UNL     1       1.149   8.593  17.705  0.00  0.00    +0.000 C 
BRANCH  26  27
ATOM     27  C   UNL     1       0.666   9.738  18.583  0.00  0.00    +0.000 C 
ATOM     28  O   UNL     1       1.278  10.172  19.557  0.00  0.00    +0.000 OA
BRANCH  27  29
ATOM     29  C   UNL     1      -0.685  10.316  18.274  0.00  0.00    +0.000 A 
ATOM     30  C   UNL     1      -1.153  11.373  19.067  0.00  0.00    +0.000 A 
ATOM     31  C   UNL     1      -2.457  11.858  18.905  0.00  0.00    +0.000 A 
ATOM     32  C   UNL     1      -3.287  11.305  17.933  0.00  0.00    +0.000 A 
ATOM     33 CL   UNL     1      -4.917  11.835  17.792  0.00  0.00    +0.000 Cl
ATOM     34  C   UNL     1      -2.806  10.306  17.087  0.00  0.00    +0.000 A 
ATOM     35  C   UNL     1      -1.506   9.811  17.255  0.00  0.00    +0.000 A 
ENDBRANCH  27  29
ENDBRANCH  26  27
ENDBRANCH  25  26
ENDBRANCH   2  25
TORSDOF 10
ENDMDL
MODEL 7
REMARK VINA RESULT:      -7.9      3.468      5.561
REMARK  Name = 
REMARK  10 active torsions:
REMARK  status: ('A' for Active; 'I' for Inactive)
REMARK    1  A    between atoms: C_2  and  C_3
REMARK    2  A    between atoms: C_3  and  C_4
REMARK    3  A    between atoms: C_4  and  C_5
REMARK    4  A    between atoms: C_5  and  N_6
REMARK    5  A    between atoms: C_7  and  S_8
REMARK    6  A    between atoms: S_8  and  C_9
REMARK    7  A    between atoms: C_9  and  C_10
REMARK    8  A    between atoms: C_10  and  C_12
REMARK    9  A    between atoms: N_28  and  C_29
REMARK   10  A    between atoms: C_29  and  C_30
REMARK                            x       y       z     vdW  Elec       q    Type
REMARK                         _______ _______ _______ _____ _____    ______ ____
ROOT
ATOM      1  N   UNL     1       4.416   5.606  18.586  0.00  0.00    +0.000 N 
ATOM      2  C   UNL     1       3.227   6.337  18.651  0.00  0.00    +0.000 A 
ATOM      3  N   UNL     1       2.153   5.911  19.234  0.00  0.00    +0.000 NA
ATOM      4  C   UNL     1       2.191   4.664  19.879  0.00  0.00    +0.000 A 
ATOM      5  C   UNL     1       1.030   4.140  20.455  0.00  0.00    +0.000 A 
ATOM      6  C   UNL     1       1.056   2.919  21.144  0.00  0.00    +0.000 A 
ATOM      7  C   UNL     1       2.251   2.213  21.285  0.00  0.00    +0.000 A 
ATOM      8  C   UNL     1       3.408   2.710  20.698  0.00  0.00    +0.000 A 
ATOM      9  C   UNL     1       3.358   3.913  19.981  0.00  0.00    +0.000 A 
ATOM     10  C   UNL     1       4.535   4.396  19.265  0.00  0.00    +0.000 A 
ATOM     11  O   UNL     1       5.563   3.712  19.293  0.00  0.00    +0.000 OA
ENDROOT
BRANCH   1  12
ATOM     12  C   UNL     1       5.607   6.008  17.821  0.00  0.00    +0.000 C 
BRANCH  12  13
ATOM     13  C   UNL     1       6.908   5.343  18.291  0.00  0.00    +0.000 C 
BRANCH  13  14
ATOM     14  C   UNL     1       7.940   6.325  18.841  0.00  0.00    +0.000 C 
BRANCH  14  16
ATOM     15  O   UNL     1       7.747   7.659  16.833  0.00  0.00    +0.000 OA
ATOM     16  C   UNL     1       8.042   7.596  18.020  0.00  0.00    +0.000 C 
ATOM     17  N   UNL     1       8.508   8.662  18.754  0.00  0.00    +0.000 N 
ATOM     18  H   UNL     1       8.629   8.560  19.753  0.00  0.00    +0.000 HD
BRANCH  17  19
ATOM     19  C   UNL     1       8.553  10.002  18.210  0.00  0.00    +0.000 C 
BRANCH  19  20
ATOM     20  C   UNL     1       9.618  10.774  18.901  0.00  0.00    +0.000 A 
ATOM     21  C   UNL     1       9.806  11.171  20.211  0.00  0.00    +0.000 A 
ATOM     22  C   UNL     1      11.023  11.892  20.241  0.00  0.00    +0.000 A 
ATOM     23  C   UNL     1      11.493  11.905  18.949  0.00  0.00    +0.000 A 
ATOM     24  O   UNL     1      10.651  11.226  18.129  0.00  0.00    +0.000 OA
ENDBRANCH  19  20
ENDBRANCH  17  19
ENDBRANCH  14  16
ENDBRANCH  13  14
ENDBRANCH  12  13
ENDBRANCH   1  12
BRANCH   2  25
ATOM     25  S   UNL     1       3.196   7.888  17.828  0.00  0.00    +0.000 S 
BRANCH  25  26
ATOM     26  C   UNL     1       1.519   8.508  18.105  0.00  0.00    +0.000 C 
BRANCH  26  27
ATOM     27  C   UNL     1       1.409  10.026  18.114  0.00  0.00    +0.000 C 
ATOM     28  O   UNL     1       2.369  10.791  18.053  0.00  0.00    +0.000 OA
BRANCH  27  29
ATOM     29  C   UNL     1       0.038  10.613  18.284  0.00  0.00    +0.000 A 
ATOM     30  C   UNL     1      -0.101  11.759  19.080  0.00  0.00    +0.000 A 
ATOM     31  C   UNL     1      -1.372  12.266  19.378  0.00  0.00    +0.000 A 
ATOM     32  C   UNL     1      -2.505  11.646  18.859  0.00  0.00    +0.000 A 
ATOM     33 CL   UNL     1      -4.070  12.212  19.295  0.00  0.00    +0.000 Cl
ATOM     34  C   UNL     1      -2.376  10.553  18.003  0.00  0.00    +0.000 A 
ATOM     35  C   UNL     1      -1.106  10.037  17.713  0.00  0.00    +0.000 A 
ENDBRANCH  27  29
ENDBRANCH  26  27
ENDBRANCH  25  26
ENDBRANCH   2  25
TORSDOF 10
ENDMDL
MODEL 8
REMARK VINA RESULT:      -7.9      3.447      9.841
REMARK  Name = 
REMARK  10 active torsions:
REMARK  status: ('A' for Active; 'I' for Inactive)
REMARK    1  A    between atoms: C_2  and  C_3
REMARK    2  A    between atoms: C_3  and  C_4
REMARK    3  A    between atoms: C_4  and  C_5
REMARK    4  A    between atoms: C_5  and  N_6
REMARK    5  A    between atoms: C_7  and  S_8
REMARK    6  A    between atoms: S_8  and  C_9
REMARK    7  A    between atoms: C_9  and  C_10
REMARK    8  A    between atoms: C_10  and  C_12
REMARK    9  A    between atoms: N_28  and  C_29
REMARK   10  A    between atoms: C_29  and  C_30
REMARK                            x       y       z     vdW  Elec       q    Type
REMARK                         _______ _______ _______ _____ _____    ______ ____
ROOT
ATOM      1  N   UNL     1       3.110   6.897  18.683  0.00  0.00    +0.000 N 
ATOM      2  C   UNL     1       3.913   5.998  17.979  0.00  0.00    +0.000 A 
ATOM      3  N   UNL     1       4.032   4.747  18.288  0.00  0.00    +0.000 NA
ATOM      4  C   UNL     1       3.279   4.248  19.364  0.00  0.00    +0.000 A 
ATOM      5  C   UNL     1       3.438   2.921  19.772  0.00  0.00    +0.000 A 
ATOM      6  C   UNL     1       2.663   2.390  20.813  0.00  0.00    +0.000 A 
ATOM      7  C   UNL     1       1.701   3.175  21.447  0.00  0.00    +0.000 A 
ATOM      8  C   UNL     1       1.547   4.503  21.068  0.00  0.00    +0.000 A 
ATOM      9  C   UNL     1       2.356   5.029  20.051  0.00  0.00    +0.000 A 
ATOM     10  C   UNL     1       2.288   6.447  19.713  0.00  0.00    +0.000 A 
ATOM     11  O   UNL     1       1.518   7.169  20.355  0.00  0.00    +0.000 OA
ENDROOT
BRANCH   1  12
ATOM     12  C   UNL     1       3.056   8.347  18.434  0.00  0.00    +0.000 C 
BRANCH  12  13
ATOM     13  C   UNL     1       1.836   8.798  17.619  0.00  0.00    +0.000 C 
BRANCH  13  14
ATOM     14  C   UNL     1       1.297  10.170  18.022  0.00  0.00    +0.000 C 
BRANCH  14  16
ATOM     15  O   UNL     1      -1.025   9.925  18.650  0.00  0.00    +0.000 OA
ATOM     16  C   UNL     1       0.138  10.087  18.996  0.00  0.00    +0.000 C 
ATOM     17  N   UNL     1       0.540  10.220  20.305  0.00  0.00    +0.000 N 
ATOM     18  H   UNL     1       1.528  10.243  20.520  0.00  0.00    +0.000 HD
BRANCH  17  19
ATOM     19  C   UNL     1      -0.378  10.034  21.407  0.00  0.00    +0.000 C 
BRANCH  19  20
ATOM     20  C   UNL     1      -0.952  11.348  21.794  0.00  0.00    +0.000 A 
ATOM     21  C   UNL     1      -1.860  12.202  21.196  0.00  0.00    +0.000 A 
ATOM     22  C   UNL     1      -1.999  13.312  22.063  0.00  0.00    +0.000 A 
ATOM     23  C   UNL     1      -1.159  13.075  23.125  0.00  0.00    +0.000 A 
ATOM     24  O   UNL     1      -0.523  11.885  22.975  0.00  0.00    +0.000 OA
ENDBRANCH  19  20
ENDBRANCH  17  19
ENDBRANCH  14  16
ENDBRANCH  13  14
ENDBRANCH  12  13
ENDBRANCH   1  12
BRANCH   2  25
ATOM     25  S   UNL     1       4.856   6.643  16.645  0.00  0.00    +0.000 S 
BRANCH  25  26
ATOM     26  C   UNL     1       6.575   6.385  17.146  0.00  0.00    +0.000 C 
BRANCH  26  27
ATOM     27  C   UNL     1       7.197   5.105  16.606  0.00  0.00    +0.000 C 
ATOM     28  O   UNL     1       8.082   4.470  17.175  0.00  0.00    +0.000 OA
BRANCH  27  29
ATOM     29  C   UNL     1       6.744   4.641  15.252  0.00  0.00    +0.000 A 
ATOM     30  C   UNL     1       5.628   3.795  15.179  0.00  0.00    +0.000 A 
ATOM     31  C   UNL     1       5.245   3.229  13.956  0.00  0.00    +0.000 A 
ATOM     32  C   UNL     1       5.961   3.528  12.800  0.00  0.00    +0.000 A 
ATOM     33 CL   UNL     1       5.551   2.766  11.314  0.00  0.00    +0.000 Cl
ATOM     34  C   UNL     1       7.025   4.429  12.847  0.00  0.00    +0.000 A 
ATOM     35  C   UNL     1       7.416   4.988  14.071  0.00  0.00    +0.000 A 
ENDBRANCH  27  29
ENDBRANCH  26  27
ENDBRANCH  25  26
ENDBRANCH   2  25
TORSDOF 10
ENDMDL
MODEL 9
REMARK VINA RESULT:      -7.9      1.182      1.531
REMARK  Name = 
REMARK  10 active torsions:
REMARK  status: ('A' for Active; 'I' for Inactive)
REMARK    1  A    between atoms: C_2  and  C_3
REMARK    2  A    between atoms: C_3  and  C_4
REMARK    3  A    between atoms: C_4  and  C_5
REMARK    4  A    between atoms: C_5  and  N_6
REMARK    5  A    between atoms: C_7  and  S_8
REMARK    6  A    between atoms: S_8  and  C_9
REMARK    7  A    between atoms: C_9  and  C_10
REMARK    8  A    between atoms: C_10  and  C_12
REMARK    9  A    between atoms: N_28  and  C_29
REMARK   10  A    between atoms: C_29  and  C_30
REMARK                            x       y       z     vdW  Elec       q    Type
REMARK                         _______ _______ _______ _____ _____    ______ ____
ROOT
ATOM      1  N   UNL     1       4.436   5.960  18.297  0.00  0.00    +0.000 N 
ATOM      2  C   UNL     1       3.144   6.447  18.086  0.00  0.00    +0.000 A 
ATOM      3  N   UNL     1       2.085   5.703  18.099  0.00  0.00    +0.000 NA
ATOM      4  C   UNL     1       2.231   4.335  18.387  0.00  0.00    +0.000 A 
ATOM      5  C   UNL     1       1.120   3.489  18.338  0.00  0.00    +0.000 A 
ATOM      6  C   UNL     1       1.234   2.131  18.667  0.00  0.00    +0.000 A 
ATOM      7  C   UNL     1       2.460   1.603  19.071  0.00  0.00    +0.000 A 
ATOM      8  C   UNL     1       3.578   2.428  19.102  0.00  0.00    +0.000 A 
ATOM      9  C   UNL     1       3.455   3.774  18.734  0.00  0.00    +0.000 A 
ATOM     10  C   UNL     1       4.635   4.629  18.655  0.00  0.00    +0.000 A 
ATOM     11  O   UNL     1       5.739   4.133  18.901  0.00  0.00    +0.000 OA
ENDROOT
BRANCH   1  12
ATOM     12  C   UNL     1       5.666   6.757  18.159  0.00  0.00    +0.000 C 
BRANCH  12  13
ATOM     13  C   UNL     1       6.188   6.859  16.720  0.00  0.00    +0.000 C 
BRANCH  13  14
ATOM     14  C   UNL     1       5.718   5.725  15.811  0.00  0.00    +0.000 C 
BRANCH  14  16
ATOM     15  O   UNL     1       7.794   4.498  15.625  0.00  0.00    +0.000 OA
ATOM     16  C   UNL     1       6.856   5.053  15.067  0.00  0.00    +0.000 C 
ATOM     17  N   UNL     1       6.719   5.144  13.702  0.00  0.00    +0.000 N 
ATOM     18  H   UNL     1       5.865   5.523  13.313  0.00  0.00    +0.000 HD
BRANCH  17  19
ATOM     19  C   UNL     1       7.614   4.456  12.797  0.00  0.00    +0.000 C 
BRANCH  19  20
ATOM     20  C   UNL     1       6.874   3.366  12.111  0.00  0.00    +0.000 A 
ATOM     21  C   UNL     1       7.270   2.248  11.402  0.00  0.00    +0.000 A 
ATOM     22  C   UNL     1       6.086   1.593  10.989  0.00  0.00    +0.000 A 
ATOM     23  C   UNL     1       5.043   2.357  11.457  0.00  0.00    +0.000 A 
ATOM     24  O   UNL     1       5.510   3.432  12.143  0.00  0.00    +0.000 OA
ENDBRANCH  19  20
ENDBRANCH  17  19
ENDBRANCH  14  16
ENDBRANCH  13  14
ENDBRANCH  12  13
ENDBRANCH   1  12
BRANCH   2  25
ATOM     25  S   UNL     1       2.983   8.156  17.715  0.00  0.00    +0.000 S 
BRANCH  25  26
ATOM     26  C   UNL     1       1.396   8.626  18.447  0.00  0.00    +0.000 C 
BRANCH  26  27
ATOM     27  C   UNL     1       1.090  10.115  18.369  0.00  0.00    +0.000 C 
ATOM     28  O   UNL     1       1.938  11.002  18.445  0.00  0.00    +0.000 OA
BRANCH  27  29
ATOM     29  C   UNL     1      -0.353  10.514  18.267  0.00  0.00    +0.000 A 
ATOM     30  C   UNL     1      -1.223   9.686  17.543  0.00  0.00    +0.000 A 
ATOM     31  C   UNL     1      -2.546  10.079  17.307  0.00  0.00    +0.000 A 
ATOM     32  C   UNL     1      -3.010  11.289  17.817  0.00  0.00    +0.000 A 
ATOM     33 CL   UNL     1      -4.606  11.818  17.453  0.00  0.00    +0.000 Cl
ATOM     34  C   UNL     1      -2.178  12.084  18.604  0.00  0.00    +0.000 A 
ATOM     35  C   UNL     1      -0.851  11.698  18.832  0.00  0.00    +0.000 A 
ENDBRANCH  27  29
ENDBRANCH  26  27
ENDBRANCH  25  26
ENDBRANCH   2  25
TORSDOF 10
ENDMDL
