MODEL 1
REMARK VINA RESULT:      -9.3      0.000      0.000
REMARK  Name = 
REMARK  3 active torsions:
REMARK  status: ('A' for Active; 'I' for Inactive)
REMARK    1  A    between atoms: C_4  and  C_5
REMARK    2  A    between atoms: C_13  and  C_14
REMARK    3  A    between atoms: C_14  and  C_15
REMARK                            x       y       z     vdW  Elec       q    Type
REMARK                         _______ _______ _______ _____ _____    ______ ____
ROOT
ATOM      1  C   UNL     1       5.162   5.853  17.244  0.00  0.00    +0.000 C 
ATOM      2  O   UNL     1       4.615   6.933  17.497  0.00  0.00    +0.000 OA
ATOM      3  N   UNL     1       4.698   4.600  17.787  0.00  0.00    +0.000 N 
ATOM      4  C   UNL     1       4.336   4.854  19.164  0.00  0.00    +0.000 C 
ATOM      5  C   UNL     1       2.851   5.399  18.952  0.00  0.00    +0.000 C 
ATOM      6  C   UNL     1       2.294   4.692  17.714  0.00  0.00    +0.000 C 
ATOM      7  C   UNL     1       3.466   3.803  17.354  0.00  0.00    +0.000 C 
ATOM      8  C   UNL     1       3.157   2.478  18.247  0.00  0.00    +0.000 C 
ATOM      9  C   UNL     1       3.530   2.544  19.770  0.00  0.00    +0.000 C 
ATOM     10  C   UNL     1       4.707   3.494  19.816  0.00  0.00    +0.000 C 
ENDROOT
BRANCH   1  14
ATOM     11  O   UNL     1       8.498   5.011  19.779  0.00  0.00    +0.000 OA
ATOM     12  C   UNL     1       8.040   5.661  18.825  0.00  0.00    +0.000 C 
ATOM     13  C   UNL     1       7.553   4.972  17.577  0.00  0.00    +0.000 C 
ATOM     14  C   UNL     1       6.631   5.898  16.750  0.00  0.00    +0.000 C 
ATOM     15  N   UNL     1       7.147   7.249  16.714  0.00  0.00    +0.000 N 
ATOM     16  C   UNL     1       7.802   7.820  17.764  0.00  0.00    +0.000 C 
ATOM     17  O   UNL     1       8.080   9.006  17.759  0.00  0.00    +0.000 OA
ATOM     18  N   UNL     1       8.109   7.023  18.810  0.00  0.00    +0.000 N 
ATOM     19  H   UNL     1       6.834   7.878  15.991  0.00  0.00    +0.000 HD
ATOM     20  H   UNL     1       8.577   7.437  19.603  0.00  0.00    +0.000 HD
ENDBRANCH   1  14
BRANCH   9  21
ATOM     21  C   UNL     1       2.641   3.007  20.958  0.00  0.00    +0.000 C 
BRANCH  21  22
ATOM     22  C   UNL     1       1.159   2.912  20.955  0.00  0.00    +0.000 C 
ATOM     23  F   UNL     1       0.670   2.433  22.109  0.00  0.00    +0.000 F 
ATOM     24  F   UNL     1       0.617   4.134  20.737  0.00  0.00    +0.000 F 
ATOM     25  F   UNL     1       0.733   2.114  19.943  0.00  0.00    +0.000 F 
ENDBRANCH  21  22
ENDBRANCH   9  21
TORSDOF 3
ENDMDL
MODEL 2
REMARK VINA RESULT:      -9.2      0.674      1.084
REMARK  Name = 
REMARK  3 active torsions:
REMARK  status: ('A' for Active; 'I' for Inactive)
REMARK    1  A    between atoms: C_4  and  C_5
REMARK    2  A    between atoms: C_13  and  C_14
REMARK    3  A    between atoms: C_14  and  C_15
REMARK                            x       y       z     vdW  Elec       q    Type
REMARK                         _______ _______ _______ _____ _____    ______ ____
ROOT
ATOM      1  C   UNL     1       4.556   5.960  16.910  0.00  0.00    +0.000 C 
ATOM      2  O   UNL     1       4.006   7.001  17.289  0.00  0.00    +0.000 OA
ATOM      3  N   UNL     1       4.246   4.668  17.470  0.00  0.00    +0.000 N 
ATOM      4  C   UNL     1       4.101   4.859  18.896  0.00  0.00    +0.000 C 
ATOM      5  C   UNL     1       2.577   5.331  18.947  0.00  0.00    +0.000 C 
ATOM      6  C   UNL     1       1.860   4.634  17.787  0.00  0.00    +0.000 C 
ATOM      7  C   UNL     1       2.999   3.821  17.208  0.00  0.00    +0.000 C 
ATOM      8  C   UNL     1       2.901   2.454  18.087  0.00  0.00    +0.000 C 
ATOM      9  C   UNL     1       3.514   2.491  19.531  0.00  0.00    +0.000 C 
ATOM     10  C   UNL     1       4.636   3.501  19.425  0.00  0.00    +0.000 C 
ENDROOT
BRANCH   1  14
ATOM     11  O   UNL     1       8.122   4.053  18.289  0.00  0.00    +0.000 OA
ATOM     12  C   UNL     1       7.603   5.033  17.732  0.00  0.00    +0.000 C 
ATOM     13  C   UNL     1       6.840   4.881  16.442  0.00  0.00    +0.000 C 
ATOM     14  C   UNL     1       5.921   6.098  16.188  0.00  0.00    +0.000 C 
ATOM     15  N   UNL     1       6.589   7.336  16.529  0.00  0.00    +0.000 N 
ATOM     16  C   UNL     1       7.469   7.441  17.564  0.00  0.00    +0.000 C 
ATOM     17  O   UNL     1       7.888   8.528  17.922  0.00  0.00    +0.000 OA
ATOM     18  N   UNL     1       7.838   6.299  18.183  0.00  0.00    +0.000 N 
ATOM     19  H   UNL     1       6.245   8.204  16.148  0.00  0.00    +0.000 HD
ATOM     20  H   UNL     1       8.474   6.364  18.964  0.00  0.00    +0.000 HD
ENDBRANCH   1  14
BRANCH   9  21
ATOM     21  C   UNL     1       2.809   2.869  20.864  0.00  0.00    +0.000 C 
BRANCH  21  22
ATOM     22  C   UNL     1       1.333   2.878  21.034  0.00  0.00    +0.000 C 
ATOM     23  F   UNL     1       0.699   2.183  20.078  0.00  0.00    +0.000 F 
ATOM     24  F   UNL     1       1.002   2.351  22.236  0.00  0.00    +0.000 F 
ATOM     25  F   UNL     1       0.859   4.150  21.026  0.00  0.00    +0.000 F 
ENDBRANCH  21  22
ENDBRANCH   9  21
TORSDOF 3
ENDMDL
MODEL 3
REMARK VINA RESULT:      -8.9      0.987      1.150
REMARK  Name = 
REMARK  3 active torsions:
REMARK  status: ('A' for Active; 'I' for Inactive)
REMARK    1  A    between atoms: C_4  and  C_5
REMARK    2  A    between atoms: C_13  and  C_14
REMARK    3  A    between atoms: C_14  and  C_15
REMARK                            x       y       z     vdW  Elec       q    Type
REMARK                         _______ _______ _______ _____ _____    ______ ____
ROOT
ATOM      1  C   UNL     1       4.927   5.404  17.244  0.00  0.00    +0.000 C 
ATOM      2  O   UNL     1       4.500   6.525  17.549  0.00  0.00    +0.000 OA
ATOM      3  N   UNL     1       4.239   4.188  17.597  0.00  0.00    +0.000 N 
ATOM      4  C   UNL     1       3.749   4.366  18.946  0.00  0.00    +0.000 C 
ATOM      5  C   UNL     1       2.386   5.135  18.635  0.00  0.00    +0.000 C 
ATOM      6  C   UNL     1       1.894   4.630  17.276  0.00  0.00    +0.000 C 
ATOM      7  C   UNL     1       2.973   3.619  16.951  0.00  0.00    +0.000 C 
ATOM      8  C   UNL     1       2.386   2.276  17.661  0.00  0.00    +0.000 C 
ATOM      9  C   UNL     1       2.577   2.149  19.213  0.00  0.00    +0.000 C 
ATOM     10  C   UNL     1       3.855   2.913  19.485  0.00  0.00    +0.000 C 
ENDROOT
BRANCH   1  14
ATOM     11  O   UNL     1       7.953   5.257  20.257  0.00  0.00    +0.000 OA
ATOM     12  C   UNL     1       7.622   5.618  19.116  0.00  0.00    +0.000 C 
ATOM     13  C   UNL     1       7.229   4.613  18.066  0.00  0.00    +0.000 C 
ATOM     14  C   UNL     1       6.437   5.283  16.918  0.00  0.00    +0.000 C 
ATOM     15  N   UNL     1       7.017   6.560  16.561  0.00  0.00    +0.000 N 
ATOM     16  C   UNL     1       7.591   7.393  17.475  0.00  0.00    +0.000 C 
ATOM     17  O   UNL     1       7.924   8.525  17.168  0.00  0.00    +0.000 OA
ATOM     18  N   UNL     1       7.756   6.919  18.729  0.00  0.00    +0.000 N 
ATOM     19  H   UNL     1       6.806   6.964  15.662  0.00  0.00    +0.000 HD
ATOM     20  H   UNL     1       8.163   7.533  19.419  0.00  0.00    +0.000 HD
ENDBRANCH   1  14
BRANCH   9  21
ATOM     21  C   UNL     1       1.620   2.626  20.341  0.00  0.00    +0.000 C 
BRANCH  21  22
ATOM     22  C   UNL     1       2.023   2.726  21.767  0.00  0.00    +0.000 C 
ATOM     23  F   UNL     1       3.086   1.961  22.057  0.00  0.00    +0.000 F 
ATOM     24  F   UNL     1       2.324   4.010  22.074  0.00  0.00    +0.000 F 
ATOM     25  F   UNL     1       0.998   2.364  22.580  0.00  0.00    +0.000 F 
ENDBRANCH  21  22
ENDBRANCH   9  21
TORSDOF 3
ENDMDL
MODEL 4
REMARK VINA RESULT:      -8.9      1.552      2.530
REMARK  Name = 
REMARK  3 active torsions:
REMARK  status: ('A' for Active; 'I' for Inactive)
REMARK    1  A    between atoms: C_4  and  C_5
REMARK    2  A    between atoms: C_13  and  C_14
REMARK    3  A    between atoms: C_14  and  C_15
REMARK                            x       y       z     vdW  Elec       q    Type
REMARK                         _______ _______ _______ _____ _____    ______ ____
ROOT
ATOM      1  C   UNL     1       4.514   6.165  17.036  0.00  0.00    +0.000 C 
ATOM      2  O   UNL     1       3.924   7.175  17.438  0.00  0.00    +0.000 OA
ATOM      3  N   UNL     1       4.243   4.848  17.555  0.00  0.00    +0.000 N 
ATOM      4  C   UNL     1       4.074   4.992  18.984  0.00  0.00    +0.000 C 
ATOM      5  C   UNL     1       2.534   5.409  19.028  0.00  0.00    +0.000 C 
ATOM      6  C   UNL     1       1.856   4.722  17.840  0.00  0.00    +0.000 C 
ATOM      7  C   UNL     1       3.029   3.966  17.253  0.00  0.00    +0.000 C 
ATOM      8  C   UNL     1       2.969   2.571  18.091  0.00  0.00    +0.000 C 
ATOM      9  C   UNL     1       3.563   2.587  19.544  0.00  0.00    +0.000 C 
ATOM     10  C   UNL     1       4.650   3.638  19.481  0.00  0.00    +0.000 C 
ENDROOT
BRANCH   1  14
ATOM     11  O   UNL     1       5.981   3.564  13.979  0.00  0.00    +0.000 OA
ATOM     12  C   UNL     1       6.238   4.302  14.944  0.00  0.00    +0.000 C 
ATOM     13  C   UNL     1       5.904   5.770  14.911  0.00  0.00    +0.000 C 
ATOM     14  C   UNL     1       5.882   6.371  16.336  0.00  0.00    +0.000 C 
ATOM     15  N   UNL     1       6.979   5.864  17.132  0.00  0.00    +0.000 N 
ATOM     16  C   UNL     1       7.453   4.591  17.014  0.00  0.00    +0.000 C 
ATOM     17  O   UNL     1       8.265   4.150  17.807  0.00  0.00    +0.000 OA
ATOM     18  N   UNL     1       6.972   3.843  15.998  0.00  0.00    +0.000 N 
ATOM     19  H   UNL     1       7.268   6.372  17.954  0.00  0.00    +0.000 HD
ATOM     20  H   UNL     1       7.301   2.893  15.910  0.00  0.00    +0.000 HD
ENDBRANCH   1  14
BRANCH   9  21
ATOM     21  C   UNL     1       2.829   2.902  20.878  0.00  0.00    +0.000 C 
BRANCH  21  22
ATOM     22  C   UNL     1       1.353   2.836  21.034  0.00  0.00    +0.000 C 
ATOM     23  F   UNL     1       0.767   2.090  20.085  0.00  0.00    +0.000 F 
ATOM     24  F   UNL     1       1.039   2.313  22.242  0.00  0.00    +0.000 F 
ATOM     25  F   UNL     1       0.812   4.080  20.997  0.00  0.00    +0.000 F 
ENDBRANCH  21  22
ENDBRANCH   9  21
TORSDOF 3
ENDMDL
MODEL 5
REMARK VINA RESULT:      -8.5      4.241      6.520
REMARK  Name = 
REMARK  3 active torsions:
REMARK  status: ('A' for Active; 'I' for Inactive)
REMARK    1  A    between atoms: C_4  and  C_5
REMARK    2  A    between atoms: C_13  and  C_14
REMARK    3  A    between atoms: C_14  and  C_15
REMARK                            x       y       z     vdW  Elec       q    Type
REMARK                         _______ _______ _______ _____ _____    ______ ____
ROOT
ATOM      1  C   UNL     1       3.681   4.966  18.973  0.00  0.00    +0.000 C 
ATOM      2  O   UNL     1       2.924   5.890  18.648  0.00  0.00    +0.000 OA
ATOM      3  N   UNL     1       4.840   4.601  18.199  0.00  0.00    +0.000 N 
ATOM      4  C   UNL     1       4.450   4.680  16.808  0.00  0.00    +0.000 C 
ATOM      5  C   UNL     1       4.680   6.239  16.556  0.00  0.00    +0.000 C 
ATOM      6  C   UNL     1       5.833   6.669  17.467  0.00  0.00    +0.000 C 
ATOM      7  C   UNL     1       6.174   5.346  18.121  0.00  0.00    +0.000 C 
ATOM      8  C   UNL     1       7.245   4.727  17.062  0.00  0.00    +0.000 C 
ATOM      9  C   UNL     1       6.662   4.063  15.766  0.00  0.00    +0.000 C 
ATOM     10  C   UNL     1       5.311   3.538  16.202  0.00  0.00    +0.000 C 
ENDROOT
BRANCH   1  14
ATOM     11  O   UNL     1       4.268   0.776  18.377  0.00  0.00    +0.000 OA
ATOM     12  C   UNL     1       3.528   1.687  18.784  0.00  0.00    +0.000 C 
ATOM     13  C   UNL     1       3.954   2.590  19.911  0.00  0.00    +0.000 C 
ATOM     14  C   UNL     1       3.116   3.890  19.935  0.00  0.00    +0.000 C 
ATOM     15  N   UNL     1       1.719   3.613  19.675  0.00  0.00    +0.000 N 
ATOM     16  C   UNL     1       1.305   2.634  18.822  0.00  0.00    +0.000 C 
ATOM     17  O   UNL     1       0.132   2.535  18.505  0.00  0.00    +0.000 OA
ATOM     18  N   UNL     1       2.246   1.798  18.333  0.00  0.00    +0.000 N 
ATOM     19  H   UNL     1       1.023   4.290  19.947  0.00  0.00    +0.000 HD
ATOM     20  H   UNL     1       1.955   1.081  17.685  0.00  0.00    +0.000 HD
ENDBRANCH   1  14
BRANCH   9  21
ATOM     21  C   UNL     1       6.366   4.732  14.393  0.00  0.00    +0.000 C 
BRANCH  21  22
ATOM     22  C   UNL     1       6.160   3.965  13.138  0.00  0.00    +0.000 C 
ATOM     23  F   UNL     1       6.457   2.663  13.274  0.00  0.00    +0.000 F 
ATOM     24  F   UNL     1       4.871   4.069  12.738  0.00  0.00    +0.000 F 
ATOM     25  F   UNL     1       6.919   4.476  12.135  0.00  0.00    +0.000 F 
ENDBRANCH  21  22
ENDBRANCH   9  21
TORSDOF 3
ENDMDL
MODEL 6
REMARK VINA RESULT:      -8.4      1.422      1.837
REMARK  Name = 
REMARK  3 active torsions:
REMARK  status: ('A' for Active; 'I' for Inactive)
REMARK    1  A    between atoms: C_4  and  C_5
REMARK    2  A    between atoms: C_13  and  C_14
REMARK    3  A    between atoms: C_14  and  C_15
REMARK                            x       y       z     vdW  Elec       q    Type
REMARK                         _______ _______ _______ _____ _____    ______ ____
ROOT
ATOM      1  C   UNL     1       4.129   6.509  17.060  0.00  0.00    +0.000 C 
ATOM      2  O   UNL     1       3.475   7.426  17.573  0.00  0.00    +0.000 OA
ATOM      3  N   UNL     1       4.035   5.143  17.508  0.00  0.00    +0.000 N 
ATOM      4  C   UNL     1       3.971   5.184  18.952  0.00  0.00    +0.000 C 
ATOM      5  C   UNL     1       2.406   5.433  19.142  0.00  0.00    +0.000 C 
ATOM      6  C   UNL     1       1.704   4.749  17.965  0.00  0.00    +0.000 C 
ATOM      7  C   UNL     1       2.895   4.157  17.241  0.00  0.00    +0.000 C 
ATOM      8  C   UNL     1       3.045   2.717  17.985  0.00  0.00    +0.000 C 
ATOM      9  C   UNL     1       3.752   2.710  19.386  0.00  0.00    +0.000 C 
ATOM     10  C   UNL     1       4.719   3.871  19.312  0.00  0.00    +0.000 C 
ENDROOT
BRANCH   1  14
ATOM     11  O   UNL     1       6.970   3.640  15.662  0.00  0.00    +0.000 OA
ATOM     12  C   UNL     1       6.759   4.781  16.104  0.00  0.00    +0.000 C 
ATOM     13  C   UNL     1       5.894   5.759  15.351  0.00  0.00    +0.000 C 
ATOM     14  C   UNL     1       5.406   6.900  16.274  0.00  0.00    +0.000 C 
ATOM     15  N   UNL     1       6.465   7.349  17.152  0.00  0.00    +0.000 N 
ATOM     16  C   UNL     1       7.406   6.508  17.667  0.00  0.00    +0.000 C 
ATOM     17  O   UNL     1       8.182   6.888  18.526  0.00  0.00    +0.000 OA
ATOM     18  N   UNL     1       7.427   5.241  17.201  0.00  0.00    +0.000 N 
ATOM     19  H   UNL     1       6.396   8.257  17.585  0.00  0.00    +0.000 HD
ATOM     20  H   UNL     1       8.106   4.603  17.587  0.00  0.00    +0.000 HD
ENDBRANCH   1  14
BRANCH   9  21
ATOM     21  C   UNL     1       3.103   2.866  20.790  0.00  0.00    +0.000 C 
BRANCH  21  22
ATOM     22  C   UNL     1       1.674   2.570  21.067  0.00  0.00    +0.000 C 
ATOM     23  F   UNL     1       0.916   3.676  21.108  0.00  0.00    +0.000 F 
ATOM     24  F   UNL     1       1.178   1.749  20.112  0.00  0.00    +0.000 F 
ATOM     25  F   UNL     1       1.541   1.914  22.249  0.00  0.00    +0.000 F 
ENDBRANCH  21  22
ENDBRANCH   9  21
TORSDOF 3
ENDMDL
MODEL 7
REMARK VINA RESULT:      -8.1      4.226      6.506
REMARK  Name = 
REMARK  3 active torsions:
REMARK  status: ('A' for Active; 'I' for Inactive)
REMARK    1  A    between atoms: C_4  and  C_5
REMARK    2  A    between atoms: C_13  and  C_14
REMARK    3  A    between atoms: C_14  and  C_15
REMARK                            x       y       z     vdW  Elec       q    Type
REMARK                         _______ _______ _______ _____ _____    ______ ____
ROOT
ATOM      1  C   UNL     1       4.250   5.203  19.004  0.00  0.00    +0.000 C 
ATOM      2  O   UNL     1       3.473   6.130  18.743  0.00  0.00    +0.000 OA
ATOM      3  N   UNL     1       5.266   4.758  18.085  0.00  0.00    +0.000 N 
ATOM      4  C   UNL     1       4.668   4.769  16.768  0.00  0.00    +0.000 C 
ATOM      5  C   UNL     1       4.890   6.303  16.389  0.00  0.00    +0.000 C 
ATOM      6  C   UNL     1       6.179   6.748  17.084  0.00  0.00    +0.000 C 
ATOM      7  C   UNL     1       6.589   5.455  17.757  0.00  0.00    +0.000 C 
ATOM      8  C   UNL     1       7.468   4.743  16.587  0.00  0.00    +0.000 C 
ATOM      9  C   UNL     1       6.676   4.024  15.439  0.00  0.00    +0.000 C 
ATOM     10  C   UNL     1       5.398   3.568  16.108  0.00  0.00    +0.000 C 
ENDROOT
BRANCH   1  14
ATOM     11  O   UNL     1       3.803   1.014  18.293  0.00  0.00    +0.000 OA
ATOM     12  C   UNL     1       3.417   2.023  18.904  0.00  0.00    +0.000 C 
ATOM     13  C   UNL     1       4.339   2.772  19.830  0.00  0.00    +0.000 C 
ATOM     14  C   UNL     1       3.816   4.202  20.105  0.00  0.00    +0.000 C 
ATOM     15  N   UNL     1       2.383   4.203  20.303  0.00  0.00    +0.000 N 
ATOM     16  C   UNL     1       1.542   3.364  19.634  0.00  0.00    +0.000 C 
ATOM     17  O   UNL     1       0.334   3.501  19.705  0.00  0.00    +0.000 OA
ATOM     18  N   UNL     1       2.104   2.395  18.880  0.00  0.00    +0.000 N 
ATOM     19  H   UNL     1       1.951   4.982  20.775  0.00  0.00    +0.000 HD
ATOM     20  H   UNL     1       1.493   1.778  18.365  0.00  0.00    +0.000 HD
ENDBRANCH   1  14
BRANCH   9  21
ATOM     21  C   UNL     1       6.187   4.623  14.090  0.00  0.00    +0.000 C 
BRANCH  21  22
ATOM     22  C   UNL     1       6.023   3.819  12.851  0.00  0.00    +0.000 C 
ATOM     23  F   UNL     1       6.771   4.278  11.836  0.00  0.00    +0.000 F 
ATOM     24  F   UNL     1       6.368   2.531  13.086  0.00  0.00    +0.000 F 
ATOM     25  F   UNL     1       4.724   3.807  12.457  0.00  0.00    +0.000 F 
ENDBRANCH  21  22
ENDBRANCH   9  21
TORSDOF 3
ENDMDL
MODEL 8
REMARK VINA RESULT:      -8.0      1.648      2.345
REMARK  Name = 
REMARK  3 active torsions:
REMARK  status: ('A' for Active; 'I' for Inactive)
REMARK    1  A    between atoms: C_4  and  C_5
REMARK    2  A    between atoms: C_13  and  C_14
REMARK    3  A    between atoms: C_14  and  C_15
REMARK                            x       y       z     vdW  Elec       q    Type
REMARK                         _______ _______ _______ _____ _____    ______ ____
ROOT
ATOM      1  C   UNL     1       4.101   6.233  17.259  0.00  0.00    +0.000 C 
ATOM      2  O   UNL     1       3.381   7.171  17.623  0.00  0.00    +0.000 OA
ATOM      3  N   UNL     1       3.806   4.858  17.575  0.00  0.00    +0.000 N 
ATOM      4  C   UNL     1       3.336   4.839  18.943  0.00  0.00    +0.000 C 
ATOM      5  C   UNL     1       1.799   5.191  18.700  0.00  0.00    +0.000 C 
ATOM      6  C   UNL     1       1.424   4.613  17.333  0.00  0.00    +0.000 C 
ATOM      7  C   UNL     1       2.736   3.969  16.937  0.00  0.00    +0.000 C 
ATOM      8  C   UNL     1       2.587   2.491  17.602  0.00  0.00    +0.000 C 
ATOM      9  C   UNL     1       2.864   2.371  19.142  0.00  0.00    +0.000 C 
ATOM     10  C   UNL     1       3.876   3.462  19.415  0.00  0.00    +0.000 C 
ENDROOT
BRANCH   1  14
ATOM     11  O   UNL     1       6.568   3.619  14.948  0.00  0.00    +0.000 OA
ATOM     12  C   UNL     1       6.491   4.459  15.859  0.00  0.00    +0.000 C 
ATOM     13  C   UNL     1       6.016   5.862  15.586  0.00  0.00    +0.000 C 
ATOM     14  C   UNL     1       5.569   6.566  16.889  0.00  0.00    +0.000 C 
ATOM     15  N   UNL     1       6.479   6.275  17.976  0.00  0.00    +0.000 N 
ATOM     16  C   UNL     1       7.105   5.072  18.116  0.00  0.00    +0.000 C 
ATOM     17  O   UNL     1       7.735   4.808  19.124  0.00  0.00    +0.000 OA
ATOM     18  N   UNL     1       6.981   4.187  17.103  0.00  0.00    +0.000 N 
ATOM     19  H   UNL     1       6.494   6.880  18.783  0.00  0.00    +0.000 HD
ATOM     20  H   UNL     1       7.425   3.286  17.202  0.00  0.00    +0.000 HD
ENDBRANCH   1  14
BRANCH   9  21
ATOM     21  C   UNL     1       1.852   2.511  20.313  0.00  0.00    +0.000 C 
BRANCH  21  22
ATOM     22  C   UNL     1       2.261   2.646  21.735  0.00  0.00    +0.000 C 
ATOM     23  F   UNL     1       3.419   2.022  22.000  0.00  0.00    +0.000 F 
ATOM     24  F   UNL     1       2.399   3.954  22.054  0.00  0.00    +0.000 F 
ATOM     25  F   UNL     1       1.305   2.146  22.558  0.00  0.00    +0.000 F 
ENDBRANCH  21  22
ENDBRANCH   9  21
TORSDOF 3
ENDMDL
MODEL 9
REMARK VINA RESULT:      -8.0      4.152      6.644
REMARK  Name = 
REMARK  3 active torsions:
REMARK  status: ('A' for Active; 'I' for Inactive)
REMARK    1  A    between atoms: C_4  and  C_5
REMARK    2  A    between atoms: C_13  and  C_14
REMARK    3  A    between atoms: C_14  and  C_15
REMARK                            x       y       z     vdW  Elec       q    Type
REMARK                         _______ _______ _______ _____ _____    ______ ____
ROOT
ATOM      1  C   UNL     1       4.608   2.929  18.782  0.00  0.00    +0.000 C 
ATOM      2  O   UNL     1       5.166   2.876  19.885  0.00  0.00    +0.000 OA
ATOM      3  N   UNL     1       4.866   3.980  17.830  0.00  0.00    +0.000 N 
ATOM      4  C   UNL     1       4.959   5.210  18.585  0.00  0.00    +0.000 C 
ATOM      5  C   UNL     1       6.490   5.134  19.029  0.00  0.00    +0.000 C 
ATOM      6  C   UNL     1       7.236   4.392  17.917  0.00  0.00    +0.000 C 
ATOM      7  C   UNL     1       6.103   4.144  16.944  0.00  0.00    +0.000 C 
ATOM      8  C   UNL     1       6.134   5.506  16.053  0.00  0.00    +0.000 C 
ATOM      9  C   UNL     1       5.465   6.780  16.679  0.00  0.00    +0.000 C 
ATOM     10  C   UNL     1       4.372   6.221  17.563  0.00  0.00    +0.000 C 
ENDROOT
BRANCH   1  14
ATOM     11  O   UNL     1       1.047   4.711  17.233  0.00  0.00    +0.000 OA
ATOM     12  C   UNL     1       1.559   3.892  18.013  0.00  0.00    +0.000 C 
ATOM     13  C   UNL     1       2.388   2.744  17.501  0.00  0.00    +0.000 C 
ATOM     14  C   UNL     1       3.277   2.152  18.621  0.00  0.00    +0.000 C 
ATOM     15  N   UNL     1       2.550   2.061  19.869  0.00  0.00    +0.000 N 
ATOM     16  C   UNL     1       1.617   2.979  20.251  0.00  0.00    +0.000 C 
ATOM     17  O   UNL     1       1.143   2.960  21.373  0.00  0.00    +0.000 OA
ATOM     18  N   UNL     1       1.258   3.913  19.344  0.00  0.00    +0.000 N 
ATOM     19  H   UNL     1       2.882   1.438  20.589  0.00  0.00    +0.000 HD
ATOM     20  H   UNL     1       0.582   4.609  19.620  0.00  0.00    +0.000 HD
ENDBRANCH   1  14
BRANCH   9  21
ATOM     21  C   UNL     1       6.126   7.875  17.564  0.00  0.00    +0.000 C 
BRANCH  21  22
ATOM     22  C   UNL     1       7.587   8.139  17.582  0.00  0.00    +0.000 C 
ATOM     23  F   UNL     1       8.216   7.632  16.511  0.00  0.00    +0.000 F 
ATOM     24  F   UNL     1       7.816   9.473  17.619  0.00  0.00    +0.000 F 
ATOM     25  F   UNL     1       8.154   7.618  18.700  0.00  0.00    +0.000 F 
ENDBRANCH  21  22
ENDBRANCH   9  21
TORSDOF 3
ENDMDL
