MODEL 1
REMARK VINA RESULT:      -7.6      0.000      0.000
REMARK  Name = 
REMARK  1 active torsions:
REMARK  status: ('A' for Active; 'I' for Inactive)
REMARK    1  A    between atoms: C_6  and  C_7
REMARK                            x       y       z     vdW  Elec       q    Type
REMARK                         _______ _______ _______ _____ _____    ______ ____
ROOT
ATOM      1  O   UNL     1       4.966   2.281  20.367  0.00  0.00    +0.000 OA
ATOM      2  C   UNL     1       4.483   3.245  19.781  0.00  0.00    +0.000 C 
ATOM      3  N   UNL     1       5.281   4.259  19.295  0.00  0.00    +0.000 N 
ATOM      4  C   UNL     1       4.927   5.169  18.322  0.00  0.00    +0.000 C 
ATOM      5  O   UNL     1       5.789   5.894  17.822  0.00  0.00    +0.000 OA
ATOM      6  C   UNL     1       3.433   5.240  17.904  0.00  0.00    +0.000 C 
ATOM      7  N   UNL     1       2.753   3.985  18.240  0.00  0.00    +0.000 NA
ATOM      8  C   UNL     1       1.338   3.845  17.971  0.00  0.00    +0.000 C 
ATOM      9  C   UNL     1       1.059   2.454  18.536  0.00  0.00    +0.000 C 
ATOM     10  C   UNL     1       2.129   2.215  19.606  0.00  0.00    +0.000 C 
ATOM     11  C   UNL     1       2.988   3.472  19.586  0.00  0.00    +0.000 C 
ATOM     12  H   UNL     1       6.272   4.158  19.453  0.00  0.00    +0.000 HD
ENDROOT
BRANCH   6  13
ATOM     13  C   UNL     1       2.780   6.540  18.355  0.00  0.00    +0.000 A 
ATOM     14  C   UNL     1       2.652   7.594  17.433  0.00  0.00    +0.000 A 
ATOM     15  C   UNL     1       2.118   8.828  17.816  0.00  0.00    +0.000 A 
ATOM     16  C   UNL     1       1.689   9.032  19.128  0.00  0.00    +0.000 A 
ATOM     17 CL   UNL     1       1.046  10.583  19.534  0.00  0.00    +0.000 Cl
ATOM     18  C   UNL     1       1.802   7.995  20.057  0.00  0.00    +0.000 A 
ATOM     19 CL   UNL     1       1.295   8.169  21.701  0.00  0.00    +0.000 Cl
ATOM     20  C   UNL     1       2.350   6.762  19.674  0.00  0.00    +0.000 A 
ENDBRANCH   6  13
TORSDOF 1
ENDMDL
MODEL 2
REMARK VINA RESULT:      -7.6      0.763      1.624
REMARK  Name = 
REMARK  1 active torsions:
REMARK  status: ('A' for Active; 'I' for Inactive)
REMARK    1  A    between atoms: C_6  and  C_7
REMARK                            x       y       z     vdW  Elec       q    Type
REMARK                         _______ _______ _______ _____ _____    ______ ____
ROOT
ATOM      1  O   UNL     1       4.939   1.759  20.163  0.00  0.00    +0.000 OA
ATOM      2  C   UNL     1       4.446   2.793  19.724  0.00  0.00    +0.000 C 
ATOM      3  N   UNL     1       5.239   3.843  19.312  0.00  0.00    +0.000 N 
ATOM      4  C   UNL     1       4.851   4.868  18.476  0.00  0.00    +0.000 C 
ATOM      5  O   UNL     1       5.700   5.632  18.013  0.00  0.00    +0.000 OA
ATOM      6  C   UNL     1       3.337   5.013  18.159  0.00  0.00    +0.000 C 
ATOM      7  N   UNL     1       2.649   3.739  18.387  0.00  0.00    +0.000 NA
ATOM      8  C   UNL     1       1.217   3.656  18.189  0.00  0.00    +0.000 C 
ATOM      9  C   UNL     1       0.938   2.212  18.604  0.00  0.00    +0.000 C 
ATOM     10  C   UNL     1       2.062   1.831  19.572  0.00  0.00    +0.000 C 
ATOM     11  C   UNL     1       2.948   3.067  19.648  0.00  0.00    +0.000 C 
ATOM     12  H   UNL     1       6.235   3.708  19.398  0.00  0.00    +0.000 HD
ENDROOT
BRANCH   6  13
ATOM     13  C   UNL     1       2.744   6.261  18.798  0.00  0.00    +0.000 A 
ATOM     14  C   UNL     1       2.268   6.191  20.120  0.00  0.00    +0.000 A 
ATOM     15  C   UNL     1       1.658   7.291  20.728  0.00  0.00    +0.000 A 
ATOM     16  C   UNL     1       1.519   8.492  20.031  0.00  0.00    +0.000 A 
ATOM     17 CL   UNL     1       0.749   9.810  20.841  0.00  0.00    +0.000 Cl
ATOM     18  C   UNL     1       1.990   8.584  18.720  0.00  0.00    +0.000 A 
ATOM     19 CL   UNL     1       1.856  10.036  17.790  0.00  0.00    +0.000 Cl
ATOM     20  C   UNL     1       2.591   7.475  18.107  0.00  0.00    +0.000 A 
ENDBRANCH   6  13
TORSDOF 1
ENDMDL
MODEL 3
REMARK VINA RESULT:      -7.3      1.976      3.483
REMARK  Name = 
REMARK  1 active torsions:
REMARK  status: ('A' for Active; 'I' for Inactive)
REMARK    1  A    between atoms: C_6  and  C_7
REMARK                            x       y       z     vdW  Elec       q    Type
REMARK                         _______ _______ _______ _____ _____    ______ ____
ROOT
ATOM      1  O   UNL     1       6.178   3.564  15.181  0.00  0.00    +0.000 OA
ATOM      2  C   UNL     1       5.475   4.050  16.060  0.00  0.00    +0.000 C 
ATOM      3  N   UNL     1       4.135   3.737  16.159  0.00  0.00    +0.000 N 
ATOM      4  C   UNL     1       3.348   3.900  17.278  0.00  0.00    +0.000 C 
ATOM      5  O   UNL     1       2.225   3.394  17.314  0.00  0.00    +0.000 OA
ATOM      6  C   UNL     1       3.924   4.734  18.455  0.00  0.00    +0.000 C 
ATOM      7  N   UNL     1       5.387   4.768  18.382  0.00  0.00    +0.000 NA
ATOM      8  C   UNL     1       6.134   5.525  19.364  0.00  0.00    +0.000 C 
ATOM      9  C   UNL     1       7.565   5.341  18.863  0.00  0.00    +0.000 C 
ATOM     10  C   UNL     1       7.451   5.067  17.360  0.00  0.00    +0.000 C 
ATOM     11  C   UNL     1       5.955   5.082  17.075  0.00  0.00    +0.000 C 
ATOM     12  H   UNL     1       3.778   3.093  15.469  0.00  0.00    +0.000 HD
ENDROOT
BRANCH   6  13
ATOM     13  C   UNL     1       3.194   6.060  18.618  0.00  0.00    +0.000 A 
ATOM     14  C   UNL     1       3.233   6.995  17.568  0.00  0.00    +0.000 A 
ATOM     15  C   UNL     1       2.632   8.250  17.694  0.00  0.00    +0.000 A 
ATOM     16  C   UNL     1       1.967   8.596  18.870  0.00  0.00    +0.000 A 
ATOM     17 CL   UNL     1       1.252  10.166  18.961  0.00  0.00    +0.000 Cl
ATOM     18  C   UNL     1       1.911   7.679  19.923  0.00  0.00    +0.000 A 
ATOM     19 CL   UNL     1       1.107   8.032  21.413  0.00  0.00    +0.000 Cl
ATOM     20  C   UNL     1       2.526   6.425  19.799  0.00  0.00    +0.000 A 
ENDBRANCH   6  13
TORSDOF 1
ENDMDL
MODEL 4
REMARK VINA RESULT:      -7.1      2.068      3.932
REMARK  Name = 
REMARK  1 active torsions:
REMARK  status: ('A' for Active; 'I' for Inactive)
REMARK    1  A    between atoms: C_6  and  C_7
REMARK                            x       y       z     vdW  Elec       q    Type
REMARK                         _______ _______ _______ _____ _____    ______ ____
ROOT
ATOM      1  O   UNL     1       5.942   4.050  14.919  0.00  0.00    +0.000 OA
ATOM      2  C   UNL     1       5.329   4.328  15.945  0.00  0.00    +0.000 C 
ATOM      3  N   UNL     1       4.050   3.861  16.162  0.00  0.00    +0.000 N 
ATOM      4  C   UNL     1       3.416   3.779  17.383  0.00  0.00    +0.000 C 
ATOM      5  O   UNL     1       2.358   3.155  17.482  0.00  0.00    +0.000 OA
ATOM      6  C   UNL     1       4.077   4.496  18.593  0.00  0.00    +0.000 C 
ATOM      7  N   UNL     1       5.507   4.697  18.342  0.00  0.00    +0.000 NA
ATOM      8  C   UNL     1       6.315   5.384  19.328  0.00  0.00    +0.000 C 
ATOM      9  C   UNL     1       7.672   5.428  18.628  0.00  0.00    +0.000 C 
ATOM     10  C   UNL     1       7.371   5.359  17.127  0.00  0.00    +0.000 C 
ATOM     11  C   UNL     1       5.855   5.252  17.038  0.00  0.00    +0.000 C 
ATOM     12  H   UNL     1       3.657   3.287  15.432  0.00  0.00    +0.000 HD
ENDROOT
BRANCH   6  13
ATOM     13  C   UNL     1       3.263   5.699  19.050  0.00  0.00    +0.000 A 
ATOM     14  C   UNL     1       2.597   5.641  20.288  0.00  0.00    +0.000 A 
ATOM     15  C   UNL     1       1.787   6.694  20.724  0.00  0.00    +0.000 A 
ATOM     16  C   UNL     1       1.634   7.834  19.935  0.00  0.00    +0.000 A 
ATOM     17 CL   UNL     1       0.613   9.094  20.530  0.00  0.00    +0.000 Cl
ATOM     18  C   UNL     1       2.291   7.913  18.705  0.00  0.00    +0.000 A 
ATOM     19 CL   UNL     1       2.151   9.292  17.670  0.00  0.00    +0.000 Cl
ATOM     20  C   UNL     1       3.093   6.850  18.264  0.00  0.00    +0.000 A 
ENDBRANCH   6  13
TORSDOF 1
ENDMDL
MODEL 5
REMARK VINA RESULT:      -7.1      3.915      4.576
REMARK  Name = 
REMARK  1 active torsions:
REMARK  status: ('A' for Active; 'I' for Inactive)
REMARK    1  A    between atoms: C_6  and  C_7
REMARK                            x       y       z     vdW  Elec       q    Type
REMARK                         _______ _______ _______ _____ _____    ______ ____
ROOT
ATOM      1  O   UNL     1       1.555   2.591  22.299  0.00  0.00    +0.000 OA
ATOM      2  C   UNL     1       2.342   2.728  21.368  0.00  0.00    +0.000 C 
ATOM      3  N   UNL     1       3.615   2.201  21.425  0.00  0.00    +0.000 N 
ATOM      4  C   UNL     1       4.437   1.956  20.346  0.00  0.00    +0.000 C 
ATOM      5  O   UNL     1       5.465   1.294  20.499  0.00  0.00    +0.000 OA
ATOM      6  C   UNL     1       4.022   2.545  18.970  0.00  0.00    +0.000 C 
ATOM      7  N   UNL     1       2.582   2.817  18.950  0.00  0.00    +0.000 NA
ATOM      8  C   UNL     1       1.983   3.407  17.771  0.00  0.00    +0.000 C 
ATOM      9  C   UNL     1       0.533   3.574  18.220  0.00  0.00    +0.000 C 
ATOM     10  C   UNL     1       0.577   3.672  19.748  0.00  0.00    +0.000 C 
ATOM     11  C   UNL     1       2.051   3.532  20.106  0.00  0.00    +0.000 C 
ATOM     12  H   UNL     1       3.852   1.705  22.271  0.00  0.00    +0.000 HD
ENDROOT
BRANCH   6  13
ATOM     13  C   UNL     1       4.959   3.661  18.527  0.00  0.00    +0.000 A 
ATOM     14  C   UNL     1       5.382   4.612  19.473  0.00  0.00    +0.000 A 
ATOM     15  C   UNL     1       6.191   5.690  19.103  0.00  0.00    +0.000 A 
ATOM     16  C   UNL     1       6.604   5.835  17.778  0.00  0.00    +0.000 A 
ATOM     17 CL   UNL     1       7.597   7.195  17.388  0.00  0.00    +0.000 Cl
ATOM     18  C   UNL     1       6.200   4.898  16.825  0.00  0.00    +0.000 A 
ATOM     19 CL   UNL     1       6.669   5.009  15.164  0.00  0.00    +0.000 Cl
ATOM     20  C   UNL     1       5.378   3.824  17.196  0.00  0.00    +0.000 A 
ENDBRANCH   6  13
TORSDOF 1
ENDMDL
MODEL 6
REMARK VINA RESULT:      -7.0      3.391      4.869
REMARK  Name = 
REMARK  1 active torsions:
REMARK  status: ('A' for Active; 'I' for Inactive)
REMARK    1  A    between atoms: C_6  and  C_7
REMARK                            x       y       z     vdW  Elec       q    Type
REMARK                         _______ _______ _______ _____ _____    ______ ____
ROOT
ATOM      1  O   UNL     1       7.570   7.463  17.039  0.00  0.00    +0.000 OA
ATOM      2  C   UNL     1       6.477   6.934  17.215  0.00  0.00    +0.000 C 
ATOM      3  N   UNL     1       5.388   7.668  17.637  0.00  0.00    +0.000 N 
ATOM      4  C   UNL     1       4.067   7.298  17.511  0.00  0.00    +0.000 C 
ATOM      5  O   UNL     1       3.177   8.122  17.733  0.00  0.00    +0.000 OA
ATOM      6  C   UNL     1       3.760   5.833  17.093  0.00  0.00    +0.000 C 
ATOM      7  N   UNL     1       4.919   5.249  16.412  0.00  0.00    +0.000 NA
ATOM      8  C   UNL     1       4.867   3.872  15.968  0.00  0.00    +0.000 C 
ATOM      9  C   UNL     1       6.274   3.683  15.404  0.00  0.00    +0.000 C 
ATOM     10  C   UNL     1       7.158   4.699  16.135  0.00  0.00    +0.000 C 
ATOM     11  C   UNL     1       6.209   5.441  17.067  0.00  0.00    +0.000 C 
ATOM     12  H   UNL     1       5.549   8.652  17.791  0.00  0.00    +0.000 HD
ENDROOT
BRANCH   6  13
ATOM     13  C   UNL     1       3.136   5.040  18.233  0.00  0.00    +0.000 A 
ATOM     14  C   UNL     1       3.612   5.236  19.542  0.00  0.00    +0.000 A 
ATOM     15  C   UNL     1       3.115   4.487  20.613  0.00  0.00    +0.000 A 
ATOM     16  C   UNL     1       2.122   3.531  20.400  0.00  0.00    +0.000 A 
ATOM     17 CL   UNL     1       1.558   2.636  21.766  0.00  0.00    +0.000 Cl
ATOM     18  C   UNL     1       1.631   3.325  19.108  0.00  0.00    +0.000 A 
ATOM     19 CL   UNL     1       0.401   2.160  18.763  0.00  0.00    +0.000 Cl
ATOM     20  C   UNL     1       2.140   4.069  18.034  0.00  0.00    +0.000 A 
ENDBRANCH   6  13
TORSDOF 1
ENDMDL
MODEL 7
REMARK VINA RESULT:      -6.9      1.971      3.014
REMARK  Name = 
REMARK  1 active torsions:
REMARK  status: ('A' for Active; 'I' for Inactive)
REMARK    1  A    between atoms: C_6  and  C_7
REMARK                            x       y       z     vdW  Elec       q    Type
REMARK                         _______ _______ _______ _____ _____    ______ ____
ROOT
ATOM      1  O   UNL     1       2.473   2.125  17.083  0.00  0.00    +0.000 OA
ATOM      2  C   UNL     1       2.489   3.164  17.736  0.00  0.00    +0.000 C 
ATOM      3  N   UNL     1       1.580   3.383  18.750  0.00  0.00    +0.000 N 
ATOM      4  C   UNL     1       1.718   4.296  19.774  0.00  0.00    +0.000 C 
ATOM      5  O   UNL     1       0.946   4.258  20.733  0.00  0.00    +0.000 OA
ATOM      6  C   UNL     1       2.856   5.347  19.660  0.00  0.00    +0.000 C 
ATOM      7  N   UNL     1       3.897   4.869  18.746  0.00  0.00    +0.000 NA
ATOM      8  C   UNL     1       5.040   5.712  18.462  0.00  0.00    +0.000 C 
ATOM      9  C   UNL     1       5.792   4.864  17.438  0.00  0.00    +0.000 C 
ATOM     10  C   UNL     1       4.737   3.972  16.776  0.00  0.00    +0.000 C 
ATOM     11  C   UNL     1       3.431   4.333  17.471  0.00  0.00    +0.000 C 
ATOM     12  H   UNL     1       0.912   2.646  18.915  0.00  0.00    +0.000 HD
ENDROOT
BRANCH   6  13
ATOM     13  C   UNL     1       2.308   6.750  19.436  0.00  0.00    +0.000 A 
ATOM     14  C   UNL     1       2.368   7.308  18.146  0.00  0.00    +0.000 A 
ATOM     15  C   UNL     1       1.936   8.615  17.902  0.00  0.00    +0.000 A 
ATOM     16  C   UNL     1       1.424   9.391  18.942  0.00  0.00    +0.000 A 
ATOM     17 CL   UNL     1       0.915  11.000  18.572  0.00  0.00    +0.000 Cl
ATOM     18  C   UNL     1       1.350   8.853  20.229  0.00  0.00    +0.000 A 
ATOM     19 CL   UNL     1       0.729   9.751  21.571  0.00  0.00    +0.000 Cl
ATOM     20  C   UNL     1       1.796   7.546  20.474  0.00  0.00    +0.000 A 
ENDBRANCH   6  13
TORSDOF 1
ENDMDL
MODEL 8
REMARK VINA RESULT:      -6.8      3.448      4.978
REMARK  Name = 
REMARK  1 active torsions:
REMARK  status: ('A' for Active; 'I' for Inactive)
REMARK    1  A    between atoms: C_6  and  C_7
REMARK                            x       y       z     vdW  Elec       q    Type
REMARK                         _______ _______ _______ _____ _____    ______ ____
ROOT
ATOM      1  O   UNL     1       7.612   7.387  16.901  0.00  0.00    +0.000 OA
ATOM      2  C   UNL     1       6.544   6.818  17.109  0.00  0.00    +0.000 C 
ATOM      3  N   UNL     1       5.469   7.493  17.647  0.00  0.00    +0.000 N 
ATOM      4  C   UNL     1       4.151   7.096  17.579  0.00  0.00    +0.000 C 
ATOM      5  O   UNL     1       3.259   7.879  17.911  0.00  0.00    +0.000 OA
ATOM      6  C   UNL     1       3.852   5.654  17.083  0.00  0.00    +0.000 C 
ATOM      7  N   UNL     1       4.977   5.148  16.293  0.00  0.00    +0.000 NA
ATOM      8  C   UNL     1       4.928   3.802  15.762  0.00  0.00    +0.000 C 
ATOM      9  C   UNL     1       6.300   3.689  15.099  0.00  0.00    +0.000 C 
ATOM     10  C   UNL     1       7.205   4.678  15.839  0.00  0.00    +0.000 C 
ATOM     11  C   UNL     1       6.302   5.331  16.877  0.00  0.00    +0.000 C 
ATOM     12  H   UNL     1       5.616   8.469  17.857  0.00  0.00    +0.000 HD
ENDROOT
BRANCH   6  13
ATOM     13  C   UNL     1       3.320   4.771  18.204  0.00  0.00    +0.000 A 
ATOM     14  C   UNL     1       1.985   4.926  18.620  0.00  0.00    +0.000 A 
ATOM     15  C   UNL     1       1.469   4.183  19.685  0.00  0.00    +0.000 A 
ATOM     16  C   UNL     1       2.274   3.259  20.353  0.00  0.00    +0.000 A 
ATOM     17 CL   UNL     1       1.574   2.380  21.665  0.00  0.00    +0.000 Cl
ATOM     18  C   UNL     1       3.601   3.086  19.951  0.00  0.00    +0.000 A 
ATOM     19 CL   UNL     1       4.661   1.962  20.727  0.00  0.00    +0.000 Cl
ATOM     20  C   UNL     1       4.120   3.842  18.890  0.00  0.00    +0.000 A 
ENDBRANCH   6  13
TORSDOF 1
ENDMDL
MODEL 9
REMARK VINA RESULT:      -6.8      4.174      5.311
REMARK  Name = 
REMARK  1 active torsions:
REMARK  status: ('A' for Active; 'I' for Inactive)
REMARK    1  A    between atoms: C_6  and  C_7
REMARK                            x       y       z     vdW  Elec       q    Type
REMARK                         _______ _______ _______ _____ _____    ______ ____
ROOT
ATOM      1  O   UNL     1       1.991   5.876  20.015  0.00  0.00    +0.000 OA
ATOM      2  C   UNL     1       2.942   5.411  19.394  0.00  0.00    +0.000 C 
ATOM      3  N   UNL     1       4.227   5.857  19.616  0.00  0.00    +0.000 N 
ATOM      4  C   UNL     1       5.384   5.186  19.284  0.00  0.00    +0.000 C 
ATOM      5  O   UNL     1       6.467   5.584  19.717  0.00  0.00    +0.000 OA
ATOM      6  C   UNL     1       5.262   3.944  18.360  0.00  0.00    +0.000 C 
ATOM      7  N   UNL     1       3.902   3.400  18.420  0.00  0.00    +0.000 NA
ATOM      8  C   UNL     1       3.554   2.257  17.603  0.00  0.00    +0.000 C 
ATOM      9  C   UNL     1       2.069   2.098  17.925  0.00  0.00    +0.000 C 
ATOM     10  C   UNL     1       1.583   3.485  18.356  0.00  0.00    +0.000 C 
ATOM     11  C   UNL     1       2.820   4.371  18.286  0.00  0.00    +0.000 C 
ATOM     12  H   UNL     1       4.332   6.582  20.310  0.00  0.00    +0.000 HD
ENDROOT
BRANCH   6  13
ATOM     13  C   UNL     1       5.860   4.202  16.984  0.00  0.00    +0.000 A 
ATOM     14  C   UNL     1       7.092   4.875  16.891  0.00  0.00    +0.000 A 
ATOM     15  C   UNL     1       7.651   5.192  15.649  0.00  0.00    +0.000 A 
ATOM     16  C   UNL     1       6.996   4.831  14.471  0.00  0.00    +0.000 A 
ATOM     17 CL   UNL     1       7.740   5.259  12.972  0.00  0.00    +0.000 Cl
ATOM     18  C   UNL     1       5.775   4.157  14.542  0.00  0.00    +0.000 A 
ATOM     19 CL   UNL     1       4.901   3.677  13.129  0.00  0.00    +0.000 Cl
ATOM     20  C   UNL     1       5.209   3.852  15.789  0.00  0.00    +0.000 A 
ENDBRANCH   6  13
TORSDOF 1
ENDMDL
