MODEL 1
REMARK VINA RESULT:      -8.6      0.000      0.000
REMARK  Name = 
REMARK  7 active torsions:
REMARK  status: ('A' for Active; 'I' for Inactive)
REMARK    1  A    between atoms: C_1  and  C_2
REMARK    2  A    between atoms: C_2  and  C_3
REMARK    3  A    between atoms: C_2  and  C_4
REMARK    4  A    between atoms: C_7  and  C_8
REMARK    5  A    between atoms: C_8  and  N_9
REMARK    6  A    between atoms: C_13  and  C_14
REMARK    7  A    between atoms: C_16  and  C_17
REMARK                            x       y       z     vdW  Elec       q    Type
REMARK                         _______ _______ _______ _____ _____    ______ ____
ROOT
ATOM      1  N   UNL     1       4.821   6.529  17.689  0.00  0.00    +0.000 NA
ATOM      2  C   UNL     1       5.261   5.579  18.721  0.00  0.00    +0.000 C 
ATOM      3  C   UNL     1       6.741   5.223  18.573  0.00  0.00    +0.000 C 
ATOM      4  C   UNL     1       7.029   4.652  17.192  0.00  0.00    +0.000 C 
ATOM      5  C   UNL     1       6.554   5.603  16.086  0.00  0.00    +0.000 C 
ATOM      6  C   UNL     1       5.100   6.058  16.322  0.00  0.00    +0.000 C 
ENDROOT
BRANCH   5   7
ATOM      7  C   UNL     1       6.689   4.966  14.729  0.00  0.00    +0.000 A 
ATOM      8  C   UNL     1       5.911   3.919  14.197  0.00  0.00    +0.000 A 
ATOM      9  C   UNL     1       6.392   3.698  12.922  0.00  0.00    +0.000 A 
ATOM     10  N   UNL     1       7.418   4.596  12.771  0.00  0.00    +0.000 N 
ATOM     11  N   UNL     1       7.620   5.371  13.854  0.00  0.00    +0.000 NA
ATOM     12  H   UNL     1       8.015   4.736  11.959  0.00  0.00    +0.000 HD
BRANCH   9  13
ATOM     13  C   UNL     1       5.986   2.767  11.911  0.00  0.00    +0.000 C 
ATOM     14  N   UNL     1       6.966   1.921  11.475  0.00  0.00    +0.000 N 
ATOM     15  O   UNL     1       4.855   2.698  11.451  0.00  0.00    +0.000 OA
ATOM     16  H   UNL     1       7.904   1.926  11.827  0.00  0.00    +0.000 HD
ATOM     17  H   UNL     1       6.716   1.241  10.770  0.00  0.00    +0.000 HD
ENDBRANCH   9  13
ENDBRANCH   5   7
BRANCH   1  18
ATOM     18  C   UNL     1       3.387   6.885  17.847  0.00  0.00    +0.000 C 
BRANCH  18  22
ATOM     19  C   UNL     1       1.638   4.876  20.209  0.00  0.00    +0.000 A 
ATOM     20  N   UNL     1       1.587   6.002  20.889  0.00  0.00    +0.000 NA
ATOM     21  N   UNL     1       2.247   6.949  20.129  0.00  0.00    +0.000 NA
ATOM     22  C   UNL     1       2.661   6.334  19.039  0.00  0.00    +0.000 A 
ATOM     23  O   UNL     1       2.305   5.009  19.017  0.00  0.00    +0.000 OA
BRANCH  19  25
ATOM     24  C   UNL     1       0.852   2.724  19.246  0.00  0.00    +0.000 C 
ATOM     25  C   UNL     1       1.069   3.534  20.523  0.00  0.00    +0.000 C 
ATOM     26  C   UNL     1       1.953   2.757  21.499  0.00  0.00    +0.000 C 
ENDBRANCH  19  25
ENDBRANCH  18  22
ENDBRANCH   1  18
TORSDOF 5
ENDMDL
MODEL 2
REMARK VINA RESULT:      -8.2      2.534      7.785
REMARK  Name = 
REMARK  7 active torsions:
REMARK  status: ('A' for Active; 'I' for Inactive)
REMARK    1  A    between atoms: C_1  and  C_2
REMARK    2  A    between atoms: C_2  and  C_3
REMARK    3  A    between atoms: C_2  and  C_4
REMARK    4  A    between atoms: C_7  and  C_8
REMARK    5  A    between atoms: C_8  and  N_9
REMARK    6  A    between atoms: C_13  and  C_14
REMARK    7  A    between atoms: C_16  and  C_17
REMARK                            x       y       z     vdW  Elec       q    Type
REMARK                         _______ _______ _______ _____ _____    ______ ____
ROOT
ATOM      1  N   UNL     1       4.779   4.359  18.034  0.00  0.00    +0.000 NA
ATOM      2  C   UNL     1       4.536   3.457  19.169  0.00  0.00    +0.000 C 
ATOM      3  C   UNL     1       3.045   3.323  19.480  0.00  0.00    +0.000 C 
ATOM      4  C   UNL     1       2.421   4.682  19.761  0.00  0.00    +0.000 C 
ATOM      5  C   UNL     1       2.682   5.663  18.611  0.00  0.00    +0.000 C 
ATOM      6  C   UNL     1       4.173   5.688  18.220  0.00  0.00    +0.000 C 
ENDROOT
BRANCH   5   7
ATOM      7  C   UNL     1       2.210   7.048  18.962  0.00  0.00    +0.000 A 
ATOM      8  C   UNL     1       2.057   8.143  18.090  0.00  0.00    +0.000 A 
ATOM      9  C   UNL     1       1.579   9.182  18.863  0.00  0.00    +0.000 A 
ATOM     10  N   UNL     1       1.489   8.665  20.131  0.00  0.00    +0.000 N 
ATOM     11  N   UNL     1       1.870   7.376  20.216  0.00  0.00    +0.000 NA
ATOM     12  H   UNL     1       1.172   9.132  20.978  0.00  0.00    +0.000 HD
BRANCH   9  13
ATOM     13  C   UNL     1       1.231  10.529  18.521  0.00  0.00    +0.000 C 
ATOM     14  N   UNL     1       2.180  11.212  17.815  0.00  0.00    +0.000 N 
ATOM     15  O   UNL     1       0.170  11.063  18.813  0.00  0.00    +0.000 OA
ATOM     16  H   UNL     1       3.059  10.819  17.538  0.00  0.00    +0.000 HD
ATOM     17  H   UNL     1       1.967  12.162  17.543  0.00  0.00    +0.000 HD
ENDBRANCH   9  13
ENDBRANCH   5   7
BRANCH   1  18
ATOM     18  C   UNL     1       6.228   4.474  17.725  0.00  0.00    +0.000 C 
BRANCH  18  22
ATOM     19  C   UNL     1       6.702   4.317  14.200  0.00  0.00    +0.000 A 
ATOM     20  N   UNL     1       7.490   5.349  14.421  0.00  0.00    +0.000 NA
ATOM     21  N   UNL     1       7.438   5.598  15.779  0.00  0.00    +0.000 NA
ATOM     22  C   UNL     1       6.617   4.704  16.295  0.00  0.00    +0.000 A 
ATOM     23  O   UNL     1       6.112   3.848  15.348  0.00  0.00    +0.000 OA
BRANCH  19  25
ATOM     24  C   UNL     1       4.904   3.662  12.614  0.00  0.00    +0.000 C 
ATOM     25  C   UNL     1       6.396   3.592  12.934  0.00  0.00    +0.000 C 
ATOM     26  C   UNL     1       7.216   4.131  11.760  0.00  0.00    +0.000 C 
ENDBRANCH  19  25
ENDBRANCH  18  22
ENDBRANCH   1  18
TORSDOF 5
ENDMDL
MODEL 3
REMARK VINA RESULT:      -8.2      2.104      3.013
REMARK  Name = 
REMARK  7 active torsions:
REMARK  status: ('A' for Active; 'I' for Inactive)
REMARK    1  A    between atoms: C_1  and  C_2
REMARK    2  A    between atoms: C_2  and  C_3
REMARK    3  A    between atoms: C_2  and  C_4
REMARK    4  A    between atoms: C_7  and  C_8
REMARK    5  A    between atoms: C_8  and  N_9
REMARK    6  A    between atoms: C_13  and  C_14
REMARK    7  A    between atoms: C_16  and  C_17
REMARK                            x       y       z     vdW  Elec       q    Type
REMARK                         _______ _______ _______ _____ _____    ______ ____
ROOT
ATOM      1  N   UNL     1       4.725   6.090  18.232  0.00  0.00    +0.000 NA
ATOM      2  C   UNL     1       5.525   5.310  19.187  0.00  0.00    +0.000 C 
ATOM      3  C   UNL     1       7.017   5.366  18.859  0.00  0.00    +0.000 C 
ATOM      4  C   UNL     1       7.284   4.874  17.444  0.00  0.00    +0.000 C 
ATOM      5  C   UNL     1       6.442   5.644  16.419  0.00  0.00    +0.000 C 
ATOM      6  C   UNL     1       4.958   5.693  16.834  0.00  0.00    +0.000 C 
ENDROOT
BRANCH   5   7
ATOM      7  C   UNL     1       6.581   5.048  15.044  0.00  0.00    +0.000 A 
ATOM      8  C   UNL     1       5.735   4.103  14.435  0.00  0.00    +0.000 A 
ATOM      9  C   UNL     1       6.254   3.882  13.175  0.00  0.00    +0.000 A 
ATOM     10  N   UNL     1       7.367   4.681  13.108  0.00  0.00    +0.000 N 
ATOM     11  N   UNL     1       7.589   5.392  14.230  0.00  0.00    +0.000 NA
ATOM     12  H   UNL     1       8.015   4.792  12.330  0.00  0.00    +0.000 HD
BRANCH   9  13
ATOM     13  C   UNL     1       5.812   3.034  12.108  0.00  0.00    +0.000 C 
ATOM     14  N   UNL     1       6.725   2.111  11.685  0.00  0.00    +0.000 N 
ATOM     15  O   UNL     1       4.704   3.094  11.593  0.00  0.00    +0.000 OA
ATOM     16  H   UNL     1       7.639   2.009  12.081  0.00  0.00    +0.000 HD
ATOM     17  H   UNL     1       6.446   1.484  10.942  0.00  0.00    +0.000 HD
ENDBRANCH   9  13
ENDBRANCH   5   7
BRANCH   1  18
ATOM     18  C   UNL     1       3.278   6.047  18.565  0.00  0.00    +0.000 C 
BRANCH  18  22
ATOM     19  C   UNL     1       1.397   8.882  19.613  0.00  0.00    +0.000 A 
ATOM     20  N   UNL     1       1.550   9.247  18.358  0.00  0.00    +0.000 NA
ATOM     21  N   UNL     1       2.295   8.257  17.749  0.00  0.00    +0.000 NA
ATOM     22  C   UNL     1       2.551   7.355  18.676  0.00  0.00    +0.000 A 
ATOM     23  O   UNL     1       2.005   7.683  19.892  0.00  0.00    +0.000 OA
BRANCH  19  25
ATOM     24  C   UNL     1       1.112   8.998  22.080  0.00  0.00    +0.000 C 
ATOM     25  C   UNL     1       0.657   9.543  20.727  0.00  0.00    +0.000 C 
ATOM     26  C   UNL     1       0.816  11.064  20.689  0.00  0.00    +0.000 C 
ENDBRANCH  19  25
ENDBRANCH  18  22
ENDBRANCH   1  18
TORSDOF 5
ENDMDL
MODEL 4
REMARK VINA RESULT:      -8.1      1.112      1.223
REMARK  Name = 
REMARK  7 active torsions:
REMARK  status: ('A' for Active; 'I' for Inactive)
REMARK    1  A    between atoms: C_1  and  C_2
REMARK    2  A    between atoms: C_2  and  C_3
REMARK    3  A    between atoms: C_2  and  C_4
REMARK    4  A    between atoms: C_7  and  C_8
REMARK    5  A    between atoms: C_8  and  N_9
REMARK    6  A    between atoms: C_13  and  C_14
REMARK    7  A    between atoms: C_16  and  C_17
REMARK                            x       y       z     vdW  Elec       q    Type
REMARK                         _______ _______ _______ _____ _____    ______ ____
ROOT
ATOM      1  N   UNL     1       5.213   6.432  17.608  0.00  0.00    +0.000 NA
ATOM      2  C   UNL     1       5.858   5.539  18.581  0.00  0.00    +0.000 C 
ATOM      3  C   UNL     1       7.308   5.235  18.201  0.00  0.00    +0.000 C 
ATOM      4  C   UNL     1       7.391   4.624  16.809  0.00  0.00    +0.000 C 
ATOM      5  C   UNL     1       6.698   5.513  15.769  0.00  0.00    +0.000 C 
ATOM      6  C   UNL     1       5.284   5.921  16.229  0.00  0.00    +0.000 C 
ENDROOT
BRANCH   5   7
ATOM      7  C   UNL     1       6.636   4.832  14.428  0.00  0.00    +0.000 A 
ATOM      8  C   UNL     1       5.692   3.880  13.999  0.00  0.00    +0.000 A 
ATOM      9  C   UNL     1       6.029   3.568  12.697  0.00  0.00    +0.000 A 
ATOM     10  N   UNL     1       7.143   4.325  12.432  0.00  0.00    +0.000 N 
ATOM     11  N   UNL     1       7.532   5.094  13.466  0.00  0.00    +0.000 NA
ATOM     12  H   UNL     1       7.681   4.368  11.569  0.00  0.00    +0.000 HD
BRANCH   9  13
ATOM     13  C   UNL     1       5.426   2.672  11.756  0.00  0.00    +0.000 C 
ATOM     14  N   UNL     1       4.197   3.053  11.298  0.00  0.00    +0.000 N 
ATOM     15  O   UNL     1       5.944   1.637  11.360  0.00  0.00    +0.000 OA
ATOM     16  H   UNL     1       3.735   3.896  11.578  0.00  0.00    +0.000 HD
ATOM     17  H   UNL     1       3.744   2.453  10.622  0.00  0.00    +0.000 HD
ENDBRANCH   9  13
ENDBRANCH   5   7
BRANCH   1  18
ATOM     18  C   UNL     1       3.810   6.738  17.991  0.00  0.00    +0.000 C 
BRANCH  18  22
ATOM     19  C   UNL     1       2.296   3.912  19.538  0.00  0.00    +0.000 A 
ATOM     20  N   UNL     1       1.990   4.788  20.472  0.00  0.00    +0.000 NA
ATOM     21  N   UNL     1       2.518   5.998  20.064  0.00  0.00    +0.000 NA
ATOM     22  C   UNL     1       3.115   5.776  18.909  0.00  0.00    +0.000 A 
ATOM     23  O   UNL     1       3.010   4.468  18.507  0.00  0.00    +0.000 OA
BRANCH  19  25
ATOM     24  C   UNL     1       0.600   2.269  18.761  0.00  0.00    +0.000 C 
ATOM     25  C   UNL     1       1.961   2.463  19.429  0.00  0.00    +0.000 C 
ATOM     26  C   UNL     1       3.039   1.688  18.669  0.00  0.00    +0.000 C 
ENDBRANCH  19  25
ENDBRANCH  18  22
ENDBRANCH   1  18
TORSDOF 5
ENDMDL
MODEL 5
REMARK VINA RESULT:      -8.1      1.251      1.386
REMARK  Name = 
REMARK  7 active torsions:
REMARK  status: ('A' for Active; 'I' for Inactive)
REMARK    1  A    between atoms: C_1  and  C_2
REMARK    2  A    between atoms: C_2  and  C_3
REMARK    3  A    between atoms: C_2  and  C_4
REMARK    4  A    between atoms: C_7  and  C_8
REMARK    5  A    between atoms: C_8  and  N_9
REMARK    6  A    between atoms: C_13  and  C_14
REMARK    7  A    between atoms: C_16  and  C_17
REMARK                            x       y       z     vdW  Elec       q    Type
REMARK                         _______ _______ _______ _____ _____    ______ ____
ROOT
ATOM      1  N   UNL     1       5.204   6.340  17.704  0.00  0.00    +0.000 NA
ATOM      2  C   UNL     1       5.869   5.444  18.660  0.00  0.00    +0.000 C 
ATOM      3  C   UNL     1       7.330   5.192  18.285  0.00  0.00    +0.000 C 
ATOM      4  C   UNL     1       7.441   4.617  16.880  0.00  0.00    +0.000 C 
ATOM      5  C   UNL     1       6.731   5.510  15.856  0.00  0.00    +0.000 C 
ATOM      6  C   UNL     1       5.302   5.865  16.313  0.00  0.00    +0.000 C 
ENDROOT
BRANCH   5   7
ATOM      7  C   UNL     1       6.699   4.860  14.499  0.00  0.00    +0.000 A 
ATOM      8  C   UNL     1       5.852   3.820  14.071  0.00  0.00    +0.000 A 
ATOM      9  C   UNL     1       6.179   3.580  12.752  0.00  0.00    +0.000 A 
ATOM     10  N   UNL     1       7.192   4.463  12.474  0.00  0.00    +0.000 N 
ATOM     11  N   UNL     1       7.528   5.244  13.518  0.00  0.00    +0.000 NA
ATOM     12  H   UNL     1       7.693   4.587  11.597  0.00  0.00    +0.000 HD
BRANCH   9  13
ATOM     13  C   UNL     1       5.647   2.646  11.804  0.00  0.00    +0.000 C 
ATOM     14  N   UNL     1       6.477   1.610  11.483  0.00  0.00    +0.000 N 
ATOM     15  O   UNL     1       4.535   2.731  11.302  0.00  0.00    +0.000 OA
ATOM     16  H   UNL     1       7.390   1.485  11.875  0.00  0.00    +0.000 HD
ATOM     17  H   UNL     1       6.133   0.922  10.826  0.00  0.00    +0.000 HD
ENDBRANCH   9  13
ENDBRANCH   5   7
BRANCH   1  18
ATOM     18  C   UNL     1       3.790   6.594  18.081  0.00  0.00    +0.000 C 
BRANCH  18  22
ATOM     19  C   UNL     1       2.264   3.617  19.299  0.00  0.00    +0.000 A 
ATOM     20  N   UNL     1       1.465   3.795  18.267  0.00  0.00    +0.000 NA
ATOM     21  N   UNL     1       1.887   4.951  17.639  0.00  0.00    +0.000 NA
ATOM     22  C   UNL     1       2.913   5.403  18.334  0.00  0.00    +0.000 A 
ATOM     23  O   UNL     1       3.216   4.601  19.405  0.00  0.00    +0.000 OA
BRANCH  19  25
ATOM     24  C   UNL     1       3.720   2.328  20.847  0.00  0.00    +0.000 C 
ATOM     25  C   UNL     1       2.302   2.523  20.311  0.00  0.00    +0.000 C 
ATOM     26  C   UNL     1       1.331   2.783  21.464  0.00  0.00    +0.000 C 
ENDBRANCH  19  25
ENDBRANCH  18  22
ENDBRANCH   1  18
TORSDOF 5
ENDMDL
MODEL 6
REMARK VINA RESULT:      -8.0      2.180      7.562
REMARK  Name = 
REMARK  7 active torsions:
REMARK  status: ('A' for Active; 'I' for Inactive)
REMARK    1  A    between atoms: C_1  and  C_2
REMARK    2  A    between atoms: C_2  and  C_3
REMARK    3  A    between atoms: C_2  and  C_4
REMARK    4  A    between atoms: C_7  and  C_8
REMARK    5  A    between atoms: C_8  and  N_9
REMARK    6  A    between atoms: C_13  and  C_14
REMARK    7  A    between atoms: C_16  and  C_17
REMARK                            x       y       z     vdW  Elec       q    Type
REMARK                         _______ _______ _______ _____ _____    ______ ____
ROOT
ATOM      1  N   UNL     1       6.398   5.432  16.565  0.00  0.00    +0.000 NA
ATOM      2  C   UNL     1       6.915   6.588  17.312  0.00  0.00    +0.000 C 
ATOM      3  C   UNL     1       7.531   6.172  18.648  0.00  0.00    +0.000 C 
ATOM      4  C   UNL     1       6.524   5.417  19.503  0.00  0.00    +0.000 C 
ATOM      5  C   UNL     1       5.937   4.220  18.745  0.00  0.00    +0.000 C 
ATOM      6  C   UNL     1       5.440   4.630  17.344  0.00  0.00    +0.000 C 
ENDROOT
BRANCH   5   7
ATOM      7  C   UNL     1       4.825   3.574  19.526  0.00  0.00    +0.000 A 
ATOM      8  C   UNL     1       3.550   4.109  19.795  0.00  0.00    +0.000 A 
ATOM      9  C   UNL     1       2.878   3.146  20.520  0.00  0.00    +0.000 A 
ATOM     10  N   UNL     1       3.776   2.116  20.655  0.00  0.00    +0.000 N 
ATOM     11  N   UNL     1       4.963   2.355  20.066  0.00  0.00    +0.000 NA
ATOM     12  H   UNL     1       3.643   1.226  21.129  0.00  0.00    +0.000 HD
BRANCH   9  13
ATOM     13  C   UNL     1       1.551   3.127  21.060  0.00  0.00    +0.000 C 
ATOM     14  N   UNL     1       0.587   3.647  20.245  0.00  0.00    +0.000 N 
ATOM     15  O   UNL     1       1.261   2.681  22.161  0.00  0.00    +0.000 OA
ATOM     16  H   UNL     1       0.767   4.013  19.330  0.00  0.00    +0.000 HD
ATOM     17  H   UNL     1      -0.366   3.641  20.586  0.00  0.00    +0.000 HD
ENDBRANCH   9  13
ENDBRANCH   5   7
BRANCH   1  18
ATOM     18  C   UNL     1       5.815   5.839  15.260  0.00  0.00    +0.000 C 
BRANCH  18  22
ATOM     19  C   UNL     1       6.016   3.529  12.559  0.00  0.00    +0.000 A 
ATOM     20  N   UNL     1       7.179   4.111  12.357  0.00  0.00    +0.000 NA
ATOM     21  N   UNL     1       7.301   5.090  13.325  0.00  0.00    +0.000 NA
ATOM     22  C   UNL     1       6.200   5.041  14.049  0.00  0.00    +0.000 A 
ATOM     23  O   UNL     1       5.334   4.066  13.623  0.00  0.00    +0.000 OA
BRANCH  19  25
ATOM     24  C   UNL     1       4.218   2.880  10.969  0.00  0.00    +0.000 C 
ATOM     25  C   UNL     1       5.371   2.390  11.844  0.00  0.00    +0.000 C 
ATOM     26  C   UNL     1       6.378   1.606  11.001  0.00  0.00    +0.000 C 
ENDBRANCH  19  25
ENDBRANCH  18  22
ENDBRANCH   1  18
TORSDOF 5
ENDMDL
MODEL 7
REMARK VINA RESULT:      -7.9      2.796      7.939
REMARK  Name = 
REMARK  7 active torsions:
REMARK  status: ('A' for Active; 'I' for Inactive)
REMARK    1  A    between atoms: C_1  and  C_2
REMARK    2  A    between atoms: C_2  and  C_3
REMARK    3  A    between atoms: C_2  and  C_4
REMARK    4  A    between atoms: C_7  and  C_8
REMARK    5  A    between atoms: C_8  and  N_9
REMARK    6  A    between atoms: C_13  and  C_14
REMARK    7  A    between atoms: C_16  and  C_17
REMARK                            x       y       z     vdW  Elec       q    Type
REMARK                         _______ _______ _______ _____ _____    ______ ____
ROOT
ATOM      1  N   UNL     1       4.677   4.835  18.047  0.00  0.00    +0.000 NA
ATOM      2  C   UNL     1       4.357   4.193  19.329  0.00  0.00    +0.000 C 
ATOM      3  C   UNL     1       2.854   4.196  19.609  0.00  0.00    +0.000 C 
ATOM      4  C   UNL     1       2.298   5.613  19.591  0.00  0.00    +0.000 C 
ATOM      5  C   UNL     1       2.640   6.328  18.278  0.00  0.00    +0.000 C 
ATOM      6  C   UNL     1       4.140   6.201  17.942  0.00  0.00    +0.000 C 
ENDROOT
BRANCH   5   7
ATOM      7  C   UNL     1       2.236   7.777  18.328  0.00  0.00    +0.000 A 
ATOM      8  C   UNL     1       1.553   8.436  19.368  0.00  0.00    +0.000 A 
ATOM      9  C   UNL     1       1.431   9.752  18.970  0.00  0.00    +0.000 A 
ATOM     10  N   UNL     1       2.023   9.802  17.733  0.00  0.00    +0.000 N 
ATOM     11  N   UNL     1       2.513   8.618  17.321  0.00  0.00    +0.000 NA
ATOM     12  H   UNL     1       2.131  10.608  17.121  0.00  0.00    +0.000 HD
BRANCH   9  13
ATOM     13  C   UNL     1       0.838  10.883  19.621  0.00  0.00    +0.000 C 
ATOM     14  N   UNL     1       0.169  10.601  20.777  0.00  0.00    +0.000 N 
ATOM     15  O   UNL     1       0.910  12.032  19.207  0.00  0.00    +0.000 OA
ATOM     16  H   UNL     1       0.093   9.681  21.167  0.00  0.00    +0.000 HD
ATOM     17  H   UNL     1      -0.253  11.375  21.273  0.00  0.00    +0.000 HD
ENDBRANCH   9  13
ENDBRANCH   5   7
BRANCH   1  18
ATOM     18  C   UNL     1       6.137   4.815  17.772  0.00  0.00    +0.000 C 
BRANCH  18  22
ATOM     19  C   UNL     1       6.713   4.439  14.279  0.00  0.00    +0.000 A 
ATOM     20  N   UNL     1       7.528   5.456  14.466  0.00  0.00    +0.000 NA
ATOM     21  N   UNL     1       7.443   5.785  15.805  0.00  0.00    +0.000 NA
ATOM     22  C   UNL     1       6.577   4.949  16.344  0.00  0.00    +0.000 A 
ATOM     23  O   UNL     1       6.073   4.056  15.431  0.00  0.00    +0.000 OA
BRANCH  19  25
ATOM     24  C   UNL     1       4.923   3.636  12.753  0.00  0.00    +0.000 C 
ATOM     25  C   UNL     1       6.422   3.651  13.047  0.00  0.00    +0.000 C 
ATOM     26  C   UNL     1       7.193   4.184  11.838  0.00  0.00    +0.000 C 
ENDBRANCH  19  25
ENDBRANCH  18  22
ENDBRANCH   1  18
TORSDOF 5
ENDMDL
MODEL 8
REMARK VINA RESULT:      -7.8      2.388      7.986
REMARK  Name = 
REMARK  7 active torsions:
REMARK  status: ('A' for Active; 'I' for Inactive)
REMARK    1  A    between atoms: C_1  and  C_2
REMARK    2  A    between atoms: C_2  and  C_3
REMARK    3  A    between atoms: C_2  and  C_4
REMARK    4  A    between atoms: C_7  and  C_8
REMARK    5  A    between atoms: C_8  and  N_9
REMARK    6  A    between atoms: C_13  and  C_14
REMARK    7  A    between atoms: C_16  and  C_17
REMARK                            x       y       z     vdW  Elec       q    Type
REMARK                         _______ _______ _______ _____ _____    ______ ____
ROOT
ATOM      1  N   UNL     1       5.098   5.066  16.750  0.00  0.00    +0.000 NA
ATOM      2  C   UNL     1       5.382   4.099  17.819  0.00  0.00    +0.000 C 
ATOM      3  C   UNL     1       4.107   3.645  18.531  0.00  0.00    +0.000 C 
ATOM      4  C   UNL     1       3.349   4.835  19.103  0.00  0.00    +0.000 C 
ATOM      5  C   UNL     1       3.061   5.883  18.021  0.00  0.00    +0.000 C 
ATOM      6  C   UNL     1       4.333   6.232  17.223  0.00  0.00    +0.000 C 
ENDROOT
BRANCH   5   7
ATOM      7  C   UNL     1       2.461   7.128  18.618  0.00  0.00    +0.000 A 
ATOM      8  C   UNL     1       2.244   8.362  17.977  0.00  0.00    +0.000 A 
ATOM      9  C   UNL     1       1.654   9.182  18.918  0.00  0.00    +0.000 A 
ATOM     10  N   UNL     1       1.565   8.412  20.050  0.00  0.00    +0.000 N 
ATOM     11  N   UNL     1       2.052   7.166  19.895  0.00  0.00    +0.000 NA
ATOM     12  H   UNL     1       1.182   8.671  20.957  0.00  0.00    +0.000 HD
BRANCH   9  13
ATOM     13  C   UNL     1       1.203  10.540  18.835  0.00  0.00    +0.000 C 
ATOM     14  N   UNL     1       1.852  11.311  17.913  0.00  0.00    +0.000 N 
ATOM     15  O   UNL     1       0.302  11.010  19.516  0.00  0.00    +0.000 OA
ATOM     16  H   UNL     1       2.585  10.973  17.320  0.00  0.00    +0.000 HD
ATOM     17  H   UNL     1       1.554  12.272  17.816  0.00  0.00    +0.000 HD
ENDBRANCH   9  13
ENDBRANCH   5   7
BRANCH   1  18
ATOM     18  C   UNL     1       6.338   5.491  16.050  0.00  0.00    +0.000 C 
BRANCH  18  22
ATOM     19  C   UNL     1       6.239   3.746  12.949  0.00  0.00    +0.000 A 
ATOM     20  N   UNL     1       7.287   4.495  12.677  0.00  0.00    +0.000 NA
ATOM     21  N   UNL     1       7.498   5.292  13.785  0.00  0.00    +0.000 NA
ATOM     22  C   UNL     1       6.560   4.978  14.658  0.00  0.00    +0.000 A 
ATOM     23  O   UNL     1       5.722   3.994  14.196  0.00  0.00    +0.000 OA
BRANCH  19  25
ATOM     24  C   UNL     1       4.397   3.251  11.355  0.00  0.00    +0.000 C 
ATOM     25  C   UNL     1       5.578   2.682  12.139  0.00  0.00    +0.000 C 
ATOM     26  C   UNL     1       6.563   1.998  11.190  0.00  0.00    +0.000 C 
ENDBRANCH  19  25
ENDBRANCH  18  22
ENDBRANCH   1  18
TORSDOF 5
ENDMDL
MODEL 9
REMARK VINA RESULT:      -7.8      2.286      8.296
REMARK  Name = 
REMARK  7 active torsions:
REMARK  status: ('A' for Active; 'I' for Inactive)
REMARK    1  A    between atoms: C_1  and  C_2
REMARK    2  A    between atoms: C_2  and  C_3
REMARK    3  A    between atoms: C_2  and  C_4
REMARK    4  A    between atoms: C_7  and  C_8
REMARK    5  A    between atoms: C_8  and  N_9
REMARK    6  A    between atoms: C_13  and  C_14
REMARK    7  A    between atoms: C_16  and  C_17
REMARK                            x       y       z     vdW  Elec       q    Type
REMARK                         _______ _______ _______ _____ _____    ______ ____
ROOT
ATOM      1  N   UNL     1       4.464   4.419  16.910  0.00  0.00    +0.000 NA
ATOM      2  C   UNL     1       4.025   3.061  17.261  0.00  0.00    +0.000 C 
ATOM      3  C   UNL     1       2.507   2.977  17.423  0.00  0.00    +0.000 C 
ATOM      4  C   UNL     1       2.015   3.963  18.473  0.00  0.00    +0.000 C 
ATOM      5  C   UNL     1       2.481   5.390  18.158  0.00  0.00    +0.000 C 
ATOM      6  C   UNL     1       3.994   5.435  17.865  0.00  0.00    +0.000 C 
ENDROOT
BRANCH   5   7
ATOM      7  C   UNL     1       2.137   6.333  19.279  0.00  0.00    +0.000 A 
ATOM      8  C   UNL     1       1.954   7.727  19.195  0.00  0.00    +0.000 A 
ATOM      9  C   UNL     1       1.630   8.146  20.469  0.00  0.00    +0.000 A 
ATOM     10  N   UNL     1       1.651   7.005  21.232  0.00  0.00    +0.000 N 
ATOM     11  N   UNL     1       1.961   5.896  20.534  0.00  0.00    +0.000 NA
ATOM     12  H   UNL     1       1.461   6.912  22.227  0.00  0.00    +0.000 HD
BRANCH   9  13
ATOM     13  C   UNL     1       1.328   9.448  20.985  0.00  0.00    +0.000 C 
ATOM     14  N   UNL     1       0.826  10.331  20.072  0.00  0.00    +0.000 N 
ATOM     15  O   UNL     1       1.486   9.782  22.151  0.00  0.00    +0.000 OA
ATOM     16  H   UNL     1       0.664  10.106  19.109  0.00  0.00    +0.000 HD
ATOM     17  H   UNL     1       0.588  11.258  20.400  0.00  0.00    +0.000 HD
ENDBRANCH   9  13
ENDBRANCH   5   7
BRANCH   1  18
ATOM     18  C   UNL     1       5.938   4.491  16.737  0.00  0.00    +0.000 C 
BRANCH  18  22
ATOM     19  C   UNL     1       6.612   4.291  13.247  0.00  0.00    +0.000 A 
ATOM     20  N   UNL     1       7.588   5.121  13.551  0.00  0.00    +0.000 NA
ATOM     21  N   UNL     1       7.496   5.354  14.909  0.00  0.00    +0.000 NA
ATOM     22  C   UNL     1       6.467   4.653  15.343  0.00  0.00    +0.000 A 
ATOM     23  O   UNL     1       5.855   3.944  14.339  0.00  0.00    +0.000 OA
BRANCH  19  25
ATOM     24  C   UNL     1       7.079   2.417  11.682  0.00  0.00    +0.000 C 
ATOM     25  C   UNL     1       6.245   3.670  11.942  0.00  0.00    +0.000 C 
ATOM     26  C   UNL     1       4.753   3.337  11.872  0.00  0.00    +0.000 C 
ENDBRANCH  19  25
ENDBRANCH  18  22
ENDBRANCH   1  18
TORSDOF 5
ENDMDL
