MODEL 1
REMARK VINA RESULT:      -8.7      0.000      0.000
REMARK  Name = 
REMARK  6 active torsions:
REMARK  status: ('A' for Active; 'I' for Inactive)
REMARK    1  A    between atoms: C_2  and  C_19
REMARK    2  A    between atoms: N_3  and  C_4
REMARK    3  A    between atoms: C_4  and  C_5
REMARK    4  A    between atoms: C_4  and  C_15
REMARK    5  A    between atoms: C_5  and  C_6
REMARK    6  A    between atoms: N_17  and  O_18
REMARK                            x       y       z     vdW  Elec       q    Type
REMARK                         _______ _______ _______ _____ _____    ______ ____
ROOT
ATOM      1  C   UNL     1       5.448   6.094  17.928  0.00  0.00    +0.000 C 
ENDROOT
BRANCH   1   4
ATOM      2  O   UNL     1       7.615   6.301  16.121  0.00  0.00    +0.000 OA
ATOM      3  C   UNL     1       6.667   5.584  15.818  0.00  0.00    +0.000 C 
ATOM      4  N   UNL     1       5.601   5.388  16.658  0.00  0.00    +0.000 N 
ATOM      5  H   UNL     1       4.849   4.752  16.435  0.00  0.00    +0.000 HD
BRANCH   3   6
ATOM      6  C   UNL     1       6.622   4.910  14.479  0.00  0.00    +0.000 A 
ATOM      7  C   UNL     1       5.589   3.987  14.238  0.00  0.00    +0.000 A 
ATOM      8  C   UNL     1       5.545   3.268  13.038  0.00  0.00    +0.000 A 
ATOM      9  C   UNL     1       6.533   3.465  12.083  0.00  0.00    +0.000 A 
ATOM     10  F   UNL     1       6.505   2.759  10.944  0.00  0.00    +0.000 F 
ATOM     11  C   UNL     1       7.552   4.386  12.294  0.00  0.00    +0.000 A 
ATOM     12  C   UNL     1       7.601   5.107  13.493  0.00  0.00    +0.000 A 
ENDBRANCH   3   6
ENDBRANCH   1   4
BRANCH   1  13
ATOM     13  C   UNL     1       6.238   5.323  18.995  0.00  0.00    +0.000 C 
ATOM     14  O   UNL     1       5.902   4.210  19.410  0.00  0.00    +0.000 OA
ATOM     15  N   UNL     1       7.360   5.952  19.474  0.00  0.00    +0.000 N 
ATOM     16  H   UNL     1       7.783   6.788  19.083  0.00  0.00    +0.000 HD
BRANCH  15  17
ATOM     17  O   UNL     1       8.098   5.250  20.452  0.00  0.00    +0.000 OA
ATOM     18  H   UNL     1       7.866   5.736  21.275  0.00  0.00    +0.000 HD
ENDBRANCH  15  17
ENDBRANCH   1  13
BRANCH   1  19
ATOM     19  C   UNL     1       3.978   6.276  18.330  0.00  0.00    +0.000 C 
BRANCH  19  20
ATOM     20  C   UNL     1       3.140   5.028  18.312  0.00  0.00    +0.000 A 
ATOM     21  C   UNL     1       2.839   4.252  17.206  0.00  0.00    +0.000 A 
ATOM     22  N   UNL     1       2.175   3.133  17.631  0.00  0.00    +0.000 N 
ATOM     23  C   UNL     1       2.056   3.144  19.001  0.00  0.00    +0.000 A 
ATOM     24  C   UNL     1       1.549   2.172  19.871  0.00  0.00    +0.000 A 
ATOM     25  C   UNL     1       1.526   2.473  21.236  0.00  0.00    +0.000 A 
ATOM     26  C   UNL     1       1.968   3.708  21.704  0.00  0.00    +0.000 A 
ATOM     27  C   UNL     1       2.500   4.655  20.823  0.00  0.00    +0.000 A 
ATOM     28  C   UNL     1       2.572   4.361  19.446  0.00  0.00    +0.000 A 
ATOM     29  H   UNL     1       1.852   2.384  17.035  0.00  0.00    +0.000 HD
ENDBRANCH  19  20
ENDBRANCH   1  19
TORSDOF 6
ENDMDL
MODEL 2
REMARK VINA RESULT:      -8.6      2.334      3.459
REMARK  Name = 
REMARK  6 active torsions:
REMARK  status: ('A' for Active; 'I' for Inactive)
REMARK    1  A    between atoms: C_2  and  C_19
REMARK    2  A    between atoms: N_3  and  C_4
REMARK    3  A    between atoms: C_4  and  C_5
REMARK    4  A    between atoms: C_4  and  C_15
REMARK    5  A    between atoms: C_5  and  C_6
REMARK    6  A    between atoms: N_17  and  O_18
REMARK                            x       y       z     vdW  Elec       q    Type
REMARK                         _______ _______ _______ _____ _____    ______ ____
ROOT
ATOM      1  C   UNL     1       4.811   5.228  17.901  0.00  0.00    +0.000 C 
ENDROOT
BRANCH   1   4
ATOM      2  O   UNL     1       5.234   6.776  15.571  0.00  0.00    +0.000 OA
ATOM      3  C   UNL     1       5.565   5.595  15.557  0.00  0.00    +0.000 C 
ATOM      4  N   UNL     1       5.442   4.788  16.659  0.00  0.00    +0.000 N 
ATOM      5  H   UNL     1       5.769   3.833  16.666  0.00  0.00    +0.000 HD
BRANCH   3   6
ATOM      6  C   UNL     1       6.095   4.970  14.301  0.00  0.00    +0.000 A 
ATOM      7  C   UNL     1       5.330   3.958  13.692  0.00  0.00    +0.000 A 
ATOM      8  C   UNL     1       5.814   3.283  12.565  0.00  0.00    +0.000 A 
ATOM      9  C   UNL     1       7.060   3.614  12.050  0.00  0.00    +0.000 A 
ATOM     10  F   UNL     1       7.534   2.950  10.986  0.00  0.00    +0.000 F 
ATOM     11  C   UNL     1       7.823   4.622  12.625  0.00  0.00    +0.000 A 
ATOM     12  C   UNL     1       7.344   5.300  13.753  0.00  0.00    +0.000 A 
ENDBRANCH   3   6
ENDBRANCH   1   4
BRANCH   1  13
ATOM     13  C   UNL     1       5.307   4.316  19.032  0.00  0.00    +0.000 C 
ATOM     14  O   UNL     1       6.138   4.674  19.872  0.00  0.00    +0.000 OA
ATOM     15  N   UNL     1       4.767   3.054  19.058  0.00  0.00    +0.000 N 
ATOM     16  H   UNL     1       3.980   2.736  18.504  0.00  0.00    +0.000 HD
BRANCH  15  17
ATOM     17  O   UNL     1       5.212   2.208  20.097  0.00  0.00    +0.000 OA
ATOM     18  H   UNL     1       4.366   1.909  20.498  0.00  0.00    +0.000 HD
ENDBRANCH  15  17
ENDBRANCH   1  13
BRANCH   1  19
ATOM     19  C   UNL     1       3.279   5.242  17.813  0.00  0.00    +0.000 C 
BRANCH  19  20
ATOM     20  C   UNL     1       2.574   6.034  18.878  0.00  0.00    +0.000 A 
ATOM     21  C   UNL     1       2.326   5.632  20.178  0.00  0.00    +0.000 A 
ATOM     22  N   UNL     1       1.792   6.690  20.865  0.00  0.00    +0.000 N 
ATOM     23  C   UNL     1       1.707   7.791  20.046  0.00  0.00    +0.000 A 
ATOM     24  C   UNL     1       1.326   9.106  20.338  0.00  0.00    +0.000 A 
ATOM     25  C   UNL     1       1.307  10.023  19.284  0.00  0.00    +0.000 A 
ATOM     26  C   UNL     1       1.631   9.632  17.987  0.00  0.00    +0.000 A 
ATOM     27  C   UNL     1       2.040   8.321  17.720  0.00  0.00    +0.000 A 
ATOM     28  C   UNL     1       2.107   7.385  18.773  0.00  0.00    +0.000 A 
ATOM     29  H   UNL     1       1.533   6.681  21.841  0.00  0.00    +0.000 HD
ENDBRANCH  19  20
ENDBRANCH   1  19
TORSDOF 6
ENDMDL
MODEL 3
REMARK VINA RESULT:      -8.5      3.948      6.787
REMARK  Name = 
REMARK  6 active torsions:
REMARK  status: ('A' for Active; 'I' for Inactive)
REMARK    1  A    between atoms: C_2  and  C_19
REMARK    2  A    between atoms: N_3  and  C_4
REMARK    3  A    between atoms: C_4  and  C_5
REMARK    4  A    between atoms: C_4  and  C_15
REMARK    5  A    between atoms: C_5  and  C_6
REMARK    6  A    between atoms: N_17  and  O_18
REMARK                            x       y       z     vdW  Elec       q    Type
REMARK                         _______ _______ _______ _____ _____    ______ ____
ROOT
ATOM      1  C   UNL     1       3.807   3.345  17.464  0.00  0.00    +0.000 C 
ENDROOT
BRANCH   1   4
ATOM      2  O   UNL     1       1.273   4.250  18.337  0.00  0.00    +0.000 OA
ATOM      3  C   UNL     1       2.231   5.009  18.437  0.00  0.00    +0.000 C 
ATOM      4  N   UNL     1       3.502   4.632  18.084  0.00  0.00    +0.000 N 
ATOM      5  H   UNL     1       4.300   5.234  18.222  0.00  0.00    +0.000 HD
BRANCH   3   6
ATOM      6  C   UNL     1       2.040   6.414  18.924  0.00  0.00    +0.000 A 
ATOM      7  C   UNL     1       1.746   6.607  20.286  0.00  0.00    +0.000 A 
ATOM      8  C   UNL     1       1.477   7.889  20.779  0.00  0.00    +0.000 A 
ATOM      9  C   UNL     1       1.497   8.975  19.915  0.00  0.00    +0.000 A 
ATOM     10  F   UNL     1       1.214  10.200  20.381  0.00  0.00    +0.000 F 
ATOM     11  C   UNL     1       1.803   8.808  18.570  0.00  0.00    +0.000 A 
ATOM     12  C   UNL     1       2.071   7.528  18.071  0.00  0.00    +0.000 A 
ENDBRANCH   3   6
ENDBRANCH   1   4
BRANCH   1  13
ATOM     13  C   UNL     1       3.994   2.312  18.584  0.00  0.00    +0.000 C 
ATOM     14  O   UNL     1       3.236   1.351  18.748  0.00  0.00    +0.000 OA
ATOM     15  N   UNL     1       5.070   2.520  19.410  0.00  0.00    +0.000 N 
ATOM     16  H   UNL     1       5.816   3.189  19.253  0.00  0.00    +0.000 HD
BRANCH  15  17
ATOM     17  O   UNL     1       5.255   1.573  20.441  0.00  0.00    +0.000 OA
ATOM     18  H   UNL     1       4.461   1.001  20.343  0.00  0.00    +0.000 HD
ENDBRANCH  15  17
ENDBRANCH   1  13
BRANCH   1  19
ATOM     19  C   UNL     1       5.031   3.410  16.540  0.00  0.00    +0.000 C 
BRANCH  19  20
ATOM     20  C   UNL     1       5.645   4.772  16.369  0.00  0.00    +0.000 A 
ATOM     21  C   UNL     1       5.330   5.702  15.395  0.00  0.00    +0.000 A 
ATOM     22  N   UNL     1       6.005   6.861  15.669  0.00  0.00    +0.000 N 
ATOM     23  C   UNL     1       6.741   6.719  16.822  0.00  0.00    +0.000 A 
ATOM     24  C   UNL     1       7.496   7.660  17.533  0.00  0.00    +0.000 A 
ATOM     25  C   UNL     1       8.171   7.218  18.674  0.00  0.00    +0.000 A 
ATOM     26  C   UNL     1       8.113   5.884  19.070  0.00  0.00    +0.000 A 
ATOM     27  C   UNL     1       7.328   4.966  18.365  0.00  0.00    +0.000 A 
ATOM     28  C   UNL     1       6.604   5.394  17.233  0.00  0.00    +0.000 A 
ATOM     29  H   UNL     1       5.946   7.713  15.129  0.00  0.00    +0.000 HD
ENDBRANCH  19  20
ENDBRANCH   1  19
TORSDOF 6
ENDMDL
MODEL 4
REMARK VINA RESULT:      -8.5      4.376      5.851
REMARK  Name = 
REMARK  6 active torsions:
REMARK  status: ('A' for Active; 'I' for Inactive)
REMARK    1  A    between atoms: C_2  and  C_19
REMARK    2  A    between atoms: N_3  and  C_4
REMARK    3  A    between atoms: C_4  and  C_5
REMARK    4  A    between atoms: C_4  and  C_15
REMARK    5  A    between atoms: C_5  and  C_6
REMARK    6  A    between atoms: N_17  and  O_18
REMARK                            x       y       z     vdW  Elec       q    Type
REMARK                         _______ _______ _______ _____ _____    ______ ____
ROOT
ATOM      1  C   UNL     1       6.427   6.506  17.205  0.00  0.00    +0.000 C 
ENDROOT
BRANCH   1   4
ATOM      2  O   UNL     1       8.572   7.228  18.903  0.00  0.00    +0.000 OA
ATOM      3  C   UNL     1       8.063   8.097  18.202  0.00  0.00    +0.000 C 
ATOM      4  N   UNL     1       7.054   7.822  17.314  0.00  0.00    +0.000 N 
ATOM      5  H   UNL     1       6.676   8.523  16.694  0.00  0.00    +0.000 HD
BRANCH   3   6
ATOM      6  C   UNL     1       8.511   9.523  18.315  0.00  0.00    +0.000 A 
ATOM      7  C   UNL     1       9.374   9.865  19.372  0.00  0.00    +0.000 A 
ATOM      8  C   UNL     1       9.758  11.195  19.575  0.00  0.00    +0.000 A 
ATOM      9  C   UNL     1       9.278  12.184  18.727  0.00  0.00    +0.000 A 
ATOM     10  F   UNL     1       9.625  13.462  18.935  0.00  0.00    +0.000 F 
ATOM     11  C   UNL     1       8.440  11.866  17.665  0.00  0.00    +0.000 A 
ATOM     12  C   UNL     1       8.053  10.537  17.459  0.00  0.00    +0.000 A 
ENDBRANCH   3   6
ENDBRANCH   1   4
BRANCH   1  13
ATOM     13  C   UNL     1       6.314   6.159  15.714  0.00  0.00    +0.000 C 
ATOM     14  O   UNL     1       5.312   6.409  15.037  0.00  0.00    +0.000 OA
ATOM     15  N   UNL     1       7.410   5.542  15.163  0.00  0.00    +0.000 N 
ATOM     16  H   UNL     1       8.316   5.440  15.606  0.00  0.00    +0.000 HD
BRANCH  15  17
ATOM     17  O   UNL     1       7.319   5.223  13.790  0.00  0.00    +0.000 OA
ATOM     18  H   UNL     1       7.567   4.271  13.782  0.00  0.00    +0.000 HD
ENDBRANCH  15  17
ENDBRANCH   1  13
BRANCH   1  19
ATOM     19  C   UNL     1       5.065   6.441  17.908  0.00  0.00    +0.000 C 
BRANCH  19  20
ATOM     20  C   UNL     1       4.711   5.113  18.519  0.00  0.00    +0.000 A 
ATOM     21  C   UNL     1       5.494   3.973  18.523  0.00  0.00    +0.000 A 
ATOM     22  N   UNL     1       4.877   3.028  19.299  0.00  0.00    +0.000 N 
ATOM     23  C   UNL     1       3.714   3.535  19.827  0.00  0.00    +0.000 A 
ATOM     24  C   UNL     1       2.821   2.974  20.748  0.00  0.00    +0.000 A 
ATOM     25  C   UNL     1       1.689   3.720  21.088  0.00  0.00    +0.000 A 
ATOM     26  C   UNL     1       1.449   4.963  20.509  0.00  0.00    +0.000 A 
ATOM     27  C   UNL     1       2.369   5.521  19.615  0.00  0.00    +0.000 A 
ATOM     28  C   UNL     1       3.540   4.808  19.285  0.00  0.00    +0.000 A 
ATOM     29  H   UNL     1       5.238   2.104  19.492  0.00  0.00    +0.000 HD
ENDBRANCH  19  20
ENDBRANCH   1  19
TORSDOF 6
ENDMDL
MODEL 5
REMARK VINA RESULT:      -8.5      2.095      3.193
REMARK  Name = 
REMARK  6 active torsions:
REMARK  status: ('A' for Active; 'I' for Inactive)
REMARK    1  A    between atoms: C_2  and  C_19
REMARK    2  A    between atoms: N_3  and  C_4
REMARK    3  A    between atoms: C_4  and  C_5
REMARK    4  A    between atoms: C_4  and  C_15
REMARK    5  A    between atoms: C_5  and  C_6
REMARK    6  A    between atoms: N_17  and  O_18
REMARK                            x       y       z     vdW  Elec       q    Type
REMARK                         _______ _______ _______ _____ _____    ______ ____
ROOT
ATOM      1  C   UNL     1       4.797   5.364  17.986  0.00  0.00    +0.000 C 
ENDROOT
BRANCH   1   4
ATOM      2  O   UNL     1       6.268   6.769  16.020  0.00  0.00    +0.000 OA
ATOM      3  C   UNL     1       5.958   5.603  15.796  0.00  0.00    +0.000 C 
ATOM      4  N   UNL     1       5.290   4.835  16.716  0.00  0.00    +0.000 N 
ATOM      5  H   UNL     1       5.086   3.860  16.557  0.00  0.00    +0.000 HD
BRANCH   3   6
ATOM      6  C   UNL     1       6.273   4.974  14.472  0.00  0.00    +0.000 A 
ATOM      7  C   UNL     1       5.386   4.002  13.974  0.00  0.00    +0.000 A 
ATOM      8  C   UNL     1       5.673   3.323  12.784  0.00  0.00    +0.000 A 
ATOM      9  C   UNL     1       6.843   3.609  12.095  0.00  0.00    +0.000 A 
ATOM     10  F   UNL     1       7.130   2.941  10.969  0.00  0.00    +0.000 F 
ATOM     11  C   UNL     1       7.724   4.578  12.560  0.00  0.00    +0.000 A 
ATOM     12  C   UNL     1       7.442   5.260  13.751  0.00  0.00    +0.000 A 
ENDBRANCH   3   6
ENDBRANCH   1   4
BRANCH   1  13
ATOM     13  C   UNL     1       5.750   4.895  19.094  0.00  0.00    +0.000 C 
ATOM     14  O   UNL     1       5.598   3.837  19.712  0.00  0.00    +0.000 OA
ATOM     15  N   UNL     1       6.802   5.734  19.368  0.00  0.00    +0.000 N 
ATOM     16  H   UNL     1       7.079   6.536  18.812  0.00  0.00    +0.000 HD
BRANCH  15  17
ATOM     17  O   UNL     1       7.688   5.311  20.382  0.00  0.00    +0.000 OA
ATOM     18  H   UNL     1       7.954   6.163  20.795  0.00  0.00    +0.000 HD
ENDBRANCH  15  17
ENDBRANCH   1  13
BRANCH   1  19
ATOM     19  C   UNL     1       3.346   4.954  18.273  0.00  0.00    +0.000 C 
BRANCH  19  20
ATOM     20  C   UNL     1       2.582   5.868  19.192  0.00  0.00    +0.000 A 
ATOM     21  C   UNL     1       2.238   5.615  20.507  0.00  0.00    +0.000 A 
ATOM     22  N   UNL     1       1.677   6.748  21.032  0.00  0.00    +0.000 N 
ATOM     23  C   UNL     1       1.667   7.752  20.093  0.00  0.00    +0.000 A 
ATOM     24  C   UNL     1       1.289   9.095  20.209  0.00  0.00    +0.000 A 
ATOM     25  C   UNL     1       1.359   9.889  19.061  0.00  0.00    +0.000 A 
ATOM     26  C   UNL     1       1.766   9.352  17.842  0.00  0.00    +0.000 A 
ATOM     27  C   UNL     1       2.170   8.016  17.752  0.00  0.00    +0.000 A 
ATOM     28  C   UNL     1       2.147   7.203  18.904  0.00  0.00    +0.000 A 
ATOM     29  H   UNL     1       1.350   6.852  21.983  0.00  0.00    +0.000 HD
ENDBRANCH  19  20
ENDBRANCH   1  19
TORSDOF 6
ENDMDL
MODEL 6
REMARK VINA RESULT:      -8.4      3.704      5.989
REMARK  Name = 
REMARK  6 active torsions:
REMARK  status: ('A' for Active; 'I' for Inactive)
REMARK    1  A    between atoms: C_2  and  C_19
REMARK    2  A    between atoms: N_3  and  C_4
REMARK    3  A    between atoms: C_4  and  C_5
REMARK    4  A    between atoms: C_4  and  C_15
REMARK    5  A    between atoms: C_5  and  C_6
REMARK    6  A    between atoms: N_17  and  O_18
REMARK                            x       y       z     vdW  Elec       q    Type
REMARK                         _______ _______ _______ _____ _____    ______ ____
ROOT
ATOM      1  C   UNL     1       4.808   5.430  17.117  0.00  0.00    +0.000 C 
ENDROOT
BRANCH   1   4
ATOM      2  O   UNL     1       3.944   6.215  19.694  0.00  0.00    +0.000 OA
ATOM      3  C   UNL     1       3.466   6.785  18.719  0.00  0.00    +0.000 C 
ATOM      4  N   UNL     1       3.867   6.501  17.438  0.00  0.00    +0.000 N 
ATOM      5  H   UNL     1       3.518   7.010  16.639  0.00  0.00    +0.000 HD
BRANCH   3   6
ATOM      6  C   UNL     1       2.383   7.807  18.891  0.00  0.00    +0.000 A 
ATOM      7  C   UNL     1       2.036   8.597  17.779  0.00  0.00    +0.000 A 
ATOM      8  C   UNL     1       1.091   9.621  17.904  0.00  0.00    +0.000 A 
ATOM      9  C   UNL     1       0.496   9.860  19.135  0.00  0.00    +0.000 A 
ATOM     10  F   UNL     1      -0.392  10.857  19.261  0.00  0.00    +0.000 F 
ATOM     11  C   UNL     1       0.810   9.079  20.241  0.00  0.00    +0.000 A 
ATOM     12  C   UNL     1       1.756   8.054  20.121  0.00  0.00    +0.000 A 
ENDBRANCH   3   6
ENDBRANCH   1   4
BRANCH   1  13
ATOM     13  C   UNL     1       5.552   5.824  15.834  0.00  0.00    +0.000 C 
ATOM     14  O   UNL     1       5.166   6.720  15.078  0.00  0.00    +0.000 OA
ATOM     15  N   UNL     1       6.694   5.110  15.567  0.00  0.00    +0.000 N 
ATOM     16  H   UNL     1       7.155   4.471  16.205  0.00  0.00    +0.000 HD
BRANCH  15  17
ATOM     17  O   UNL     1       7.391   5.467  14.392  0.00  0.00    +0.000 OA
ATOM     18  H   UNL     1       6.657   5.667  13.768  0.00  0.00    +0.000 HD
ENDBRANCH  15  17
ENDBRANCH   1  13
BRANCH   1  19
ATOM     19  C   UNL     1       4.123   4.063  16.980  0.00  0.00    +0.000 C 
BRANCH  19  20
ATOM     20  C   UNL     1       4.016   3.260  18.247  0.00  0.00    +0.000 A 
ATOM     21  C   UNL     1       5.016   2.504  18.831  0.00  0.00    +0.000 A 
ATOM     22  N   UNL     1       4.563   2.048  20.040  0.00  0.00    +0.000 N 
ATOM     23  C   UNL     1       3.290   2.511  20.274  0.00  0.00    +0.000 A 
ATOM     24  C   UNL     1       2.478   2.387  21.409  0.00  0.00    +0.000 A 
ATOM     25  C   UNL     1       1.198   2.944  21.351  0.00  0.00    +0.000 A 
ATOM     26  C   UNL     1       0.741   3.575  20.197  0.00  0.00    +0.000 A 
ATOM     27  C   UNL     1       1.578   3.716  19.085  0.00  0.00    +0.000 A 
ATOM     28  C   UNL     1       2.889   3.199  19.130  0.00  0.00    +0.000 A 
ATOM     29  H   UNL     1       5.096   1.485  20.689  0.00  0.00    +0.000 HD
ENDBRANCH  19  20
ENDBRANCH   1  19
TORSDOF 6
ENDMDL
MODEL 7
REMARK VINA RESULT:      -8.4      4.296      5.860
REMARK  Name = 
REMARK  6 active torsions:
REMARK  status: ('A' for Active; 'I' for Inactive)
REMARK    1  A    between atoms: C_2  and  C_19
REMARK    2  A    between atoms: N_3  and  C_4
REMARK    3  A    between atoms: C_4  and  C_5
REMARK    4  A    between atoms: C_4  and  C_15
REMARK    5  A    between atoms: C_5  and  C_6
REMARK    6  A    between atoms: N_17  and  O_18
REMARK                            x       y       z     vdW  Elec       q    Type
REMARK                         _______ _______ _______ _____ _____    ______ ____
ROOT
ATOM      1  C   UNL     1       6.295   6.455  17.205  0.00  0.00    +0.000 C 
ENDROOT
BRANCH   1   4
ATOM      2  O   UNL     1       8.459   7.128  18.898  0.00  0.00    +0.000 OA
ATOM      3  C   UNL     1       7.980   8.004  18.185  0.00  0.00    +0.000 C 
ATOM      4  N   UNL     1       6.963   7.751  17.299  0.00  0.00    +0.000 N 
ATOM      5  H   UNL     1       6.609   8.456  16.671  0.00  0.00    +0.000 HD
BRANCH   3   6
ATOM      6  C   UNL     1       8.473   9.417  18.282  0.00  0.00    +0.000 A 
ATOM      7  C   UNL     1       9.373   9.734  19.315  0.00  0.00    +0.000 A 
ATOM      8  C   UNL     1       9.802  11.053  19.503  0.00  0.00    +0.000 A 
ATOM      9  C   UNL     1       9.330  12.054  18.665  0.00  0.00    +0.000 A 
ATOM     10  F   UNL     1       9.720  13.322  18.860  0.00  0.00    +0.000 F 
ATOM     11  C   UNL     1       8.454  11.759  17.627  0.00  0.00    +0.000 A 
ATOM     12  C   UNL     1       8.022  10.441  17.435  0.00  0.00    +0.000 A 
ENDBRANCH   3   6
ENDBRANCH   1   4
BRANCH   1  13
ATOM     13  C   UNL     1       7.146   5.548  16.305  0.00  0.00    +0.000 C 
ATOM     14  O   UNL     1       7.814   4.604  16.737  0.00  0.00    +0.000 OA
ATOM     15  N   UNL     1       7.124   5.851  14.966  0.00  0.00    +0.000 N 
ATOM     16  H   UNL     1       6.493   6.505  14.517  0.00  0.00    +0.000 HD
BRANCH  15  17
ATOM     17  O   UNL     1       7.899   5.020  14.128  0.00  0.00    +0.000 OA
ATOM     18  H   UNL     1       8.450   4.527  14.776  0.00  0.00    +0.000 HD
ENDBRANCH  15  17
ENDBRANCH   1  13
BRANCH   1  19
ATOM     19  C   UNL     1       4.852   6.571  16.694  0.00  0.00    +0.000 C 
BRANCH  19  20
ATOM     20  C   UNL     1       3.784   6.132  17.657  0.00  0.00    +0.000 A 
ATOM     21  C   UNL     1       3.034   6.948  18.484  0.00  0.00    +0.000 A 
ATOM     22  N   UNL     1       2.077   6.181  19.095  0.00  0.00    +0.000 N 
ATOM     23  C   UNL     1       2.168   4.879  18.666  0.00  0.00    +0.000 A 
ATOM     24  C   UNL     1       1.345   3.779  18.937  0.00  0.00    +0.000 A 
ATOM     25  C   UNL     1       1.703   2.550  18.376  0.00  0.00    +0.000 A 
ATOM     26  C   UNL     1       2.851   2.424  17.598  0.00  0.00    +0.000 A 
ATOM     27  C   UNL     1       3.643   3.540  17.312  0.00  0.00    +0.000 A 
ATOM     28  C   UNL     1       3.284   4.800  17.832  0.00  0.00    +0.000 A 
ATOM     29  H   UNL     1       1.378   6.524  19.740  0.00  0.00    +0.000 HD
ENDBRANCH  19  20
ENDBRANCH   1  19
TORSDOF 6
ENDMDL
MODEL 8
REMARK VINA RESULT:      -8.4      4.338      5.879
REMARK  Name = 
REMARK  6 active torsions:
REMARK  status: ('A' for Active; 'I' for Inactive)
REMARK    1  A    between atoms: C_2  and  C_19
REMARK    2  A    between atoms: N_3  and  C_4
REMARK    3  A    between atoms: C_4  and  C_5
REMARK    4  A    between atoms: C_4  and  C_15
REMARK    5  A    between atoms: C_5  and  C_6
REMARK    6  A    between atoms: N_17  and  O_18
REMARK                            x       y       z     vdW  Elec       q    Type
REMARK                         _______ _______ _______ _____ _____    ______ ____
ROOT
ATOM      1  C   UNL     1       6.543   6.446  17.138  0.00  0.00    +0.000 C 
ENDROOT
BRANCH   1   4
ATOM      2  O   UNL     1       8.549   7.225  18.974  0.00  0.00    +0.000 OA
ATOM      3  C   UNL     1       8.078   8.076  18.227  0.00  0.00    +0.000 C 
ATOM      4  N   UNL     1       7.140   7.773  17.274  0.00  0.00    +0.000 N 
ATOM      5  H   UNL     1       6.795   8.460  16.619  0.00  0.00    +0.000 HD
BRANCH   3   6
ATOM      6  C   UNL     1       8.493   9.511  18.352  0.00  0.00    +0.000 A 
ATOM      7  C   UNL     1       7.929  10.444  17.462  0.00  0.00    +0.000 A 
ATOM      8  C   UNL     1       8.340  11.781  17.480  0.00  0.00    +0.000 A 
ATOM      9  C   UNL     1       9.316  12.187  18.380  0.00  0.00    +0.000 A 
ATOM     10  F   UNL     1       9.729  13.462  18.380  0.00  0.00    +0.000 F 
ATOM     11  C   UNL     1       9.873  11.286  19.279  0.00  0.00    +0.000 A 
ATOM     12  C   UNL     1       9.466   9.947  19.265  0.00  0.00    +0.000 A 
ENDBRANCH   3   6
ENDBRANCH   1   4
BRANCH   1  13
ATOM     13  C   UNL     1       6.407   6.140  15.640  0.00  0.00    +0.000 C 
ATOM     14  O   UNL     1       5.381   6.374  14.994  0.00  0.00    +0.000 OA
ATOM     15  N   UNL     1       7.509   5.579  15.045  0.00  0.00    +0.000 N 
ATOM     16  H   UNL     1       8.429   5.495  15.463  0.00  0.00    +0.000 HD
BRANCH  15  17
ATOM     17  O   UNL     1       7.397   5.298  13.666  0.00  0.00    +0.000 OA
ATOM     18  H   UNL     1       8.333   5.341  13.368  0.00  0.00    +0.000 HD
ENDBRANCH  15  17
ENDBRANCH   1  13
BRANCH   1  19
ATOM     19  C   UNL     1       5.199   6.325  17.868  0.00  0.00    +0.000 C 
BRANCH  19  20
ATOM     20  C   UNL     1       4.859   4.953  18.381  0.00  0.00    +0.000 A 
ATOM     21  C   UNL     1       5.696   4.104  19.082  0.00  0.00    +0.000 A 
ATOM     22  N   UNL     1       4.968   3.017  19.489  0.00  0.00    +0.000 N 
ATOM     23  C   UNL     1       3.660   3.148  19.091  0.00  0.00    +0.000 A 
ATOM     24  C   UNL     1       2.547   2.344  19.366  0.00  0.00    +0.000 A 
ATOM     25  C   UNL     1       1.326   2.711  18.794  0.00  0.00    +0.000 A 
ATOM     26  C   UNL     1       1.230   3.823  17.961  0.00  0.00    +0.000 A 
ATOM     27  C   UNL     1       2.345   4.632  17.723  0.00  0.00    +0.000 A 
ATOM     28  C   UNL     1       3.581   4.307  18.319  0.00  0.00    +0.000 A 
ATOM     29  H   UNL     1       5.326   2.247  20.037  0.00  0.00    +0.000 HD
ENDBRANCH  19  20
ENDBRANCH   1  19
TORSDOF 6
ENDMDL
MODEL 9
REMARK VINA RESULT:      -8.4      4.160      5.735
REMARK  Name = 
REMARK  6 active torsions:
REMARK  status: ('A' for Active; 'I' for Inactive)
REMARK    1  A    between atoms: C_2  and  C_19
REMARK    2  A    between atoms: N_3  and  C_4
REMARK    3  A    between atoms: C_4  and  C_5
REMARK    4  A    between atoms: C_4  and  C_15
REMARK    5  A    between atoms: C_5  and  C_6
REMARK    6  A    between atoms: N_17  and  O_18
REMARK                            x       y       z     vdW  Elec       q    Type
REMARK                         _______ _______ _______ _____ _____    ______ ____
ROOT
ATOM      1  C   UNL     1       6.171   6.317  17.110  0.00  0.00    +0.000 C 
ENDROOT
BRANCH   1   4
ATOM      2  O   UNL     1       8.343   6.926  18.817  0.00  0.00    +0.000 OA
ATOM      3  C   UNL     1       7.860   7.828  18.141  0.00  0.00    +0.000 C 
ATOM      4  N   UNL     1       6.839   7.609  17.251  0.00  0.00    +0.000 N 
ATOM      5  H   UNL     1       6.481   8.338  16.652  0.00  0.00    +0.000 HD
BRANCH   3   6
ATOM      6  C   UNL     1       8.352   9.237  18.291  0.00  0.00    +0.000 A 
ATOM      7  C   UNL     1       7.836  10.214  17.420  0.00  0.00    +0.000 A 
ATOM      8  C   UNL     1       8.319  11.527  17.460  0.00  0.00    +0.000 A 
ATOM      9  C   UNL     1       9.319  11.863  18.363  0.00  0.00    +0.000 A 
ATOM     10  F   UNL     1       9.800  13.114  18.384  0.00  0.00    +0.000 F 
ATOM     11  C   UNL     1       9.830  10.917  19.243  0.00  0.00    +0.000 A 
ATOM     12  C   UNL     1       9.350   9.603  19.207  0.00  0.00    +0.000 A 
ENDBRANCH   3   6
ENDBRANCH   1   4
BRANCH   1  13
ATOM     13  C   UNL     1       6.933   5.504  16.055  0.00  0.00    +0.000 C 
ATOM     14  O   UNL     1       7.833   4.707  16.338  0.00  0.00    +0.000 OA
ATOM     15  N   UNL     1       6.553   5.715  14.753  0.00  0.00    +0.000 N 
ATOM     16  H   UNL     1       5.734   6.231  14.452  0.00  0.00    +0.000 HD
BRANCH  15  17
ATOM     17  O   UNL     1       7.244   4.968  13.774  0.00  0.00    +0.000 OA
ATOM     18  H   UNL     1       7.883   4.454  14.317  0.00  0.00    +0.000 HD
ENDBRANCH  15  17
ENDBRANCH   1  13
BRANCH   1  19
ATOM     19  C   UNL     1       4.685   6.457  16.754  0.00  0.00    +0.000 C 
BRANCH  19  20
ATOM     20  C   UNL     1       3.717   6.012  17.816  0.00  0.00    +0.000 A 
ATOM     21  C   UNL     1       3.141   6.805  18.792  0.00  0.00    +0.000 A 
ATOM     22  N   UNL     1       2.215   6.055  19.468  0.00  0.00    +0.000 N 
ATOM     23  C   UNL     1       2.155   4.788  18.938  0.00  0.00    +0.000 A 
ATOM     24  C   UNL     1       1.294   3.725  19.236  0.00  0.00    +0.000 A 
ATOM     25  C   UNL     1       1.485   2.524  18.546  0.00  0.00    +0.000 A 
ATOM     26  C   UNL     1       2.513   2.388  17.617  0.00  0.00    +0.000 A 
ATOM     27  C   UNL     1       3.343   3.470  17.309  0.00  0.00    +0.000 A 
ATOM     28  C   UNL     1       3.146   4.705  17.961  0.00  0.00    +0.000 A 
ATOM     29  H   UNL     1       1.631   6.389  20.221  0.00  0.00    +0.000 HD
ENDBRANCH  19  20
ENDBRANCH   1  19
TORSDOF 6
ENDMDL
