MODEL 1
REMARK VINA RESULT:      -8.4      0.000      0.000
REMARK  Name = 
REMARK  7 active torsions:
REMARK  status: ('A' for Active; 'I' for Inactive)
REMARK    1  A    between atoms: C_2  and  O_3
REMARK    2  A    between atoms: C_2  and  C_4
REMARK    3  A    between atoms: C_4  and  C_5
REMARK    4  A    between atoms: C_5  and  C_6
REMARK    5  A    between atoms: C_6  and  C_7
REMARK    6  A    between atoms: C_19  and  C_21
REMARK    7  A    between atoms: C_26  and  N_27
REMARK                            x       y       z     vdW  Elec       q    Type
REMARK                         _______ _______ _______ _____ _____    ______ ____
ROOT
ATOM      1  C   UNL     1       2.642   6.176  18.761  0.00  0.00    +0.000 C 
ATOM      2  C   UNL     1       2.233   4.797  18.093  0.00  0.00    +0.000 C 
ATOM      3  C   UNL     1       3.089   4.253  16.918  0.00  0.00    +0.000 C 
ATOM      4  C   UNL     1       3.873   2.973  17.208  0.00  0.00    +0.000 C 
ATOM      5  C   UNL     1       2.943   1.929  17.797  0.00  0.00    +0.000 C 
ATOM      6  N   UNL     1       2.425   2.375  19.079  0.00  0.00    +0.000 NA
ATOM      7  C   UNL     1       3.386   2.284  20.169  0.00  0.00    +0.000 C 
ATOM      8  C   UNL     1       2.714   2.443  21.535  0.00  0.00    +0.000 C 
ATOM      9  C   UNL     1       1.271   2.938  21.424  0.00  0.00    +0.000 C 
ATOM     10  C   UNL     1       1.158   4.073  20.390  0.00  0.00    +0.000 C 
ATOM     11  C   UNL     1       1.851   5.301  20.943  0.00  0.00    +0.000 C 
ATOM     12  N   UNL     1       1.843   6.412  20.010  0.00  0.00    +0.000 N 
ATOM     13  C   UNL     1       1.633   7.653  20.653  0.00  0.00    +0.000 C 
ATOM     14  O   UNL     1       1.561   7.733  21.884  0.00  0.00    +0.000 OA
ATOM     15  C   UNL     1       1.676   3.644  19.006  0.00  0.00    +0.000 C 
ENDROOT
BRANCH  13  16
ATOM     16  C   UNL     1       1.392   8.931  19.938  0.00  0.00    +0.000 A 
ATOM     17  C   UNL     1       1.466   9.070  18.553  0.00  0.00    +0.000 A 
ATOM     18  C   UNL     1       1.101  10.281  17.953  0.00  0.00    +0.000 A 
ATOM     19  C   UNL     1       0.609  11.339  18.716  0.00  0.00    +0.000 A 
ATOM     20  F   UNL     1       0.245  12.457  18.074  0.00  0.00    +0.000 F 
ATOM     21  C   UNL     1       0.476  11.197  20.099  0.00  0.00    +0.000 A 
ATOM     22  C   UNL     1       0.871   9.996  20.706  0.00  0.00    +0.000 A 
BRANCH  21  23
ATOM     23  N   UNL     1      -0.125  12.250  20.908  0.00  0.00    +0.000 N 
ATOM     24  O   UNL     1      -1.336  12.471  20.800  0.00  0.00    +0.000 OA
ATOM     25  O   UNL     1       0.620  12.864  21.692  0.00  0.00    +0.000 OA
ENDBRANCH  21  23
ENDBRANCH  13  16
BRANCH   1  26
ATOM     26  C   UNL     1       4.143   6.457  19.043  0.00  0.00    +0.000 C 
BRANCH  26  27
ATOM     27  C   UNL     1       5.086   5.306  19.447  0.00  0.00    +0.000 C 
BRANCH  27  28
ATOM     28  C   UNL     1       6.377   5.130  18.643  0.00  0.00    +0.000 C 
BRANCH  28  30
ATOM     29  O   UNL     1       8.124   6.791  18.712  0.00  0.00    +0.000 OA
ATOM     30  C   UNL     1       7.540   5.866  19.260  0.00  0.00    +0.000 C 
BRANCH  30  31
ATOM     31  O   UNL     1       7.904   5.409  20.477  0.00  0.00    +0.000 OA
ATOM     32  H   UNL     1       7.249   5.541  21.187  0.00  0.00    +0.000 HD
ENDBRANCH  30  31
ENDBRANCH  28  30
ENDBRANCH  27  28
ENDBRANCH  26  27
ENDBRANCH   1  26
TORSDOF 7
ENDMDL
MODEL 2
REMARK VINA RESULT:      -8.2      0.698      1.010
REMARK  Name = 
REMARK  7 active torsions:
REMARK  status: ('A' for Active; 'I' for Inactive)
REMARK    1  A    between atoms: C_2  and  O_3
REMARK    2  A    between atoms: C_2  and  C_4
REMARK    3  A    between atoms: C_4  and  C_5
REMARK    4  A    between atoms: C_5  and  C_6
REMARK    5  A    between atoms: C_6  and  C_7
REMARK    6  A    between atoms: C_19  and  C_21
REMARK    7  A    between atoms: C_26  and  N_27
REMARK                            x       y       z     vdW  Elec       q    Type
REMARK                         _______ _______ _______ _____ _____    ______ ____
ROOT
ATOM      1  C   UNL     1       2.507   6.131  18.727  0.00  0.00    +0.000 C 
ATOM      2  C   UNL     1       2.040   4.744  18.119  0.00  0.00    +0.000 C 
ATOM      3  C   UNL     1       2.804   4.167  16.897  0.00  0.00    +0.000 C 
ATOM      4  C   UNL     1       3.596   2.886  17.157  0.00  0.00    +0.000 C 
ATOM      5  C   UNL     1       2.702   1.864  17.833  0.00  0.00    +0.000 C 
ATOM      6  N   UNL     1       2.282   2.340  19.139  0.00  0.00    +0.000 NA
ATOM      7  C   UNL     1       3.319   2.263  20.159  0.00  0.00    +0.000 C 
ATOM      8  C   UNL     1       2.748   2.456  21.567  0.00  0.00    +0.000 C 
ATOM      9  C   UNL     1       1.305   2.962  21.549  0.00  0.00    +0.000 C 
ATOM     10  C   UNL     1       1.128   4.077  20.502  0.00  0.00    +0.000 C 
ATOM     11  C   UNL     1       1.868   5.310  20.978  0.00  0.00    +0.000 C 
ATOM     12  N   UNL     1       1.803   6.401  20.024  0.00  0.00    +0.000 N 
ATOM     13  C   UNL     1       1.650   7.657  20.655  0.00  0.00    +0.000 C 
ATOM     14  O   UNL     1       1.667   7.763  21.886  0.00  0.00    +0.000 OA
ATOM     15  C   UNL     1       1.540   3.615  19.094  0.00  0.00    +0.000 C 
ENDROOT
BRANCH  13  16
ATOM     16  C   UNL     1       1.368   8.923  19.932  0.00  0.00    +0.000 A 
ATOM     17  C   UNL     1       1.378   9.040  18.543  0.00  0.00    +0.000 A 
ATOM     18  C   UNL     1       0.979  10.240  17.943  0.00  0.00    +0.000 A 
ATOM     19  C   UNL     1       0.516  11.308  18.711  0.00  0.00    +0.000 A 
ATOM     20  F   UNL     1       0.116  12.413  18.069  0.00  0.00    +0.000 F 
ATOM     21  C   UNL     1       0.448  11.186  20.101  0.00  0.00    +0.000 A 
ATOM     22  C   UNL     1       0.878   9.997  20.707  0.00  0.00    +0.000 A 
BRANCH  21  23
ATOM     23  N   UNL     1      -0.121  12.248  20.921  0.00  0.00    +0.000 N 
ATOM     24  O   UNL     1       0.628  12.910  21.648  0.00  0.00    +0.000 OA
ATOM     25  O   UNL     1      -1.344  12.452  20.826  0.00  0.00    +0.000 OA
ENDBRANCH  21  23
ENDBRANCH  13  16
BRANCH   1  26
ATOM     26  C   UNL     1       4.027   6.404  18.894  0.00  0.00    +0.000 C 
BRANCH  26  27
ATOM     27  C   UNL     1       4.907   6.678  17.657  0.00  0.00    +0.000 C 
BRANCH  27  28
ATOM     28  C   UNL     1       6.401   6.365  17.765  0.00  0.00    +0.000 C 
BRANCH  28  30
ATOM     29  O   UNL     1       7.061   5.499  19.918  0.00  0.00    +0.000 OA
ATOM     30  C   UNL     1       6.687   5.279  18.774  0.00  0.00    +0.000 C 
BRANCH  30  31
ATOM     31  O   UNL     1       6.508   4.026  18.306  0.00  0.00    +0.000 OA
ATOM     32  H   UNL     1       5.894   3.470  18.820  0.00  0.00    +0.000 HD
ENDBRANCH  30  31
ENDBRANCH  28  30
ENDBRANCH  27  28
ENDBRANCH  26  27
ENDBRANCH   1  26
TORSDOF 7
ENDMDL
MODEL 3
REMARK VINA RESULT:      -8.1      0.912      1.096
REMARK  Name = 
REMARK  7 active torsions:
REMARK  status: ('A' for Active; 'I' for Inactive)
REMARK    1  A    between atoms: C_2  and  O_3
REMARK    2  A    between atoms: C_2  and  C_4
REMARK    3  A    between atoms: C_4  and  C_5
REMARK    4  A    between atoms: C_5  and  C_6
REMARK    5  A    between atoms: C_6  and  C_7
REMARK    6  A    between atoms: C_19  and  C_21
REMARK    7  A    between atoms: C_26  and  N_27
REMARK                            x       y       z     vdW  Elec       q    Type
REMARK                         _______ _______ _______ _____ _____    ______ ____
ROOT
ATOM      1  C   UNL     1       2.633   6.214  18.792  0.00  0.00    +0.000 C 
ATOM      2  C   UNL     1       2.254   4.835  18.109  0.00  0.00    +0.000 C 
ATOM      3  C   UNL     1       3.142   4.303  16.953  0.00  0.00    +0.000 C 
ATOM      4  C   UNL     1       3.931   3.029  17.257  0.00  0.00    +0.000 C 
ATOM      5  C   UNL     1       2.996   1.975  17.819  0.00  0.00    +0.000 C 
ATOM      6  N   UNL     1       2.444   2.410  19.090  0.00  0.00    +0.000 NA
ATOM      7  C   UNL     1       3.380   2.324  20.203  0.00  0.00    +0.000 C 
ATOM      8  C   UNL     1       2.674   2.472  21.553  0.00  0.00    +0.000 C 
ATOM      9  C   UNL     1       1.230   2.953  21.410  0.00  0.00    +0.000 C 
ATOM     10  C   UNL     1       1.131   4.091  20.377  0.00  0.00    +0.000 C 
ATOM     11  C   UNL     1       1.799   5.324  20.951  0.00  0.00    +0.000 C 
ATOM     12  N   UNL     1       1.803   6.438  20.022  0.00  0.00    +0.000 N 
ATOM     13  C   UNL     1       1.566   7.675  20.665  0.00  0.00    +0.000 C 
ATOM     14  O   UNL     1       1.464   7.749  21.894  0.00  0.00    +0.000 OA
ATOM     15  C   UNL     1       1.685   3.673  19.005  0.00  0.00    +0.000 C 
ENDROOT
BRANCH  13  16
ATOM     16  C   UNL     1       1.330   8.953  19.949  0.00  0.00    +0.000 A 
ATOM     17  C   UNL     1       1.395   9.088  18.563  0.00  0.00    +0.000 A 
ATOM     18  C   UNL     1       1.036  10.301  17.964  0.00  0.00    +0.000 A 
ATOM     19  C   UNL     1       0.559  11.366  18.728  0.00  0.00    +0.000 A 
ATOM     20  F   UNL     1       0.199  12.485  18.087  0.00  0.00    +0.000 F 
ATOM     21  C   UNL     1       0.435  11.227  20.113  0.00  0.00    +0.000 A 
ATOM     22  C   UNL     1       0.825  10.025  20.719  0.00  0.00    +0.000 A 
BRANCH  21  23
ATOM     23  N   UNL     1      -0.150  12.287  20.924  0.00  0.00    +0.000 N 
ATOM     24  O   UNL     1      -1.360  12.519  20.824  0.00  0.00    +0.000 OA
ATOM     25  O   UNL     1       0.606  12.895  21.702  0.00  0.00    +0.000 OA
ENDBRANCH  21  23
ENDBRANCH  13  16
BRANCH   1  26
ATOM     26  C   UNL     1       4.125   6.508  19.111  0.00  0.00    +0.000 C 
BRANCH  26  27
ATOM     27  C   UNL     1       5.193   6.390  18.004  0.00  0.00    +0.000 C 
BRANCH  27  28
ATOM     28  C   UNL     1       6.470   5.613  18.330  0.00  0.00    +0.000 C 
BRANCH  28  30
ATOM     29  O   UNL     1       7.922   4.320  16.903  0.00  0.00    +0.000 OA
ATOM     30  C   UNL     1       7.317   5.364  17.107  0.00  0.00    +0.000 C 
BRANCH  30  31
ATOM     31  O   UNL     1       7.369   6.403  16.246  0.00  0.00    +0.000 OA
ATOM     32  H   UNL     1       7.533   6.167  15.315  0.00  0.00    +0.000 HD
ENDBRANCH  30  31
ENDBRANCH  28  30
ENDBRANCH  27  28
ENDBRANCH  26  27
ENDBRANCH   1  26
TORSDOF 7
ENDMDL
MODEL 4
REMARK VINA RESULT:      -8.0      4.460      7.360
REMARK  Name = 
REMARK  7 active torsions:
REMARK  status: ('A' for Active; 'I' for Inactive)
REMARK    1  A    between atoms: C_2  and  O_3
REMARK    2  A    between atoms: C_2  and  C_4
REMARK    3  A    between atoms: C_4  and  C_5
REMARK    4  A    between atoms: C_5  and  C_6
REMARK    5  A    between atoms: C_6  and  C_7
REMARK    6  A    between atoms: C_19  and  C_21
REMARK    7  A    between atoms: C_26  and  N_27
REMARK                            x       y       z     vdW  Elec       q    Type
REMARK                         _______ _______ _______ _____ _____    ______ ____
ROOT
ATOM      1  C   UNL     1       4.263   3.801  16.811  0.00  0.00    +0.000 C 
ATOM      2  C   UNL     1       2.771   3.445  17.209  0.00  0.00    +0.000 C 
ATOM      3  C   UNL     1       2.464   2.031  17.770  0.00  0.00    +0.000 C 
ATOM      4  C   UNL     1       2.030   1.981  19.235  0.00  0.00    +0.000 C 
ATOM      5  C   UNL     1       0.900   2.967  19.465  0.00  0.00    +0.000 C 
ATOM      6  N   UNL     1       1.358   4.327  19.235  0.00  0.00    +0.000 NA
ATOM      7  C   UNL     1       2.184   4.862  20.308  0.00  0.00    +0.000 C 
ATOM      8  C   UNL     1       2.365   6.378  20.186  0.00  0.00    +0.000 C 
ATOM      9  C   UNL     1       1.888   6.917  18.836  0.00  0.00    +0.000 C 
ATOM     10  C   UNL     1       2.352   6.006  17.686  0.00  0.00    +0.000 C 
ATOM     11  C   UNL     1       3.854   6.135  17.542  0.00  0.00    +0.000 C 
ATOM     12  N   UNL     1       4.393   5.266  16.513  0.00  0.00    +0.000 N 
ATOM     13  C   UNL     1       5.423   5.887  15.770  0.00  0.00    +0.000 C 
ATOM     14  O   UNL     1       5.839   7.012  16.068  0.00  0.00    +0.000 OA
ATOM     15  C   UNL     1       1.874   4.555  17.871  0.00  0.00    +0.000 C 
ENDROOT
BRANCH  13  16
ATOM     16  C   UNL     1       6.026   5.313  14.542  0.00  0.00    +0.000 A 
ATOM     17  C   UNL     1       7.387   5.374  14.246  0.00  0.00    +0.000 A 
ATOM     18  C   UNL     1       7.888   4.697  13.128  0.00  0.00    +0.000 A 
ATOM     19  C   UNL     1       7.055   3.913  12.331  0.00  0.00    +0.000 A 
ATOM     20  F   UNL     1       7.607   3.264  11.298  0.00  0.00    +0.000 F 
ATOM     21  C   UNL     1       5.700   3.796  12.647  0.00  0.00    +0.000 A 
ATOM     22  C   UNL     1       5.189   4.499  13.747  0.00  0.00    +0.000 A 
BRANCH  21  23
ATOM     23  N   UNL     1       4.826   2.908  11.890  0.00  0.00    +0.000 N 
ATOM     24  O   UNL     1       5.246   1.793  11.560  0.00  0.00    +0.000 OA
ATOM     25  O   UNL     1       3.680   3.316  11.633  0.00  0.00    +0.000 OA
ENDBRANCH  21  23
ENDBRANCH  13  16
BRANCH   1  26
ATOM     26  C   UNL     1       5.417   3.358  17.751  0.00  0.00    +0.000 C 
BRANCH  26  27
ATOM     27  C   UNL     1       6.100   4.383  18.679  0.00  0.00    +0.000 C 
BRANCH  27  28
ATOM     28  C   UNL     1       7.488   4.889  18.278  0.00  0.00    +0.000 C 
BRANCH  28  30
ATOM     29  O   UNL     1       8.324   7.084  18.826  0.00  0.00    +0.000 OA
ATOM     30  C   UNL     1       7.994   5.968  19.203  0.00  0.00    +0.000 C 
BRANCH  30  31
ATOM     31  O   UNL     1       8.068   5.598  20.500  0.00  0.00    +0.000 OA
ATOM     32  H   UNL     1       7.215   5.539  20.968  0.00  0.00    +0.000 HD
ENDBRANCH  30  31
ENDBRANCH  28  30
ENDBRANCH  27  28
ENDBRANCH  26  27
ENDBRANCH   1  26
TORSDOF 7
ENDMDL
MODEL 5
REMARK VINA RESULT:      -8.0      4.661      7.591
REMARK  Name = 
REMARK  7 active torsions:
REMARK  status: ('A' for Active; 'I' for Inactive)
REMARK    1  A    between atoms: C_2  and  O_3
REMARK    2  A    between atoms: C_2  and  C_4
REMARK    3  A    between atoms: C_4  and  C_5
REMARK    4  A    between atoms: C_5  and  C_6
REMARK    5  A    between atoms: C_6  and  C_7
REMARK    6  A    between atoms: C_19  and  C_21
REMARK    7  A    between atoms: C_26  and  N_27
REMARK                            x       y       z     vdW  Elec       q    Type
REMARK                         _______ _______ _______ _____ _____    ______ ____
ROOT
ATOM      1  C   UNL     1       5.066   3.850  17.038  0.00  0.00    +0.000 C 
ATOM      2  C   UNL     1       3.864   3.110  17.761  0.00  0.00    +0.000 C 
ATOM      3  C   UNL     1       4.176   1.906  18.688  0.00  0.00    +0.000 C 
ATOM      4  C   UNL     1       3.895   2.125  20.174  0.00  0.00    +0.000 C 
ATOM      5  C   UNL     1       2.486   2.661  20.352  0.00  0.00    +0.000 C 
ATOM      6  N   UNL     1       2.356   3.966  19.728  0.00  0.00    +0.000 NA
ATOM      7  C   UNL     1       2.975   5.047  20.483  0.00  0.00    +0.000 C 
ATOM      8  C   UNL     1       2.536   6.422  19.973  0.00  0.00    +0.000 C 
ATOM      9  C   UNL     1       1.797   6.342  18.636  0.00  0.00    +0.000 C 
ATOM     10  C   UNL     1       2.505   5.370  17.675  0.00  0.00    +0.000 C 
ATOM     11  C   UNL     1       3.822   5.985  17.249  0.00  0.00    +0.000 C 
ATOM     12  N   UNL     1       4.589   5.112  16.381  0.00  0.00    +0.000 N 
ATOM     13  C   UNL     1       5.241   5.821  15.346  0.00  0.00    +0.000 C 
ATOM     14  O   UNL     1       5.200   7.055  15.289  0.00  0.00    +0.000 OA
ATOM     15  C   UNL     1       2.649   3.964  18.282  0.00  0.00    +0.000 C 
ENDROOT
BRANCH  13  16
ATOM     16  C   UNL     1       5.938   5.175  14.205  0.00  0.00    +0.000 A 
ATOM     17  C   UNL     1       7.317   5.232  14.009  0.00  0.00    +0.000 A 
ATOM     18  C   UNL     1       7.905   4.490  12.978  0.00  0.00    +0.000 A 
ATOM     19  C   UNL     1       7.139   3.648  12.173  0.00  0.00    +0.000 A 
ATOM     20  F   UNL     1       7.771   2.940  11.228  0.00  0.00    +0.000 F 
ATOM     21  C   UNL     1       5.764   3.538  12.393  0.00  0.00    +0.000 A 
ATOM     22  C   UNL     1       5.168   4.304  13.404  0.00  0.00    +0.000 A 
BRANCH  21  23
ATOM     23  N   UNL     1       4.955   2.594  11.631  0.00  0.00    +0.000 N 
ATOM     24  O   UNL     1       3.856   2.960  11.198  0.00  0.00    +0.000 OA
ATOM     25  O   UNL     1       5.430   1.462  11.435  0.00  0.00    +0.000 OA
ENDBRANCH  21  23
ENDBRANCH  13  16
BRANCH   1  26
ATOM     26  C   UNL     1       6.361   4.141  17.844  0.00  0.00    +0.000 C 
BRANCH  26  27
ATOM     27  C   UNL     1       6.398   5.299  18.862  0.00  0.00    +0.000 C 
BRANCH  27  28
ATOM     28  C   UNL     1       7.757   5.934  19.167  0.00  0.00    +0.000 C 
BRANCH  28  30
ATOM     29  O   UNL     1       7.788   7.141  17.080  0.00  0.00    +0.000 OA
ATOM     30  C   UNL     1       8.051   7.113  18.274  0.00  0.00    +0.000 C 
BRANCH  30  31
ATOM     31  O   UNL     1       8.650   8.149  18.901  0.00  0.00    +0.000 OA
ATOM     32  H   UNL     1       8.531   8.178  19.868  0.00  0.00    +0.000 HD
ENDBRANCH  30  31
ENDBRANCH  28  30
ENDBRANCH  27  28
ENDBRANCH  26  27
ENDBRANCH   1  26
TORSDOF 7
ENDMDL
MODEL 6
REMARK VINA RESULT:      -7.9      4.515      7.408
REMARK  Name = 
REMARK  7 active torsions:
REMARK  status: ('A' for Active; 'I' for Inactive)
REMARK    1  A    between atoms: C_2  and  O_3
REMARK    2  A    between atoms: C_2  and  C_4
REMARK    3  A    between atoms: C_4  and  C_5
REMARK    4  A    between atoms: C_5  and  C_6
REMARK    5  A    between atoms: C_6  and  C_7
REMARK    6  A    between atoms: C_19  and  C_21
REMARK    7  A    between atoms: C_26  and  N_27
REMARK                            x       y       z     vdW  Elec       q    Type
REMARK                         _______ _______ _______ _____ _____    ______ ____
ROOT
ATOM      1  C   UNL     1       4.308   3.848  16.860  0.00  0.00    +0.000 C 
ATOM      2  C   UNL     1       2.836   3.442  17.287  0.00  0.00    +0.000 C 
ATOM      3  C   UNL     1       2.602   2.049  17.929  0.00  0.00    +0.000 C 
ATOM      4  C   UNL     1       2.176   2.060  19.397  0.00  0.00    +0.000 C 
ATOM      5  C   UNL     1       1.000   3.002  19.578  0.00  0.00    +0.000 C 
ATOM      6  N   UNL     1       1.389   4.367  19.269  0.00  0.00    +0.000 NA
ATOM      7  C   UNL     1       2.192   5.002  20.305  0.00  0.00    +0.000 C 
ATOM      8  C   UNL     1       2.297   6.515  20.096  0.00  0.00    +0.000 C 
ATOM      9  C   UNL     1       1.789   6.953  18.722  0.00  0.00    +0.000 C 
ATOM     10  C   UNL     1       2.294   6.002  17.622  0.00  0.00    +0.000 C 
ATOM     11  C   UNL     1       3.787   6.197  17.462  0.00  0.00    +0.000 C 
ATOM     12  N   UNL     1       4.364   5.299  16.479  0.00  0.00    +0.000 N 
ATOM     13  C   UNL     1       5.360   5.927  15.697  0.00  0.00    +0.000 C 
ATOM     14  O   UNL     1       5.721   7.086  15.927  0.00  0.00    +0.000 OA
ATOM     15  C   UNL     1       1.888   4.543  17.892  0.00  0.00    +0.000 C 
ENDROOT
BRANCH  13  16
ATOM     16  C   UNL     1       5.987   5.314  14.499  0.00  0.00    +0.000 A 
ATOM     17  C   UNL     1       7.357   5.334  14.246  0.00  0.00    +0.000 A 
ATOM     18  C   UNL     1       7.876   4.624  13.157  0.00  0.00    +0.000 A 
ATOM     19  C   UNL     1       7.048   3.847  12.347  0.00  0.00    +0.000 A 
ATOM     20  F   UNL     1       7.615   3.165  11.344  0.00  0.00    +0.000 F 
ATOM     21  C   UNL     1       5.680   3.772  12.621  0.00  0.00    +0.000 A 
ATOM     22  C   UNL     1       5.154   4.508  13.692  0.00  0.00    +0.000 A 
BRANCH  21  23
ATOM     23  N   UNL     1       4.808   2.893  11.852  0.00  0.00    +0.000 N 
ATOM     24  O   UNL     1       3.671   3.282  11.562  0.00  0.00    +0.000 OA
ATOM     25  O   UNL     1       5.268   1.792  11.504  0.00  0.00    +0.000 OA
ENDBRANCH  21  23
ENDBRANCH  13  16
BRANCH   1  26
ATOM     26  C   UNL     1       5.486   3.516  17.816  0.00  0.00    +0.000 C 
BRANCH  26  27
ATOM     27  C   UNL     1       5.607   4.232  19.177  0.00  0.00    +0.000 C 
BRANCH  27  28
ATOM     28  C   UNL     1       6.787   5.186  19.374  0.00  0.00    +0.000 C 
BRANCH  28  30
ATOM     29  O   UNL     1       8.341   4.170  17.835  0.00  0.00    +0.000 OA
ATOM     30  C   UNL     1       7.739   5.169  18.204  0.00  0.00    +0.000 C 
BRANCH  30  31
ATOM     31  O   UNL     1       7.889   6.363  17.592  0.00  0.00    +0.000 OA
ATOM     32  H   UNL     1       7.468   7.119  18.040  0.00  0.00    +0.000 HD
ENDBRANCH  30  31
ENDBRANCH  28  30
ENDBRANCH  27  28
ENDBRANCH  26  27
ENDBRANCH   1  26
TORSDOF 7
ENDMDL
MODEL 7
REMARK VINA RESULT:      -7.7      3.147      8.441
REMARK  Name = 
REMARK  7 active torsions:
REMARK  status: ('A' for Active; 'I' for Inactive)
REMARK    1  A    between atoms: C_2  and  O_3
REMARK    2  A    between atoms: C_2  and  C_4
REMARK    3  A    between atoms: C_4  and  C_5
REMARK    4  A    between atoms: C_5  and  C_6
REMARK    5  A    between atoms: C_6  and  C_7
REMARK    6  A    between atoms: C_19  and  C_21
REMARK    7  A    between atoms: C_26  and  N_27
REMARK                            x       y       z     vdW  Elec       q    Type
REMARK                         _______ _______ _______ _____ _____    ______ ____
ROOT
ATOM      1  C   UNL     1       1.009  10.188  18.826  0.00  0.00    +0.000 C 
ATOM      2  C   UNL     1       1.115  11.692  19.317  0.00  0.00    +0.000 C 
ATOM      3  C   UNL     1       0.803  12.831  18.311  0.00  0.00    +0.000 C 
ATOM      4  C   UNL     1      -0.451  13.652  18.610  0.00  0.00    +0.000 C 
ATOM      5  C   UNL     1      -0.416  14.128  20.050  0.00  0.00    +0.000 C 
ATOM      6  N   UNL     1      -0.459  12.996  20.960  0.00  0.00    +0.000 NA
ATOM      7  C   UNL     1      -1.776  12.386  21.083  0.00  0.00    +0.000 C 
ATOM      8  C   UNL     1      -1.851  11.430  22.277  0.00  0.00    +0.000 C 
ATOM      9  C   UNL     1      -0.475  11.127  22.872  0.00  0.00    +0.000 C 
ATOM     10  C   UNL     1       0.558  10.868  21.761  0.00  0.00    +0.000 C 
ATOM     11  C   UNL     1       0.228   9.549  21.092  0.00  0.00    +0.000 C 
ATOM     12  N   UNL     1       1.120   9.245  19.989  0.00  0.00    +0.000 N 
ATOM     13  C   UNL     1       1.457   7.874  19.933  0.00  0.00    +0.000 C 
ATOM     14  O   UNL     1       0.947   7.056  20.706  0.00  0.00    +0.000 OA
ATOM     15  C   UNL     1       0.658  12.048  20.780  0.00  0.00    +0.000 C 
ENDROOT
BRANCH  13  16
ATOM     16  C   UNL     1       2.492   7.307  19.032  0.00  0.00    +0.000 A 
ATOM     17  C   UNL     1       2.906   7.916  17.849  0.00  0.00    +0.000 A 
ATOM     18  C   UNL     1       3.975   7.375  17.124  0.00  0.00    +0.000 A 
ATOM     19  C   UNL     1       4.673   6.265  17.597  0.00  0.00    +0.000 A 
ATOM     20  F   UNL     1       5.709   5.822  16.872  0.00  0.00    +0.000 F 
ATOM     21  C   UNL     1       4.306   5.677  18.809  0.00  0.00    +0.000 A 
ATOM     22  C   UNL     1       3.215   6.196  19.520  0.00  0.00    +0.000 A 
BRANCH  21  23
ATOM     23  N   UNL     1       5.077   4.576  19.374  0.00  0.00    +0.000 N 
ATOM     24  O   UNL     1       6.224   4.794  19.780  0.00  0.00    +0.000 OA
ATOM     25  O   UNL     1       4.523   3.465  19.441  0.00  0.00    +0.000 OA
ENDBRANCH  21  23
ENDBRANCH  13  16
BRANCH   1  26
ATOM     26  C   UNL     1      -0.192   9.773  17.934  0.00  0.00    +0.000 C 
BRANCH  26  27
ATOM     27  C   UNL     1      -1.629  10.161  18.337  0.00  0.00    +0.000 C 
BRANCH  27  28
ATOM     28  C   UNL     1      -2.760   9.799  17.371  0.00  0.00    +0.000 C 
BRANCH  28  30
ATOM     29  O   UNL     1      -2.761   9.911  14.962  0.00  0.00    +0.000 OA
ATOM     30  C   UNL     1      -2.611  10.481  16.034  0.00  0.00    +0.000 C 
BRANCH  30  31
ATOM     31  O   UNL     1      -2.279  11.787  16.111  0.00  0.00    +0.000 OA
ATOM     32  H   UNL     1      -3.022  12.400  16.258  0.00  0.00    +0.000 HD
ENDBRANCH  30  31
ENDBRANCH  28  30
ENDBRANCH  27  28
ENDBRANCH  26  27
ENDBRANCH   1  26
TORSDOF 7
ENDMDL
MODEL 8
REMARK VINA RESULT:      -7.6      4.310      7.171
REMARK  Name = 
REMARK  7 active torsions:
REMARK  status: ('A' for Active; 'I' for Inactive)
REMARK    1  A    between atoms: C_2  and  O_3
REMARK    2  A    between atoms: C_2  and  C_4
REMARK    3  A    between atoms: C_4  and  C_5
REMARK    4  A    between atoms: C_5  and  C_6
REMARK    5  A    between atoms: C_6  and  C_7
REMARK    6  A    between atoms: C_19  and  C_21
REMARK    7  A    between atoms: C_26  and  N_27
REMARK                            x       y       z     vdW  Elec       q    Type
REMARK                         _______ _______ _______ _____ _____    ______ ____
ROOT
ATOM      1  C   UNL     1       3.979   3.774  17.317  0.00  0.00    +0.000 C 
ATOM      2  C   UNL     1       2.479   3.483  17.741  0.00  0.00    +0.000 C 
ATOM      3  C   UNL     1       2.139   2.117  18.395  0.00  0.00    +0.000 C 
ATOM      4  C   UNL     1       1.708   2.175  19.860  0.00  0.00    +0.000 C 
ATOM      5  C   UNL     1       0.604   3.203  20.026  0.00  0.00    +0.000 C 
ATOM      6  N   UNL     1       1.095   4.532  19.706  0.00  0.00    +0.000 NA
ATOM      7  C   UNL     1       1.938   5.116  20.740  0.00  0.00    +0.000 C 
ATOM      8  C   UNL     1       2.156   6.615  20.517  0.00  0.00    +0.000 C 
ATOM      9  C   UNL     1       1.688   7.076  19.136  0.00  0.00    +0.000 C 
ATOM     10  C   UNL     1       2.126   6.079  18.048  0.00  0.00    +0.000 C 
ATOM     11  C   UNL     1       3.631   6.161  17.894  0.00  0.00    +0.000 C 
ATOM     12  N   UNL     1       4.144   5.213  16.923  0.00  0.00    +0.000 N 
ATOM     13  C   UNL     1       5.187   5.757  16.139  0.00  0.00    +0.000 C 
ATOM     14  O   UNL     1       5.632   6.889  16.361  0.00  0.00    +0.000 OA
ATOM     15  C   UNL     1       1.613   4.657  18.329  0.00  0.00    +0.000 C 
ENDROOT
BRANCH  13  16
ATOM     16  C   UNL     1       5.772   5.088  14.951  0.00  0.00    +0.000 A 
ATOM     17  C   UNL     1       5.139   4.063  14.249  0.00  0.00    +0.000 A 
ATOM     18  C   UNL     1       5.706   3.574  13.067  0.00  0.00    +0.000 A 
ATOM     19  C   UNL     1       6.871   4.135  12.545  0.00  0.00    +0.000 A 
ATOM     20  F   UNL     1       7.339   3.643  11.390  0.00  0.00    +0.000 F 
ATOM     21  C   UNL     1       7.487   5.200  13.206  0.00  0.00    +0.000 A 
ATOM     22  C   UNL     1       6.939   5.669  14.408  0.00  0.00    +0.000 A 
BRANCH  21  23
ATOM     23  N   UNL     1       8.649   5.868  12.634  0.00  0.00    +0.000 N 
ATOM     24  O   UNL     1       9.766   5.646  13.117  0.00  0.00    +0.000 OA
ATOM     25  O   UNL     1       8.457   6.618  11.661  0.00  0.00    +0.000 OA
ENDBRANCH  21  23
ENDBRANCH  13  16
BRANCH   1  26
ATOM     26  C   UNL     1       5.124   3.365  18.283  0.00  0.00    +0.000 C 
BRANCH  26  27
ATOM     27  C   UNL     1       5.921   4.445  19.043  0.00  0.00    +0.000 C 
BRANCH  27  28
ATOM     28  C   UNL     1       7.340   4.752  18.559  0.00  0.00    +0.000 C 
BRANCH  28  30
ATOM     29  O   UNL     1       8.309   6.935  18.897  0.00  0.00    +0.000 OA
ATOM     30  C   UNL     1       7.995   5.848  19.363  0.00  0.00    +0.000 C 
BRANCH  30  31
ATOM     31  O   UNL     1       8.224   5.529  20.654  0.00  0.00    +0.000 OA
ATOM     32  H   UNL     1       8.758   4.727  20.799  0.00  0.00    +0.000 HD
ENDBRANCH  30  31
ENDBRANCH  28  30
ENDBRANCH  27  28
ENDBRANCH  26  27
ENDBRANCH   1  26
TORSDOF 7
ENDMDL
MODEL 9
REMARK VINA RESULT:      -7.6      4.338      7.200
REMARK  Name = 
REMARK  7 active torsions:
REMARK  status: ('A' for Active; 'I' for Inactive)
REMARK    1  A    between atoms: C_2  and  O_3
REMARK    2  A    between atoms: C_2  and  C_4
REMARK    3  A    between atoms: C_4  and  C_5
REMARK    4  A    between atoms: C_5  and  C_6
REMARK    5  A    between atoms: C_6  and  C_7
REMARK    6  A    between atoms: C_19  and  C_21
REMARK    7  A    between atoms: C_26  and  N_27
REMARK                            x       y       z     vdW  Elec       q    Type
REMARK                         _______ _______ _______ _____ _____    ______ ____
ROOT
ATOM      1  C   UNL     1       4.173   3.827  17.474  0.00  0.00    +0.000 C 
ATOM      2  C   UNL     1       2.746   3.378  17.998  0.00  0.00    +0.000 C 
ATOM      3  C   UNL     1       2.628   2.065  18.817  0.00  0.00    +0.000 C 
ATOM      4  C   UNL     1       2.239   2.233  20.285  0.00  0.00    +0.000 C 
ATOM      5  C   UNL     1       1.003   3.107  20.387  0.00  0.00    +0.000 C 
ATOM      6  N   UNL     1       1.284   4.445  19.897  0.00  0.00    +0.000 NA
ATOM      7  C   UNL     1       2.064   5.260  20.818  0.00  0.00    +0.000 C 
ATOM      8  C   UNL     1       2.054   6.738  20.418  0.00  0.00    +0.000 C 
ATOM      9  C   UNL     1       1.481   6.962  19.018  0.00  0.00    +0.000 C 
ATOM     10  C   UNL     1       2.027   5.916  18.029  0.00  0.00    +0.000 C 
ATOM     11  C   UNL     1       3.498   6.192  17.795  0.00  0.00    +0.000 C 
ATOM     12  N   UNL     1       4.114   5.218  16.914  0.00  0.00    +0.000 N 
ATOM     13  C   UNL     1       5.042   5.808  16.026  0.00  0.00    +0.000 C 
ATOM     14  O   UNL     1       5.324   7.010  16.098  0.00  0.00    +0.000 OA
ATOM     15  C   UNL     1       1.735   4.478  18.492  0.00  0.00    +0.000 C 
ENDROOT
BRANCH  13  16
ATOM     16  C   UNL     1       5.682   5.093  14.893  0.00  0.00    +0.000 A 
ATOM     17  C   UNL     1       5.102   4.010  14.235  0.00  0.00    +0.000 A 
ATOM     18  C   UNL     1       5.718   3.475  13.098  0.00  0.00    +0.000 A 
ATOM     19  C   UNL     1       6.879   4.044  12.576  0.00  0.00    +0.000 A 
ATOM     20  F   UNL     1       7.396   3.504  11.465  0.00  0.00    +0.000 F 
ATOM     21  C   UNL     1       7.442   5.164  13.192  0.00  0.00    +0.000 A 
ATOM     22  C   UNL     1       6.845   5.682  14.350  0.00  0.00    +0.000 A 
BRANCH  21  23
ATOM     23  N   UNL     1       8.598   5.837  12.614  0.00  0.00    +0.000 N 
ATOM     24  O   UNL     1       8.431   6.595  11.651  0.00  0.00    +0.000 OA
ATOM     25  O   UNL     1       9.704   5.630  13.142  0.00  0.00    +0.000 OA
ENDBRANCH  21  23
ENDBRANCH  13  16
BRANCH   1  26
ATOM     26  C   UNL     1       5.395   3.701  18.425  0.00  0.00    +0.000 C 
BRANCH  26  27
ATOM     27  C   UNL     1       5.691   4.806  19.459  0.00  0.00    +0.000 C 
BRANCH  27  28
ATOM     28  C   UNL     1       7.098   5.408  19.471  0.00  0.00    +0.000 C 
BRANCH  28  30
ATOM     29  O   UNL     1       8.137   4.358  17.564  0.00  0.00    +0.000 OA
ATOM     30  C   UNL     1       7.744   5.382  18.108  0.00  0.00    +0.000 C 
BRANCH  30  31
ATOM     31  O   UNL     1       7.869   6.595  17.529  0.00  0.00    +0.000 OA
ATOM     32  H   UNL     1       7.218   6.796  16.833  0.00  0.00    +0.000 HD
ENDBRANCH  30  31
ENDBRANCH  28  30
ENDBRANCH  27  28
ENDBRANCH  26  27
ENDBRANCH   1  26
TORSDOF 7
ENDMDL
