MODEL 1
REMARK VINA RESULT:      -7.0      0.000      0.000
REMARK  Name = 
REMARK  7 active torsions:
REMARK  status: ('A' for Active; 'I' for Inactive)
REMARK    1  A    between atoms: C_1  and  C_2
REMARK    2  A    between atoms: C_2  and  C_3
REMARK    3  A    between atoms: C_3  and  C_4
REMARK    4  A    between atoms: C_4  and  C_5
REMARK    5  A    between atoms: C_5  and  C_6
REMARK    6  A    between atoms: C_6  and  C_7
REMARK    7  A    between atoms: N_11  and  C_12
REMARK                            x       y       z     vdW  Elec       q    Type
REMARK                         _______ _______ _______ _____ _____    ______ ____
ROOT
ATOM      1  C   UNL     1       6.881   4.577  17.710  0.00  0.00    +0.000 A 
ATOM      2  N   UNL     1       8.097   4.885  18.118  0.00  0.00    +0.000 NA
ATOM      3  N   UNL     1       7.993   5.279  19.422  0.00  0.00    +0.000 NA
ATOM      4  N   UNL     1       6.736   5.232  19.828  0.00  0.00    +0.000 NA
ATOM      5  N   UNL     1       6.033   4.784  18.770  0.00  0.00    +0.000 N 
ENDROOT
BRANCH   5   6
ATOM      6  C   UNL     1       4.613   4.575  18.885  0.00  0.00    +0.000 C 
ATOM      7  C   UNL     1       3.776   4.956  17.674  0.00  0.00    +0.000 C 
ATOM      8  C   UNL     1       3.146   3.669  17.200  0.00  0.00    +0.000 C 
ATOM      9  O   UNL     1       3.459   2.654  18.147  0.00  0.00    +0.000 OA
ATOM     10  C   UNL     1       4.321   3.124  19.087  0.00  0.00    +0.000 C 
ATOM     11  O   UNL     1       4.755   2.441  20.006  0.00  0.00    +0.000 OA
ENDBRANCH   5   6
BRANCH   1  12
ATOM     12  C   UNL     1       6.509   4.108  16.337  0.00  0.00    +0.000 C 
BRANCH  12  13
ATOM     13  C   UNL     1       6.774   5.217  15.309  0.00  0.00    +0.000 C 
BRANCH  13  14
ATOM     14  C   UNL     1       6.861   4.736  13.858  0.00  0.00    +0.000 C 
BRANCH  14  15
ATOM     15  C   UNL     1       5.660   3.831  13.551  0.00  0.00    +0.000 C 
BRANCH  15  17
ATOM     16  C   UNL     1       4.398   3.224  11.466  0.00  0.00    +0.000 C 
ATOM     17  C   UNL     1       5.744   3.165  12.180  0.00  0.00    +0.000 C 
ENDBRANCH  15  17
ENDBRANCH  14  15
ENDBRANCH  13  14
ENDBRANCH  12  13
ENDBRANCH   1  12
TORSDOF 6
ENDMDL
MODEL 2
REMARK VINA RESULT:      -7.0      1.664      2.510
REMARK  Name = 
REMARK  7 active torsions:
REMARK  status: ('A' for Active; 'I' for Inactive)
REMARK    1  A    between atoms: C_1  and  C_2
REMARK    2  A    between atoms: C_2  and  C_3
REMARK    3  A    between atoms: C_3  and  C_4
REMARK    4  A    between atoms: C_4  and  C_5
REMARK    5  A    between atoms: C_5  and  C_6
REMARK    6  A    between atoms: C_6  and  C_7
REMARK    7  A    between atoms: N_11  and  C_12
REMARK                            x       y       z     vdW  Elec       q    Type
REMARK                         _______ _______ _______ _____ _____    ______ ____
ROOT
ATOM      1  C   UNL     1       6.339   4.460  15.651  0.00  0.00    +0.000 A 
ATOM      2  N   UNL     1       7.624   4.558  15.934  0.00  0.00    +0.000 NA
ATOM      3  N   UNL     1       7.734   4.552  17.296  0.00  0.00    +0.000 NA
ATOM      4  N   UNL     1       6.543   4.464  17.863  0.00  0.00    +0.000 NA
ATOM      5  N   UNL     1       5.664   4.395  16.845  0.00  0.00    +0.000 N 
ENDROOT
BRANCH   5   6
ATOM      6  C   UNL     1       4.258   4.248  17.116  0.00  0.00    +0.000 C 
ATOM      7  C   UNL     1       3.857   3.055  17.969  0.00  0.00    +0.000 C 
ATOM      8  C   UNL     1       3.249   3.640  19.220  0.00  0.00    +0.000 C 
ATOM      9  O   UNL     1       3.155   5.049  19.042  0.00  0.00    +0.000 OA
ATOM     10  C   UNL     1       3.755   5.428  17.883  0.00  0.00    +0.000 C 
ATOM     11  O   UNL     1       3.823   6.591  17.507  0.00  0.00    +0.000 OA
ENDBRANCH   5   6
BRANCH   1  12
ATOM     12  C   UNL     1       5.742   4.444  14.276  0.00  0.00    +0.000 C 
BRANCH  12  13
ATOM     13  C   UNL     1       6.352   3.304  13.448  0.00  0.00    +0.000 C 
BRANCH  13  14
ATOM     14  C   UNL     1       5.886   3.253  11.991  0.00  0.00    +0.000 C 
BRANCH  14  15
ATOM     15  C   UNL     1       4.419   3.698  11.912  0.00  0.00    +0.000 C 
BRANCH  15  17
ATOM     16  C   UNL     1       3.093   4.061   9.810  0.00  0.00    +0.000 C 
ATOM     17  C   UNL     1       3.645   3.024  10.781  0.00  0.00    +0.000 C 
ENDBRANCH  15  17
ENDBRANCH  14  15
ENDBRANCH  13  14
ENDBRANCH  12  13
ENDBRANCH   1  12
TORSDOF 6
ENDMDL
MODEL 3
REMARK VINA RESULT:      -6.9      2.876      5.805
REMARK  Name = 
REMARK  7 active torsions:
REMARK  status: ('A' for Active; 'I' for Inactive)
REMARK    1  A    between atoms: C_1  and  C_2
REMARK    2  A    between atoms: C_2  and  C_3
REMARK    3  A    between atoms: C_3  and  C_4
REMARK    4  A    between atoms: C_4  and  C_5
REMARK    5  A    between atoms: C_5  and  C_6
REMARK    6  A    between atoms: C_6  and  C_7
REMARK    7  A    between atoms: N_11  and  C_12
REMARK                            x       y       z     vdW  Elec       q    Type
REMARK                         _______ _______ _______ _____ _____    ______ ____
ROOT
ATOM      1  C   UNL     1       3.843   5.068  17.750  0.00  0.00    +0.000 A 
ATOM      2  N   UNL     1       3.306   6.225  18.091  0.00  0.00    +0.000 NA
ATOM      3  N   UNL     1       3.965   7.193  17.386  0.00  0.00    +0.000 NA
ATOM      4  N   UNL     1       4.906   6.662  16.626  0.00  0.00    +0.000 NA
ATOM      5  N   UNL     1       4.832   5.334  16.835  0.00  0.00    +0.000 N 
ENDROOT
BRANCH   5   6
ATOM      6  C   UNL     1       5.705   4.441  16.119  0.00  0.00    +0.000 C 
ATOM      7  C   UNL     1       5.516   4.381  14.611  0.00  0.00    +0.000 C 
ATOM      8  C   UNL     1       6.813   4.880  14.022  0.00  0.00    +0.000 C 
ATOM      9  O   UNL     1       7.736   5.063  15.091  0.00  0.00    +0.000 OA
ATOM     10  C   UNL     1       7.128   4.864  16.289  0.00  0.00    +0.000 C 
ATOM     11  O   UNL     1       7.703   4.976  17.365  0.00  0.00    +0.000 OA
ENDBRANCH   5   6
BRANCH   1  12
ATOM     12  C   UNL     1       3.447   3.726  18.285  0.00  0.00    +0.000 C 
BRANCH  12  13
ATOM     13  C   UNL     1       2.158   3.244  17.605  0.00  0.00    +0.000 C 
BRANCH  13  14
ATOM     14  C   UNL     1       1.083   2.728  18.566  0.00  0.00    +0.000 C 
BRANCH  14  15
ATOM     15  C   UNL     1       1.053   3.617  19.817  0.00  0.00    +0.000 C 
BRANCH  15  17
ATOM     16  C   UNL     1       2.563   2.820  21.659  0.00  0.00    +0.000 C 
ATOM     17  C   UNL     1       1.137   2.826  21.120  0.00  0.00    +0.000 C 
ENDBRANCH  15  17
ENDBRANCH  14  15
ENDBRANCH  13  14
ENDBRANCH  12  13
ENDBRANCH   1  12
TORSDOF 6
ENDMDL
MODEL 4
REMARK VINA RESULT:      -6.8      1.703      2.250
REMARK  Name = 
REMARK  7 active torsions:
REMARK  status: ('A' for Active; 'I' for Inactive)
REMARK    1  A    between atoms: C_1  and  C_2
REMARK    2  A    between atoms: C_2  and  C_3
REMARK    3  A    between atoms: C_3  and  C_4
REMARK    4  A    between atoms: C_4  and  C_5
REMARK    5  A    between atoms: C_5  and  C_6
REMARK    6  A    between atoms: C_6  and  C_7
REMARK    7  A    between atoms: N_11  and  C_12
REMARK                            x       y       z     vdW  Elec       q    Type
REMARK                         _______ _______ _______ _____ _____    ______ ____
ROOT
ATOM      1  C   UNL     1       5.407   4.453  17.400  0.00  0.00    +0.000 A 
ATOM      2  N   UNL     1       6.360   4.570  18.306  0.00  0.00    +0.000 NA
ATOM      3  N   UNL     1       5.871   4.049  19.470  0.00  0.00    +0.000 NA
ATOM      4  N   UNL     1       4.630   3.623  19.309  0.00  0.00    +0.000 NA
ATOM      5  N   UNL     1       4.333   3.859  18.017  0.00  0.00    +0.000 N 
ENDROOT
BRANCH   5   6
ATOM      6  C   UNL     1       3.051   3.470  17.489  0.00  0.00    +0.000 C 
ATOM      7  C   UNL     1       2.583   2.064  17.827  0.00  0.00    +0.000 C 
ATOM      8  C   UNL     1       1.327   2.243  18.644  0.00  0.00    +0.000 C 
ATOM      9  O   UNL     1       1.002   3.629  18.647  0.00  0.00    +0.000 OA
ATOM     10  C   UNL     1       1.978   4.352  18.039  0.00  0.00    +0.000 C 
ATOM     11  O   UNL     1       1.943   5.571  17.925  0.00  0.00    +0.000 OA
ENDBRANCH   5   6
BRANCH   1  12
ATOM     12  C   UNL     1       5.491   4.906  15.975  0.00  0.00    +0.000 C 
BRANCH  12  13
ATOM     13  C   UNL     1       6.811   4.436  15.347  0.00  0.00    +0.000 C 
BRANCH  13  14
ATOM     14  C   UNL     1       6.814   4.405  13.816  0.00  0.00    +0.000 C 
BRANCH  14  15
ATOM     15  C   UNL     1       5.469   3.859  13.317  0.00  0.00    +0.000 C 
BRANCH  15  17
ATOM     16  C   UNL     1       4.225   3.093  11.274  0.00  0.00    +0.000 C 
ATOM     17  C   UNL     1       5.575   3.127  11.982  0.00  0.00    +0.000 C 
ENDBRANCH  15  17
ENDBRANCH  14  15
ENDBRANCH  13  14
ENDBRANCH  12  13
ENDBRANCH   1  12
TORSDOF 6
ENDMDL
MODEL 5
REMARK VINA RESULT:      -6.7      1.583      2.106
REMARK  Name = 
REMARK  7 active torsions:
REMARK  status: ('A' for Active; 'I' for Inactive)
REMARK    1  A    between atoms: C_1  and  C_2
REMARK    2  A    between atoms: C_2  and  C_3
REMARK    3  A    between atoms: C_3  and  C_4
REMARK    4  A    between atoms: C_4  and  C_5
REMARK    5  A    between atoms: C_5  and  C_6
REMARK    6  A    between atoms: C_6  and  C_7
REMARK    7  A    between atoms: N_11  and  C_12
REMARK                            x       y       z     vdW  Elec       q    Type
REMARK                         _______ _______ _______ _____ _____    ______ ____
ROOT
ATOM      1  C   UNL     1       6.478   4.278  16.339  0.00  0.00    +0.000 A 
ATOM      2  N   UNL     1       7.756   4.372  16.656  0.00  0.00    +0.000 NA
ATOM      3  N   UNL     1       7.820   4.545  18.010  0.00  0.00    +0.000 NA
ATOM      4  N   UNL     1       6.609   4.573  18.537  0.00  0.00    +0.000 NA
ATOM      5  N   UNL     1       5.762   4.396  17.505  0.00  0.00    +0.000 N 
ENDROOT
BRANCH   5   6
ATOM      6  C   UNL     1       4.343   4.333  17.739  0.00  0.00    +0.000 C 
ATOM      7  C   UNL     1       3.873   3.304  18.755  0.00  0.00    +0.000 C 
ATOM      8  C   UNL     1       3.241   4.099  19.871  0.00  0.00    +0.000 C 
ATOM      9  O   UNL     1       3.200   5.464  19.466  0.00  0.00    +0.000 OA
ATOM     10  C   UNL     1       3.853   5.634  18.287  0.00  0.00    +0.000 C 
ATOM     11  O   UNL     1       3.973   6.719  17.732  0.00  0.00    +0.000 OA
ENDBRANCH   5   6
BRANCH   1  12
ATOM     12  C   UNL     1       5.928   4.096  14.958  0.00  0.00    +0.000 C 
BRANCH  12  13
ATOM     13  C   UNL     1       6.863   4.744  13.926  0.00  0.00    +0.000 C 
BRANCH  13  14
ATOM     14  C   UNL     1       6.656   4.265  12.487  0.00  0.00    +0.000 C 
BRANCH  14  15
ATOM     15  C   UNL     1       6.274   2.778  12.497  0.00  0.00    +0.000 C 
BRANCH  15  17
ATOM     16  C   UNL     1       4.128   3.397  11.348  0.00  0.00    +0.000 C 
ATOM     17  C   UNL     1       5.284   2.404  11.398  0.00  0.00    +0.000 C 
ENDBRANCH  15  17
ENDBRANCH  14  15
ENDBRANCH  13  14
ENDBRANCH  12  13
ENDBRANCH   1  12
TORSDOF 6
ENDMDL
MODEL 6
REMARK VINA RESULT:      -6.7      3.079      5.250
REMARK  Name = 
REMARK  7 active torsions:
REMARK  status: ('A' for Active; 'I' for Inactive)
REMARK    1  A    between atoms: C_1  and  C_2
REMARK    2  A    between atoms: C_2  and  C_3
REMARK    3  A    between atoms: C_3  and  C_4
REMARK    4  A    between atoms: C_4  and  C_5
REMARK    5  A    between atoms: C_5  and  C_6
REMARK    6  A    between atoms: C_6  and  C_7
REMARK    7  A    between atoms: N_11  and  C_12
REMARK                            x       y       z     vdW  Elec       q    Type
REMARK                         _______ _______ _______ _____ _____    ______ ____
ROOT
ATOM      1  C   UNL     1       3.202   5.785  19.346  0.00  0.00    +0.000 A 
ATOM      2  N   UNL     1       2.558   6.908  19.089  0.00  0.00    +0.000 NA
ATOM      3  N   UNL     1       3.156   7.470  17.997  0.00  0.00    +0.000 NA
ATOM      4  N   UNL     1       4.165   6.726  17.579  0.00  0.00    +0.000 NA
ATOM      5  N   UNL     1       4.197   5.664  18.407  0.00  0.00    +0.000 N 
ENDROOT
BRANCH   5   6
ATOM      6  C   UNL     1       5.167   4.620  18.204  0.00  0.00    +0.000 C 
ATOM      7  C   UNL     1       5.419   4.206  16.763  0.00  0.00    +0.000 C 
ATOM      8  C   UNL     1       6.865   4.541  16.494  0.00  0.00    +0.000 C 
ATOM      9  O   UNL     1       7.451   4.964  17.721  0.00  0.00    +0.000 OA
ATOM     10  C   UNL     1       6.508   5.060  18.695  0.00  0.00    +0.000 C 
ATOM     11  O   UNL     1       6.754   5.419  19.840  0.00  0.00    +0.000 OA
ENDBRANCH   5   6
BRANCH   1  12
ATOM     12  C   UNL     1       2.903   4.840  20.470  0.00  0.00    +0.000 C 
BRANCH  12  13
ATOM     13  C   UNL     1       1.443   4.370  20.391  0.00  0.00    +0.000 C 
BRANCH  13  14
ATOM     14  C   UNL     1       1.266   2.900  20.003  0.00  0.00    +0.000 C 
BRANCH  14  15
ATOM     15  C   UNL     1       1.062   2.798  18.485  0.00  0.00    +0.000 C 
BRANCH  15  17
ATOM     16  C   UNL     1       3.243   1.564  18.662  0.00  0.00    +0.000 C 
ATOM     17  C   UNL     1       2.315   2.345  17.739  0.00  0.00    +0.000 C 
ENDBRANCH  15  17
ENDBRANCH  14  15
ENDBRANCH  13  14
ENDBRANCH  12  13
ENDBRANCH   1  12
TORSDOF 6
ENDMDL
MODEL 7
REMARK VINA RESULT:      -6.7      2.586      5.344
REMARK  Name = 
REMARK  7 active torsions:
REMARK  status: ('A' for Active; 'I' for Inactive)
REMARK    1  A    between atoms: C_1  and  C_2
REMARK    2  A    between atoms: C_2  and  C_3
REMARK    3  A    between atoms: C_3  and  C_4
REMARK    4  A    between atoms: C_4  and  C_5
REMARK    5  A    between atoms: C_5  and  C_6
REMARK    6  A    between atoms: C_6  and  C_7
REMARK    7  A    between atoms: N_11  and  C_12
REMARK                            x       y       z     vdW  Elec       q    Type
REMARK                         _______ _______ _______ _____ _____    ______ ____
ROOT
ATOM      1  C   UNL     1       4.920   4.589  18.142  0.00  0.00    +0.000 A 
ATOM      2  N   UNL     1       4.872   4.789  19.446  0.00  0.00    +0.000 NA
ATOM      3  N   UNL     1       6.164   4.856  19.887  0.00  0.00    +0.000 NA
ATOM      4  N   UNL     1       7.011   4.689  18.886  0.00  0.00    +0.000 NA
ATOM      5  N   UNL     1       6.245   4.532  17.789  0.00  0.00    +0.000 N 
ENDROOT
BRANCH   5   6
ATOM      6  C   UNL     1       6.862   4.366  16.498  0.00  0.00    +0.000 C 
ATOM      7  C   UNL     1       6.094   3.527  15.489  0.00  0.00    +0.000 C 
ATOM      8  C   UNL     1       5.766   4.464  14.353  0.00  0.00    +0.000 C 
ATOM      9  O   UNL     1       6.425   5.701  14.603  0.00  0.00    +0.000 OA
ATOM     10  C   UNL     1       7.016   5.691  15.827  0.00  0.00    +0.000 C 
ATOM     11  O   UNL     1       7.636   6.643  16.285  0.00  0.00    +0.000 OA
ENDBRANCH   5   6
BRANCH   1  12
ATOM     12  C   UNL     1       3.738   4.435  17.235  0.00  0.00    +0.000 C 
BRANCH  12  13
ATOM     13  C   UNL     1       2.470   4.961  17.923  0.00  0.00    +0.000 C 
BRANCH  13  14
ATOM     14  C   UNL     1       1.278   4.002  17.887  0.00  0.00    +0.000 C 
BRANCH  14  15
ATOM     15  C   UNL     1       1.365   3.040  19.080  0.00  0.00    +0.000 C 
BRANCH  15  17
ATOM     16  C   UNL     1       1.832   2.996  21.548  0.00  0.00    +0.000 C 
ATOM     17  C   UNL     1       1.100   3.718  20.422  0.00  0.00    +0.000 C 
ENDBRANCH  15  17
ENDBRANCH  14  15
ENDBRANCH  13  14
ENDBRANCH  12  13
ENDBRANCH   1  12
TORSDOF 6
ENDMDL
MODEL 8
REMARK VINA RESULT:      -6.7      2.992      5.581
REMARK  Name = 
REMARK  7 active torsions:
REMARK  status: ('A' for Active; 'I' for Inactive)
REMARK    1  A    between atoms: C_1  and  C_2
REMARK    2  A    between atoms: C_2  and  C_3
REMARK    3  A    between atoms: C_3  and  C_4
REMARK    4  A    between atoms: C_4  and  C_5
REMARK    5  A    between atoms: C_5  and  C_6
REMARK    6  A    between atoms: C_6  and  C_7
REMARK    7  A    between atoms: N_11  and  C_12
REMARK                            x       y       z     vdW  Elec       q    Type
REMARK                         _______ _______ _______ _____ _____    ______ ____
ROOT
ATOM      1  C   UNL     1       4.377   3.734  18.017  0.00  0.00    +0.000 A 
ATOM      2  N   UNL     1       4.494   3.102  19.169  0.00  0.00    +0.000 NA
ATOM      3  N   UNL     1       5.539   3.679  19.836  0.00  0.00    +0.000 NA
ATOM      4  N   UNL     1       6.079   4.646  19.116  0.00  0.00    +0.000 NA
ATOM      5  N   UNL     1       5.355   4.698  17.982  0.00  0.00    +0.000 N 
ENDROOT
BRANCH   5   6
ATOM      6  C   UNL     1       5.656   5.686  16.979  0.00  0.00    +0.000 C 
ATOM      7  C   UNL     1       5.605   7.138  17.428  0.00  0.00    +0.000 C 
ATOM      8  C   UNL     1       7.011   7.661  17.259  0.00  0.00    +0.000 C 
ATOM      9  O   UNL     1       7.779   6.650  16.616  0.00  0.00    +0.000 OA
ATOM     10  C   UNL     1       7.054   5.508  16.483  0.00  0.00    +0.000 C 
ATOM     11  O   UNL     1       7.494   4.485  15.974  0.00  0.00    +0.000 OA
ENDBRANCH   5   6
BRANCH   1  12
ATOM     12  C   UNL     1       3.372   3.431  16.948  0.00  0.00    +0.000 C 
BRANCH  12  13
ATOM     13  C   UNL     1       2.170   2.687  17.549  0.00  0.00    +0.000 C 
BRANCH  13  14
ATOM     14  C   UNL     1       1.139   3.587  18.235  0.00  0.00    +0.000 C 
BRANCH  14  15
ATOM     15  C   UNL     1       0.759   2.977  19.592  0.00  0.00    +0.000 C 
BRANCH  15  17
ATOM     16  C   UNL     1       2.003   2.884  21.772  0.00  0.00    +0.000 C 
ATOM     17  C   UNL     1       1.274   3.785  20.781  0.00  0.00    +0.000 C 
ENDBRANCH  15  17
ENDBRANCH  14  15
ENDBRANCH  13  14
ENDBRANCH  12  13
ENDBRANCH   1  12
TORSDOF 6
ENDMDL
MODEL 9
REMARK VINA RESULT:      -6.7      3.740      5.359
REMARK  Name = 
REMARK  7 active torsions:
REMARK  status: ('A' for Active; 'I' for Inactive)
REMARK    1  A    between atoms: C_1  and  C_2
REMARK    2  A    between atoms: C_2  and  C_3
REMARK    3  A    between atoms: C_3  and  C_4
REMARK    4  A    between atoms: C_4  and  C_5
REMARK    5  A    between atoms: C_5  and  C_6
REMARK    6  A    between atoms: C_6  and  C_7
REMARK    7  A    between atoms: N_11  and  C_12
REMARK                            x       y       z     vdW  Elec       q    Type
REMARK                         _______ _______ _______ _____ _____    ______ ____
ROOT
ATOM      1  C   UNL     1       6.634   6.106  16.658  0.00  0.00    +0.000 A 
ATOM      2  N   UNL     1       7.517   5.848  15.711  0.00  0.00    +0.000 NA
ATOM      3  N   UNL     1       7.279   4.574  15.280  0.00  0.00    +0.000 NA
ATOM      4  N   UNL     1       6.276   4.032  15.949  0.00  0.00    +0.000 NA
ATOM      5  N   UNL     1       5.858   4.983  16.805  0.00  0.00    +0.000 N 
ENDROOT
BRANCH   5   6
ATOM      6  C   UNL     1       4.734   4.732  17.669  0.00  0.00    +0.000 C 
ATOM      7  C   UNL     1       3.727   3.702  17.181  0.00  0.00    +0.000 C 
ATOM      8  C   UNL     1       3.769   2.586  18.195  0.00  0.00    +0.000 C 
ATOM      9  O   UNL     1       4.610   3.001  19.267  0.00  0.00    +0.000 OA
ATOM     10  C   UNL     1       5.203   4.189  18.979  0.00  0.00    +0.000 C 
ATOM     11  O   UNL     1       5.985   4.753  19.735  0.00  0.00    +0.000 OA
ENDBRANCH   5   6
BRANCH   1  12
ATOM     12  C   UNL     1       6.527   7.384  17.432  0.00  0.00    +0.000 C 
BRANCH  12  13
ATOM     13  C   UNL     1       7.919   7.842  17.894  0.00  0.00    +0.000 C 
BRANCH  13  14
ATOM     14  C   UNL     1       8.169   9.347  17.773  0.00  0.00    +0.000 C 
BRANCH  14  15
ATOM     15  C   UNL     1       9.050   9.810  18.941  0.00  0.00    +0.000 C 
BRANCH  15  17
ATOM     16  C   UNL     1       9.198  12.314  18.825  0.00  0.00    +0.000 C 
ATOM     17  C   UNL     1       9.937  11.002  18.591  0.00  0.00    +0.000 C 
ENDBRANCH  15  17
ENDBRANCH  14  15
ENDBRANCH  13  14
ENDBRANCH  12  13
ENDBRANCH   1  12
TORSDOF 6
ENDMDL
