MODEL 1
REMARK VINA RESULT:      -6.8      0.000      0.000
REMARK  Name = 
REMARK  2 active torsions:
REMARK  status: ('A' for Active; 'I' for Inactive)
REMARK    1  A    between atoms: C_2  and  C_3
REMARK    2  A    between atoms: C_13  and  C_14
REMARK                            x       y       z     vdW  Elec       q    Type
REMARK                         _______ _______ _______ _____ _____    ______ ____
ROOT
ATOM      1  O   UNL     1       5.442   3.720  19.012  0.00  0.00    +0.000 OA
ATOM      2  C   UNL     1       5.024   4.494  18.152  0.00  0.00    +0.000 C 
ATOM      3  N   UNL     1       3.866   5.252  18.322  0.00  0.00    +0.000 N 
ATOM      4  C   UNL     1       3.226   6.134  17.359  0.00  0.00    +0.000 C 
ATOM      5  C   UNL     1       3.010   7.406  18.154  0.00  0.00    +0.000 C 
ATOM      6  C   UNL     1       2.595   6.871  19.521  0.00  0.00    +0.000 C 
ATOM      7  C   UNL     1       3.368   5.541  19.667  0.00  0.00    +0.000 C 
ENDROOT
BRANCH   2   8
ATOM      8  C   UNL     1       5.825   4.650  16.907  0.00  0.00    +0.000 A 
ATOM      9  C   UNL     1       6.777   5.655  16.810  0.00  0.00    +0.000 A 
ATOM     10  N   UNL     1       7.535   5.832  15.694  0.00  0.00    +0.000 NA
ATOM     11  C   UNL     1       7.279   4.980  14.675  0.00  0.00    +0.000 A 
ATOM     12  C   UNL     1       6.301   4.004  14.753  0.00  0.00    +0.000 A 
ATOM     13  N   UNL     1       5.544   3.826  15.856  0.00  0.00    +0.000 NA
ENDBRANCH   2   8
BRANCH   7  14
ATOM     14  C   UNL     1       2.488   4.429  20.180  0.00  0.00    +0.000 A 
ATOM     15  C   UNL     1       1.344   3.877  19.504  0.00  0.00    +0.000 A 
ATOM     16  C   UNL     1       0.694   2.913  20.244  0.00  0.00    +0.000 A 
ATOM     17  S   UNL     1       1.452   2.648  21.750  0.00  0.00    +0.000 S 
ATOM     18  C   UNL     1       2.649   3.823  21.416  0.00  0.00    +0.000 A 
ENDBRANCH   7  14
TORSDOF 2
ENDMDL
MODEL 2
REMARK VINA RESULT:      -6.3      3.006      5.897
REMARK  Name = 
REMARK  2 active torsions:
REMARK  status: ('A' for Active; 'I' for Inactive)
REMARK    1  A    between atoms: C_2  and  C_3
REMARK    2  A    between atoms: C_13  and  C_14
REMARK                            x       y       z     vdW  Elec       q    Type
REMARK                         _______ _______ _______ _____ _____    ______ ____
ROOT
ATOM      1  O   UNL     1       5.561   4.232  19.671  0.00  0.00    +0.000 OA
ATOM      2  C   UNL     1       4.895   4.155  18.640  0.00  0.00    +0.000 C 
ATOM      3  N   UNL     1       5.380   4.574  17.401  0.00  0.00    +0.000 N 
ATOM      4  C   UNL     1       4.670   4.613  16.132  0.00  0.00    +0.000 C 
ATOM      5  C   UNL     1       5.630   3.923  15.184  0.00  0.00    +0.000 C 
ATOM      6  C   UNL     1       6.984   4.456  15.645  0.00  0.00    +0.000 C 
ATOM      7  C   UNL     1       6.821   4.663  17.167  0.00  0.00    +0.000 C 
ENDROOT
BRANCH   2   8
ATOM      8  C   UNL     1       3.540   3.546  18.729  0.00  0.00    +0.000 A 
ATOM      9  C   UNL     1       3.376   2.180  18.547  0.00  0.00    +0.000 A 
ATOM     10  N   UNL     1       2.158   1.579  18.624  0.00  0.00    +0.000 NA
ATOM     11  C   UNL     1       1.113   2.406  18.862  0.00  0.00    +0.000 A 
ATOM     12  C   UNL     1       1.269   3.774  19.001  0.00  0.00    +0.000 A 
ATOM     13  N   UNL     1       2.475   4.376  18.923  0.00  0.00    +0.000 NA
ENDBRANCH   2   8
BRANCH   7  14
ATOM     14  C   UNL     1       7.372   5.993  17.618  0.00  0.00    +0.000 A 
ATOM     15  C   UNL     1       8.120   6.232  18.825  0.00  0.00    +0.000 A 
ATOM     16  C   UNL     1       8.438   7.560  19.005  0.00  0.00    +0.000 A 
ATOM     17  S   UNL     1       7.860   8.533  17.729  0.00  0.00    +0.000 S 
ATOM     18  C   UNL     1       7.179   7.181  16.933  0.00  0.00    +0.000 A 
ENDBRANCH   7  14
TORSDOF 2
ENDMDL
MODEL 3
REMARK VINA RESULT:      -6.2      2.930      5.850
REMARK  Name = 
REMARK  2 active torsions:
REMARK  status: ('A' for Active; 'I' for Inactive)
REMARK    1  A    between atoms: C_2  and  C_3
REMARK    2  A    between atoms: C_13  and  C_14
REMARK                            x       y       z     vdW  Elec       q    Type
REMARK                         _______ _______ _______ _____ _____    ______ ____
ROOT
ATOM      1  O   UNL     1       5.563   4.270  19.676  0.00  0.00    +0.000 OA
ATOM      2  C   UNL     1       4.896   4.191  18.645  0.00  0.00    +0.000 C 
ATOM      3  N   UNL     1       5.381   4.602  17.404  0.00  0.00    +0.000 N 
ATOM      4  C   UNL     1       4.671   4.639  16.135  0.00  0.00    +0.000 C 
ATOM      5  C   UNL     1       5.628   3.940  15.190  0.00  0.00    +0.000 C 
ATOM      6  C   UNL     1       6.984   4.469  15.647  0.00  0.00    +0.000 C 
ATOM      7  C   UNL     1       6.823   4.684  17.169  0.00  0.00    +0.000 C 
ENDROOT
BRANCH   2   8
ATOM      8  C   UNL     1       3.538   3.589  18.738  0.00  0.00    +0.000 A 
ATOM      9  C   UNL     1       2.461   4.358  19.154  0.00  0.00    +0.000 A 
ATOM     10  N   UNL     1       1.201   3.853  19.249  0.00  0.00    +0.000 NA
ATOM     11  C   UNL     1       1.075   2.541  18.939  0.00  0.00    +0.000 A 
ATOM     12  C   UNL     1       2.155   1.761  18.565  0.00  0.00    +0.000 A 
ATOM     13  N   UNL     1       3.406   2.258  18.471  0.00  0.00    +0.000 NA
ENDBRANCH   2   8
BRANCH   7  14
ATOM     14  C   UNL     1       7.381   6.013  17.614  0.00  0.00    +0.000 A 
ATOM     15  C   UNL     1       8.114   6.258  18.828  0.00  0.00    +0.000 A 
ATOM     16  C   UNL     1       8.442   7.585  18.999  0.00  0.00    +0.000 A 
ATOM     17  S   UNL     1       7.891   8.550  17.705  0.00  0.00    +0.000 S 
ATOM     18  C   UNL     1       7.209   7.196  16.914  0.00  0.00    +0.000 A 
ENDBRANCH   7  14
TORSDOF 2
ENDMDL
MODEL 4
REMARK VINA RESULT:      -5.9      0.657      1.142
REMARK  Name = 
REMARK  2 active torsions:
REMARK  status: ('A' for Active; 'I' for Inactive)
REMARK    1  A    between atoms: C_2  and  C_3
REMARK    2  A    between atoms: C_13  and  C_14
REMARK                            x       y       z     vdW  Elec       q    Type
REMARK                         _______ _______ _______ _____ _____    ______ ____
ROOT
ATOM      1  O   UNL     1       5.353   3.654  19.061  0.00  0.00    +0.000 OA
ATOM      2  C   UNL     1       4.925   4.433  18.210  0.00  0.00    +0.000 C 
ATOM      3  N   UNL     1       3.772   5.193  18.401  0.00  0.00    +0.000 N 
ATOM      4  C   UNL     1       3.120   6.081  17.450  0.00  0.00    +0.000 C 
ATOM      5  C   UNL     1       2.918   7.350  18.255  0.00  0.00    +0.000 C 
ATOM      6  C   UNL     1       2.522   6.809  19.625  0.00  0.00    +0.000 C 
ATOM      7  C   UNL     1       3.294   5.476  19.754  0.00  0.00    +0.000 C 
ENDROOT
BRANCH   2   8
ATOM      8  C   UNL     1       5.708   4.593  16.954  0.00  0.00    +0.000 A 
ATOM      9  C   UNL     1       5.462   3.764  15.869  0.00  0.00    +0.000 A 
ATOM     10  N   UNL     1       6.148   3.875  14.699  0.00  0.00    +0.000 NA
ATOM     11  C   UNL     1       7.107   4.830  14.676  0.00  0.00    +0.000 A 
ATOM     12  C   UNL     1       7.384   5.629  15.771  0.00  0.00    +0.000 A 
ATOM     13  N   UNL     1       6.708   5.521  16.934  0.00  0.00    +0.000 NA
ENDBRANCH   2   8
BRANCH   7  14
ATOM     14  C   UNL     1       2.418   4.364  20.275  0.00  0.00    +0.000 A 
ATOM     15  C   UNL     1       1.300   3.776  19.585  0.00  0.00    +0.000 A 
ATOM     16  C   UNL     1       0.647   2.822  20.335  0.00  0.00    +0.000 A 
ATOM     17  S   UNL     1       1.372   2.608  21.864  0.00  0.00    +0.000 S 
ATOM     18  C   UNL     1       2.558   3.794  21.529  0.00  0.00    +0.000 A 
ENDBRANCH   7  14
TORSDOF 2
ENDMDL
MODEL 5
REMARK VINA RESULT:      -5.8      1.854      3.247
REMARK  Name = 
REMARK  2 active torsions:
REMARK  status: ('A' for Active; 'I' for Inactive)
REMARK    1  A    between atoms: C_2  and  C_3
REMARK    2  A    between atoms: C_13  and  C_14
REMARK                            x       y       z     vdW  Elec       q    Type
REMARK                         _______ _______ _______ _____ _____    ______ ____
ROOT
ATOM      1  O   UNL     1       5.627   2.977  16.208  0.00  0.00    +0.000 OA
ATOM      2  C   UNL     1       6.099   4.090  15.980  0.00  0.00    +0.000 C 
ATOM      3  N   UNL     1       6.227   5.067  16.966  0.00  0.00    +0.000 N 
ATOM      4  C   UNL     1       6.689   6.438  16.810  0.00  0.00    +0.000 C 
ATOM      5  C   UNL     1       7.724   6.575  17.909  0.00  0.00    +0.000 C 
ATOM      6  C   UNL     1       7.081   5.810  19.062  0.00  0.00    +0.000 C 
ATOM      7  C   UNL     1       6.272   4.685  18.378  0.00  0.00    +0.000 C 
ENDROOT
BRANCH   2   8
ATOM      8  C   UNL     1       6.589   4.369  14.603  0.00  0.00    +0.000 A 
ATOM      9  C   UNL     1       6.051   3.690  13.519  0.00  0.00    +0.000 A 
ATOM     10  N   UNL     1       6.464   3.916  12.242  0.00  0.00    +0.000 NA
ATOM     11  C   UNL     1       7.455   4.827  12.104  0.00  0.00    +0.000 A 
ATOM     12  C   UNL     1       8.024   5.473  13.187  0.00  0.00    +0.000 A 
ATOM     13  N   UNL     1       7.620   5.251  14.455  0.00  0.00    +0.000 NA
ENDBRANCH   2   8
BRANCH   7  14
ATOM     14  C   UNL     1       4.887   4.552  18.958  0.00  0.00    +0.000 A 
ATOM     15  C   UNL     1       3.958   5.629  19.182  0.00  0.00    +0.000 A 
ATOM     16  C   UNL     1       2.790   5.215  19.785  0.00  0.00    +0.000 A 
ATOM     17  S   UNL     1       2.785   3.534  20.078  0.00  0.00    +0.000 S 
ATOM     18  C   UNL     1       4.346   3.356  19.402  0.00  0.00    +0.000 A 
ENDBRANCH   7  14
TORSDOF 2
ENDMDL
MODEL 6
REMARK VINA RESULT:      -5.7      2.070      2.870
REMARK  Name = 
REMARK  2 active torsions:
REMARK  status: ('A' for Active; 'I' for Inactive)
REMARK    1  A    between atoms: C_2  and  C_3
REMARK    2  A    between atoms: C_13  and  C_14
REMARK                            x       y       z     vdW  Elec       q    Type
REMARK                         _______ _______ _______ _____ _____    ______ ____
ROOT
ATOM      1  O   UNL     1       5.760   2.759  15.964  0.00  0.00    +0.000 OA
ATOM      2  C   UNL     1       5.745   3.933  15.597  0.00  0.00    +0.000 C 
ATOM      3  N   UNL     1       5.151   4.946  16.348  0.00  0.00    +0.000 N 
ATOM      4  C   UNL     1       4.994   6.348  15.990  0.00  0.00    +0.000 C 
ATOM      5  C   UNL     1       5.508   7.071  17.219  0.00  0.00    +0.000 C 
ATOM      6  C   UNL     1       4.962   6.213  18.356  0.00  0.00    +0.000 C 
ATOM      7  C   UNL     1       4.954   4.776  17.787  0.00  0.00    +0.000 C 
ENDROOT
BRANCH   2   8
ATOM      8  C   UNL     1       6.434   4.273  14.322  0.00  0.00    +0.000 A 
ATOM      9  C   UNL     1       6.093   3.616  13.148  0.00  0.00    +0.000 A 
ATOM     10  N   UNL     1       6.691   3.897  11.958  0.00  0.00    +0.000 NA
ATOM     11  C   UNL     1       7.661   4.840  12.003  0.00  0.00    +0.000 A 
ATOM     12  C   UNL     1       8.033   5.465  13.180  0.00  0.00    +0.000 A 
ATOM     13  N   UNL     1       7.445   5.188  14.362  0.00  0.00    +0.000 NA
ENDBRANCH   2   8
BRANCH   7  14
ATOM     14  C   UNL     1       3.663   4.057  18.087  0.00  0.00    +0.000 A 
ATOM     15  C   UNL     1       2.338   4.554  17.822  0.00  0.00    +0.000 A 
ATOM     16  C   UNL     1       1.347   3.704  18.263  0.00  0.00    +0.000 A 
ATOM     17  S   UNL     1       1.988   2.298  18.985  0.00  0.00    +0.000 S 
ATOM     18  C   UNL     1       3.593   2.823  18.714  0.00  0.00    +0.000 A 
ENDBRANCH   7  14
TORSDOF 2
ENDMDL
MODEL 7
REMARK VINA RESULT:      -5.7      2.907      5.861
REMARK  Name = 
REMARK  2 active torsions:
REMARK  status: ('A' for Active; 'I' for Inactive)
REMARK    1  A    between atoms: C_2  and  C_3
REMARK    2  A    between atoms: C_13  and  C_14
REMARK                            x       y       z     vdW  Elec       q    Type
REMARK                         _______ _______ _______ _____ _____    ______ ____
ROOT
ATOM      1  O   UNL     1       3.375   2.792  17.462  0.00  0.00    +0.000 OA
ATOM      2  C   UNL     1       3.335   3.613  18.377  0.00  0.00    +0.000 C 
ATOM      3  N   UNL     1       3.824   4.912  18.241  0.00  0.00    +0.000 N 
ATOM      4  C   UNL     1       3.911   5.945  19.262  0.00  0.00    +0.000 C 
ATOM      5  C   UNL     1       3.288   7.148  18.582  0.00  0.00    +0.000 C 
ATOM      6  C   UNL     1       3.826   7.034  17.158  0.00  0.00    +0.000 C 
ATOM      7  C   UNL     1       3.955   5.513  16.914  0.00  0.00    +0.000 C 
ENDROOT
BRANCH   2   8
ATOM      8  C   UNL     1       2.695   3.201  19.656  0.00  0.00    +0.000 A 
ATOM      9  C   UNL     1       3.458   2.634  20.667  0.00  0.00    +0.000 A 
ATOM     10  N   UNL     1       2.917   2.247  21.854  0.00  0.00    +0.000 NA
ATOM     11  C   UNL     1       1.581   2.426  21.972  0.00  0.00    +0.000 A 
ATOM     12  C   UNL     1       0.811   2.951  20.949  0.00  0.00    +0.000 A 
ATOM     13  N   UNL     1       1.342   3.334  19.769  0.00  0.00    +0.000 NA
ENDBRANCH   2   8
BRANCH   7  14
ATOM     14  C   UNL     1       5.271   5.154  16.272  0.00  0.00    +0.000 A 
ATOM     15  C   UNL     1       6.499   4.865  16.966  0.00  0.00    +0.000 A 
ATOM     16  C   UNL     1       7.556   4.633  16.114  0.00  0.00    +0.000 A 
ATOM     17  S   UNL     1       7.091   4.742  14.476  0.00  0.00    +0.000 S 
ATOM     18  C   UNL     1       5.475   5.105  14.902  0.00  0.00    +0.000 A 
ENDBRANCH   7  14
TORSDOF 2
ENDMDL
MODEL 8
REMARK VINA RESULT:      -5.6      2.079      2.544
REMARK  Name = 
REMARK  2 active torsions:
REMARK  status: ('A' for Active; 'I' for Inactive)
REMARK    1  A    between atoms: C_2  and  C_3
REMARK    2  A    between atoms: C_13  and  C_14
REMARK                            x       y       z     vdW  Elec       q    Type
REMARK                         _______ _______ _______ _____ _____    ______ ____
ROOT
ATOM      1  O   UNL     1       5.632   2.684  16.016  0.00  0.00    +0.000 OA
ATOM      2  C   UNL     1       5.653   3.868  15.681  0.00  0.00    +0.000 C 
ATOM      3  N   UNL     1       5.072   4.876  16.449  0.00  0.00    +0.000 N 
ATOM      4  C   UNL     1       4.958   6.290  16.128  0.00  0.00    +0.000 C 
ATOM      5  C   UNL     1       5.470   6.966  17.384  0.00  0.00    +0.000 C 
ATOM      6  C   UNL     1       4.883   6.092  18.488  0.00  0.00    +0.000 C 
ATOM      7  C   UNL     1       4.847   4.672  17.880  0.00  0.00    +0.000 C 
ENDROOT
BRANCH   2   8
ATOM      8  C   UNL     1       6.372   4.224  14.427  0.00  0.00    +0.000 A 
ATOM      9  C   UNL     1       7.365   5.194  14.444  0.00  0.00    +0.000 A 
ATOM     10  N   UNL     1       8.053   5.549  13.325  0.00  0.00    +0.000 NA
ATOM     11  C   UNL     1       7.683   4.913  12.188  0.00  0.00    +0.000 A 
ATOM     12  C   UNL     1       6.664   3.978  12.161  0.00  0.00    +0.000 A 
ATOM     13  N   UNL     1       5.978   3.624  13.267  0.00  0.00    +0.000 NA
ENDBRANCH   2   8
BRANCH   7  14
ATOM     14  C   UNL     1       3.532   3.980  18.139  0.00  0.00    +0.000 A 
ATOM     15  C   UNL     1       2.227   4.510  17.848  0.00  0.00    +0.000 A 
ATOM     16  C   UNL     1       1.206   3.678  18.253  0.00  0.00    +0.000 A 
ATOM     17  S   UNL     1       1.796   2.248  18.972  0.00  0.00    +0.000 S 
ATOM     18  C   UNL     1       3.418   2.740  18.747  0.00  0.00    +0.000 A 
ENDBRANCH   7  14
TORSDOF 2
ENDMDL
MODEL 9
REMARK VINA RESULT:      -5.4      1.842      2.847
REMARK  Name = 
REMARK  2 active torsions:
REMARK  status: ('A' for Active; 'I' for Inactive)
REMARK    1  A    between atoms: C_2  and  C_3
REMARK    2  A    between atoms: C_13  and  C_14
REMARK                            x       y       z     vdW  Elec       q    Type
REMARK                         _______ _______ _______ _____ _____    ______ ____
ROOT
ATOM      1  O   UNL     1       5.079   3.090  16.333  0.00  0.00    +0.000 OA
ATOM      2  C   UNL     1       5.743   4.112  16.167  0.00  0.00    +0.000 C 
ATOM      3  N   UNL     1       5.972   5.033  17.188  0.00  0.00    +0.000 N 
ATOM      4  C   UNL     1       6.664   6.310  17.102  0.00  0.00    +0.000 C 
ATOM      5  C   UNL     1       7.638   6.248  18.262  0.00  0.00    +0.000 C 
ATOM      6  C   UNL     1       6.805   5.579  19.352  0.00  0.00    +0.000 C 
ATOM      7  C   UNL     1       5.865   4.620  18.588  0.00  0.00    +0.000 C 
ENDROOT
BRANCH   2   8
ATOM      8  C   UNL     1       6.359   4.334  14.829  0.00  0.00    +0.000 A 
ATOM      9  C   UNL     1       7.378   5.263  14.676  0.00  0.00    +0.000 A 
ATOM     10  N   UNL     1       7.974   5.496  13.475  0.00  0.00    +0.000 NA
ATOM     11  C   UNL     1       7.485   4.781  12.434  0.00  0.00    +0.000 A 
ATOM     12  C   UNL     1       6.440   3.886  12.577  0.00  0.00    +0.000 A 
ATOM     13  N   UNL     1       5.844   3.653  13.765  0.00  0.00    +0.000 NA
ENDBRANCH   2   8
BRANCH   7  14
ATOM     14  C   UNL     1       4.443   4.711  19.083  0.00  0.00    +0.000 A 
ATOM     15  C   UNL     1       3.694   5.924  19.285  0.00  0.00    +0.000 A 
ATOM     16  C   UNL     1       2.439   5.700  19.807  0.00  0.00    +0.000 A 
ATOM     17  S   UNL     1       2.136   4.038  20.047  0.00  0.00    +0.000 S 
ATOM     18  C   UNL     1       3.684   3.614  19.457  0.00  0.00    +0.000 A 
ENDBRANCH   7  14
TORSDOF 2
ENDMDL
