MODEL 1
REMARK VINA RESULT:      -8.5      0.000      0.000
REMARK  Name = 
REMARK  9 active torsions:
REMARK  status: ('A' for Active; 'I' for Inactive)
REMARK    1  A    between atoms: C_1  and  O_2
REMARK    2  A    between atoms: O_2  and  C_3
REMARK    3  A    between atoms: C_3  and  C_5
REMARK    4  A    between atoms: C_7  and  N_8
REMARK    5  A    between atoms: N_11  and  C_12
REMARK    6  A    between atoms: C_12  and  C_13
REMARK    7  A    between atoms: C_13  and  C_14
REMARK    8  A    between atoms: C_14  and  C_15
REMARK    9  A    between atoms: C_14  and  C_21
REMARK                            x       y       z     vdW  Elec       q    Type
REMARK                         _______ _______ _______ _____ _____    ______ ____
ROOT
ATOM      1  N   UNL     1      -0.718  10.883  17.683  0.00  0.00    +0.000 N 
ATOM      2  C   UNL     1       0.142  10.100  18.423  0.00  0.00    +0.000 C 
ATOM      3  O   UNL     1      -0.062   9.707  19.570  0.00  0.00    +0.000 OA
ATOM      4  N   UNL     1       1.315   9.793  17.757  0.00  0.00    +0.000 N 
ATOM      5  H   UNL     1      -0.290  11.444  16.961  0.00  0.00    +0.000 HD
ATOM      6  H   UNL     1       1.216   9.681  16.759  0.00  0.00    +0.000 HD
ENDROOT
BRANCH   1   9
ATOM      7  C   UNL     1      -3.523  12.406  19.668  0.00  0.00    +0.000 A 
ATOM      8  C   UNL     1      -2.237  11.985  19.287  0.00  0.00    +0.000 A 
ATOM      9  C   UNL     1      -2.019  11.245  18.119  0.00  0.00    +0.000 A 
ATOM     10  C   UNL     1      -3.126  10.857  17.361  0.00  0.00    +0.000 A 
ATOM     11  C   UNL     1      -4.414  11.260  17.737  0.00  0.00    +0.000 A 
ATOM     12  C   UNL     1      -4.619  12.043  18.883  0.00  0.00    +0.000 A 
ATOM     13 CL   UNL     1      -6.235  12.548  19.217  0.00  0.00    +0.000 Cl
BRANCH   7  14
ATOM     14  C   UNL     1      -3.664  13.203  20.910  0.00  0.00    +0.000 C 
ATOM     15  O   UNL     1      -3.512  14.410  20.994  0.00  0.00    +0.000 OA
BRANCH  14  17
ATOM     16  C   UNL     1      -3.045  12.303  22.988  0.00  0.00    +0.000 C 
ATOM     17  O   UNL     1      -3.999  12.370  21.929  0.00  0.00    +0.000 OA
ENDBRANCH  14  17
ENDBRANCH   7  14
ENDBRANCH   1   9
BRANCH   4  18
ATOM     18  C   UNL     1       2.189   8.849  18.443  0.00  0.00    +0.000 C 
BRANCH  18  19
ATOM     19  C   UNL     1       2.796   7.783  17.541  0.00  0.00    +0.000 C 
BRANCH  19  20
ATOM     20  C   UNL     1       3.518   6.650  18.332  0.00  0.00    +0.000 C 
BRANCH  20  21
ATOM     21  C   UNL     1       2.542   5.568  18.814  0.00  0.00    +0.000 A 
ATOM     22  C   UNL     1       2.137   5.472  20.155  0.00  0.00    +0.000 A 
ATOM     23  C   UNL     1       1.265   4.463  20.574  0.00  0.00    +0.000 A 
ATOM     24  C   UNL     1       0.796   3.517  19.666  0.00  0.00    +0.000 A 
ATOM     25  C   UNL     1       1.190   3.590  18.334  0.00  0.00    +0.000 A 
ATOM     26  C   UNL     1       2.045   4.611  17.909  0.00  0.00    +0.000 A 
ENDBRANCH  20  21
BRANCH  20  27
ATOM     27  C   UNL     1       4.723   6.076  17.568  0.00  0.00    +0.000 A 
ATOM     28  C   UNL     1       5.744   5.413  18.273  0.00  0.00    +0.000 A 
ATOM     29  C   UNL     1       6.831   4.846  17.597  0.00  0.00    +0.000 A 
ATOM     30  C   UNL     1       6.916   4.932  16.210  0.00  0.00    +0.000 A 
ATOM     31  C   UNL     1       5.920   5.590  15.496  0.00  0.00    +0.000 A 
ATOM     32  C   UNL     1       4.833   6.154  16.170  0.00  0.00    +0.000 A 
ENDBRANCH  20  27
ENDBRANCH  19  20
ENDBRANCH  18  19
ENDBRANCH   4  18
TORSDOF 8
ENDMDL
MODEL 2
REMARK VINA RESULT:      -8.5      0.651      1.385
REMARK  Name = 
REMARK  9 active torsions:
REMARK  status: ('A' for Active; 'I' for Inactive)
REMARK    1  A    between atoms: C_1  and  O_2
REMARK    2  A    between atoms: O_2  and  C_3
REMARK    3  A    between atoms: C_3  and  C_5
REMARK    4  A    between atoms: C_7  and  N_8
REMARK    5  A    between atoms: N_11  and  C_12
REMARK    6  A    between atoms: C_12  and  C_13
REMARK    7  A    between atoms: C_13  and  C_14
REMARK    8  A    between atoms: C_14  and  C_15
REMARK    9  A    between atoms: C_14  and  C_21
REMARK                            x       y       z     vdW  Elec       q    Type
REMARK                         _______ _______ _______ _____ _____    ______ ____
ROOT
ATOM      1  N   UNL     1      -0.810  10.774  17.685  0.00  0.00    +0.000 N 
ATOM      2  C   UNL     1       0.060  10.047  18.469  0.00  0.00    +0.000 C 
ATOM      3  O   UNL     1      -0.146   9.704  19.631  0.00  0.00    +0.000 OA
ATOM      4  N   UNL     1       1.246   9.735  17.829  0.00  0.00    +0.000 N 
ATOM      5  H   UNL     1      -0.388  11.310  16.941  0.00  0.00    +0.000 HD
ATOM      6  H   UNL     1       1.160   9.574  16.836  0.00  0.00    +0.000 HD
ENDROOT
BRANCH   1   9
ATOM      7  C   UNL     1      -3.669  12.306  19.584  0.00  0.00    +0.000 A 
ATOM      8  C   UNL     1      -2.371  11.896  19.234  0.00  0.00    +0.000 A 
ATOM      9  C   UNL     1      -2.123  11.126  18.091  0.00  0.00    +0.000 A 
ATOM     10  C   UNL     1      -3.213  10.697  17.330  0.00  0.00    +0.000 A 
ATOM     11  C   UNL     1      -4.512  11.089  17.675  0.00  0.00    +0.000 A 
ATOM     12  C   UNL     1      -4.747  11.902  18.795  0.00  0.00    +0.000 A 
ATOM     13 CL   UNL     1      -6.376  12.389  19.091  0.00  0.00    +0.000 Cl
BRANCH   7  14
ATOM     14  C   UNL     1      -3.841  13.136  20.801  0.00  0.00    +0.000 C 
ATOM     15  O   UNL     1      -3.657  14.340  20.863  0.00  0.00    +0.000 OA
BRANCH  14  17
ATOM     16  C   UNL     1      -3.790  12.740  23.114  0.00  0.00    +0.000 C 
ATOM     17  O   UNL     1      -4.246  12.338  21.822  0.00  0.00    +0.000 OA
ENDBRANCH  14  17
ENDBRANCH   7  14
ENDBRANCH   1   9
BRANCH   4  18
ATOM     18  C   UNL     1       2.134   8.845  18.566  0.00  0.00    +0.000 C 
BRANCH  18  19
ATOM     19  C   UNL     1       2.353   7.488  17.911  0.00  0.00    +0.000 C 
BRANCH  19  20
ATOM     20  C   UNL     1       3.114   6.481  18.826  0.00  0.00    +0.000 C 
BRANCH  20  21
ATOM     21  C   UNL     1       2.305   5.200  19.073  0.00  0.00    +0.000 A 
ATOM     22  C   UNL     1       1.968   4.318  18.034  0.00  0.00    +0.000 A 
ATOM     23  C   UNL     1       1.210   3.169  18.282  0.00  0.00    +0.000 A 
ATOM     24  C   UNL     1       0.755   2.891  19.568  0.00  0.00    +0.000 A 
ATOM     25  C   UNL     1       1.072   3.756  20.611  0.00  0.00    +0.000 A 
ATOM     26  C   UNL     1       1.848   4.893  20.369  0.00  0.00    +0.000 A 
ENDBRANCH  20  21
BRANCH  20  27
ATOM     27  C   UNL     1       4.544   6.204  18.334  0.00  0.00    +0.000 A 
ATOM     28  C   UNL     1       4.997   6.793  17.138  0.00  0.00    +0.000 A 
ATOM     29  C   UNL     1       6.306   6.590  16.690  0.00  0.00    +0.000 A 
ATOM     30  C   UNL     1       7.185   5.798  17.425  0.00  0.00    +0.000 A 
ATOM     31  C   UNL     1       6.754   5.202  18.606  0.00  0.00    +0.000 A 
ATOM     32  C   UNL     1       5.447   5.406  19.056  0.00  0.00    +0.000 A 
ENDBRANCH  20  27
ENDBRANCH  19  20
ENDBRANCH  18  19
ENDBRANCH   4  18
TORSDOF 8
ENDMDL
MODEL 3
REMARK VINA RESULT:      -8.4      1.482      2.283
REMARK  Name = 
REMARK  9 active torsions:
REMARK  status: ('A' for Active; 'I' for Inactive)
REMARK    1  A    between atoms: C_1  and  O_2
REMARK    2  A    between atoms: O_2  and  C_3
REMARK    3  A    between atoms: C_3  and  C_5
REMARK    4  A    between atoms: C_7  and  N_8
REMARK    5  A    between atoms: N_11  and  C_12
REMARK    6  A    between atoms: C_12  and  C_13
REMARK    7  A    between atoms: C_13  and  C_14
REMARK    8  A    between atoms: C_14  and  C_15
REMARK    9  A    between atoms: C_14  and  C_21
REMARK                            x       y       z     vdW  Elec       q    Type
REMARK                         _______ _______ _______ _____ _____    ______ ____
ROOT
ATOM      1  N   UNL     1      -0.090  11.050  17.899  0.00  0.00    +0.000 N 
ATOM      2  C   UNL     1       0.813  10.212  18.519  0.00  0.00    +0.000 C 
ATOM      3  O   UNL     1       0.769   9.867  19.699  0.00  0.00    +0.000 OA
ATOM      4  N   UNL     1       1.830   9.786  17.685  0.00  0.00    +0.000 N 
ATOM      5  H   UNL     1       0.259  11.553  17.096  0.00  0.00    +0.000 HD
ATOM      6  H   UNL     1       1.559   9.659  16.721  0.00  0.00    +0.000 HD
ENDROOT
BRANCH   1   9
ATOM      7  C   UNL     1      -3.699  11.826  18.601  0.00  0.00    +0.000 A 
ATOM      8  C   UNL     1      -2.531  11.412  17.938  0.00  0.00    +0.000 A 
ATOM      9  C   UNL     1      -1.266  11.536  18.525  0.00  0.00    +0.000 A 
ATOM     10  C   UNL     1      -1.170  12.160  19.771  0.00  0.00    +0.000 A 
ATOM     11  C   UNL     1      -2.326  12.588  20.437  0.00  0.00    +0.000 A 
ATOM     12  C   UNL     1      -3.594  12.415  19.863  0.00  0.00    +0.000 A 
ATOM     13 CL   UNL     1      -4.959  12.910  20.797  0.00  0.00    +0.000 Cl
BRANCH   7  14
ATOM     14  C   UNL     1      -5.001  11.641  17.916  0.00  0.00    +0.000 C 
ATOM     15  O   UNL     1      -5.480  12.405  17.096  0.00  0.00    +0.000 OA
BRANCH  14  17
ATOM     16  C   UNL     1      -6.920  10.584  18.760  0.00  0.00    +0.000 C 
ATOM     17  O   UNL     1      -5.559  10.479  18.343  0.00  0.00    +0.000 OA
ENDBRANCH  14  17
ENDBRANCH   7  14
ENDBRANCH   1   9
BRANCH   4  18
ATOM     18  C   UNL     1       2.723   8.786  18.256  0.00  0.00    +0.000 C 
BRANCH  18  19
ATOM     19  C   UNL     1       2.459   7.362  17.785  0.00  0.00    +0.000 C 
BRANCH  19  20
ATOM     20  C   UNL     1       3.253   6.291  18.594  0.00  0.00    +0.000 C 
BRANCH  20  21
ATOM     21  C   UNL     1       2.382   5.082  18.961  0.00  0.00    +0.000 A 
ATOM     22  C   UNL     1       1.870   4.895  20.255  0.00  0.00    +0.000 A 
ATOM     23  C   UNL     1       1.099   3.772  20.570  0.00  0.00    +0.000 A 
ATOM     24  C   UNL     1       0.841   2.803  19.605  0.00  0.00    +0.000 A 
ATOM     25  C   UNL     1       1.345   2.965  18.318  0.00  0.00    +0.000 A 
ATOM     26  C   UNL     1       2.098   4.098  17.995  0.00  0.00    +0.000 A 
ENDBRANCH  20  21
BRANCH  20  27
ATOM     27  C   UNL     1       4.573   5.898  17.912  0.00  0.00    +0.000 A 
ATOM     28  C   UNL     1       4.724   6.083  16.525  0.00  0.00    +0.000 A 
ATOM     29  C   UNL     1       5.929   5.771  15.887  0.00  0.00    +0.000 A 
ATOM     30  C   UNL     1       7.002   5.270  16.621  0.00  0.00    +0.000 A 
ATOM     31  C   UNL     1       6.870   5.074  17.991  0.00  0.00    +0.000 A 
ATOM     32  C   UNL     1       5.668   5.388  18.630  0.00  0.00    +0.000 A 
ENDBRANCH  20  27
ENDBRANCH  19  20
ENDBRANCH  18  19
ENDBRANCH   4  18
TORSDOF 8
ENDMDL
MODEL 4
REMARK VINA RESULT:      -8.4      3.375      5.420
REMARK  Name = 
REMARK  9 active torsions:
REMARK  status: ('A' for Active; 'I' for Inactive)
REMARK    1  A    between atoms: C_1  and  O_2
REMARK    2  A    between atoms: O_2  and  C_3
REMARK    3  A    between atoms: C_3  and  C_5
REMARK    4  A    between atoms: C_7  and  N_8
REMARK    5  A    between atoms: N_11  and  C_12
REMARK    6  A    between atoms: C_12  and  C_13
REMARK    7  A    between atoms: C_13  and  C_14
REMARK    8  A    between atoms: C_14  and  C_15
REMARK    9  A    between atoms: C_14  and  C_21
REMARK                            x       y       z     vdW  Elec       q    Type
REMARK                         _______ _______ _______ _____ _____    ______ ____
ROOT
ATOM      1  N   UNL     1       2.816   6.390  19.641  0.00  0.00    +0.000 N 
ATOM      2  C   UNL     1       2.677   5.538  18.566  0.00  0.00    +0.000 C 
ATOM      3  O   UNL     1       1.868   5.675  17.650  0.00  0.00    +0.000 OA
ATOM      4  N   UNL     1       3.538   4.457  18.607  0.00  0.00    +0.000 N 
ATOM      5  H   UNL     1       3.202   5.981  20.478  0.00  0.00    +0.000 HD
ATOM      6  H   UNL     1       4.438   4.650  19.022  0.00  0.00    +0.000 HD
ENDROOT
BRANCH   1   9
ATOM      7  C   UNL     1       0.917   9.279  21.115  0.00  0.00    +0.000 A 
ATOM      8  C   UNL     1       1.547   8.030  20.980  0.00  0.00    +0.000 A 
ATOM      9  C   UNL     1       2.109   7.614  19.768  0.00  0.00    +0.000 A 
ATOM     10  C   UNL     1       1.966   8.440  18.650  0.00  0.00    +0.000 A 
ATOM     11  C   UNL     1       1.330   9.683  18.769  0.00  0.00    +0.000 A 
ATOM     12  C   UNL     1       0.813  10.113  20.000  0.00  0.00    +0.000 A 
ATOM     13 CL   UNL     1       0.114  11.690  20.056  0.00  0.00    +0.000 Cl
BRANCH   7  14
ATOM     14  C   UNL     1       0.365   9.650  22.440  0.00  0.00    +0.000 C 
ATOM     15  O   UNL     1       0.996   9.678  23.483  0.00  0.00    +0.000 OA
BRANCH  14  17
ATOM     16  C   UNL     1      -1.420  10.986  23.172  0.00  0.00    +0.000 C 
ATOM     17  O   UNL     1      -0.948   9.964  22.295  0.00  0.00    +0.000 OA
ENDBRANCH  14  17
ENDBRANCH   7  14
ENDBRANCH   1   9
BRANCH   4  18
ATOM     18  C   UNL     1       3.527   3.610  17.421  0.00  0.00    +0.000 C 
BRANCH  18  19
ATOM     19  C   UNL     1       4.888   3.431  16.762  0.00  0.00    +0.000 C 
BRANCH  19  20
ATOM     20  C   UNL     1       5.417   4.733  16.085  0.00  0.00    +0.000 C 
BRANCH  20  21
ATOM     21  C   UNL     1       6.390   5.501  16.990  0.00  0.00    +0.000 A 
ATOM     22  C   UNL     1       7.113   4.868  18.014  0.00  0.00    +0.000 A 
ATOM     23  C   UNL     1       7.977   5.595  18.840  0.00  0.00    +0.000 A 
ATOM     24  C   UNL     1       8.118   6.969  18.674  0.00  0.00    +0.000 A 
ATOM     25  C   UNL     1       7.405   7.617  17.670  0.00  0.00    +0.000 A 
ATOM     26  C   UNL     1       6.558   6.889  16.828  0.00  0.00    +0.000 A 
ENDBRANCH  20  21
BRANCH  20  27
ATOM     27  C   UNL     1       5.978   4.477  14.676  0.00  0.00    +0.000 A 
ATOM     28  C   UNL     1       5.254   3.679  13.772  0.00  0.00    +0.000 A 
ATOM     29  C   UNL     1       5.723   3.464  12.471  0.00  0.00    +0.000 A 
ATOM     30  C   UNL     1       6.919   4.041  12.052  0.00  0.00    +0.000 A 
ATOM     31  C   UNL     1       7.653   4.827  12.935  0.00  0.00    +0.000 A 
ATOM     32  C   UNL     1       7.184   5.045  14.233  0.00  0.00    +0.000 A 
ENDBRANCH  20  27
ENDBRANCH  19  20
ENDBRANCH  18  19
ENDBRANCH   4  18
TORSDOF 8
ENDMDL
MODEL 5
REMARK VINA RESULT:      -8.3      6.595      9.637
REMARK  Name = 
REMARK  9 active torsions:
REMARK  status: ('A' for Active; 'I' for Inactive)
REMARK    1  A    between atoms: C_1  and  O_2
REMARK    2  A    between atoms: O_2  and  C_3
REMARK    3  A    between atoms: C_3  and  C_5
REMARK    4  A    between atoms: C_7  and  N_8
REMARK    5  A    between atoms: N_11  and  C_12
REMARK    6  A    between atoms: C_12  and  C_13
REMARK    7  A    between atoms: C_13  and  C_14
REMARK    8  A    between atoms: C_14  and  C_15
REMARK    9  A    between atoms: C_14  and  C_21
REMARK                            x       y       z     vdW  Elec       q    Type
REMARK                         _______ _______ _______ _____ _____    ______ ____
ROOT
ATOM      1  N   UNL     1       7.858   9.292  17.527  0.00  0.00    +0.000 N 
ATOM      2  C   UNL     1       7.713   7.958  17.841  0.00  0.00    +0.000 C 
ATOM      3  O   UNL     1       8.400   7.339  18.651  0.00  0.00    +0.000 OA
ATOM      4  N   UNL     1       6.704   7.333  17.131  0.00  0.00    +0.000 N 
ATOM      5  H   UNL     1       7.529   9.566  16.612  0.00  0.00    +0.000 HD
ATOM      6  H   UNL     1       5.911   7.921  16.918  0.00  0.00    +0.000 HD
ENDROOT
BRANCH   1   9
ATOM      7  C   UNL     1      10.269  12.094  18.209  0.00  0.00    +0.000 A 
ATOM      8  C   UNL     1       9.437  11.189  17.526  0.00  0.00    +0.000 A 
ATOM      9  C   UNL     1       8.761  10.161  18.193  0.00  0.00    +0.000 A 
ATOM     10  C   UNL     1       8.988   9.993  19.560  0.00  0.00    +0.000 A 
ATOM     11  C   UNL     1       9.824  10.880  20.251  0.00  0.00    +0.000 A 
ATOM     12  C   UNL     1      10.460  11.938  19.584  0.00  0.00    +0.000 A 
ATOM     13 CL   UNL     1      11.409  13.018  20.538  0.00  0.00    +0.000 Cl
BRANCH   7  14
ATOM     14  C   UNL     1      10.932  13.166  17.430  0.00  0.00    +0.000 C 
ATOM     15  O   UNL     1      11.964  13.039  16.793  0.00  0.00    +0.000 OA
BRANCH  14  17
ATOM     16  C   UNL     1      10.952  15.513  17.494  0.00  0.00    +0.000 C 
ATOM     17  O   UNL     1      10.196  14.303  17.535  0.00  0.00    +0.000 OA
ENDBRANCH  14  17
ENDBRANCH   7  14
ENDBRANCH   1   9
BRANCH   4  18
ATOM     18  C   UNL     1       6.418   5.961  17.535  0.00  0.00    +0.000 C 
BRANCH  18  19
ATOM     19  C   UNL     1       5.273   5.823  18.529  0.00  0.00    +0.000 C 
BRANCH  19  20
ATOM     20  C   UNL     1       3.870   5.799  17.849  0.00  0.00    +0.000 C 
BRANCH  20  21
ATOM     21  C   UNL     1       3.189   4.429  17.977  0.00  0.00    +0.000 A 
ATOM     22  C   UNL     1       1.806   4.299  18.181  0.00  0.00    +0.000 A 
ATOM     23  C   UNL     1       1.213   3.040  18.318  0.00  0.00    +0.000 A 
ATOM     24  C   UNL     1       1.992   1.888  18.276  0.00  0.00    +0.000 A 
ATOM     25  C   UNL     1       3.366   1.994  18.083  0.00  0.00    +0.000 A 
ATOM     26  C   UNL     1       3.958   3.251  17.924  0.00  0.00    +0.000 A 
ENDBRANCH  20  21
BRANCH  20  27
ATOM     27  C   UNL     1       2.975   6.962  18.307  0.00  0.00    +0.000 A 
ATOM     28  C   UNL     1       2.493   6.992  19.628  0.00  0.00    +0.000 A 
ATOM     29  C   UNL     1       1.710   8.059  20.081  0.00  0.00    +0.000 A 
ATOM     30  C   UNL     1       1.397   9.112  19.225  0.00  0.00    +0.000 A 
ATOM     31  C   UNL     1       1.858   9.097  17.914  0.00  0.00    +0.000 A 
ATOM     32  C   UNL     1       2.642   8.033  17.461  0.00  0.00    +0.000 A 
ENDBRANCH  20  27
ENDBRANCH  19  20
ENDBRANCH  18  19
ENDBRANCH   4  18
TORSDOF 8
ENDMDL
MODEL 6
REMARK VINA RESULT:      -8.3      1.441      2.390
REMARK  Name = 
REMARK  9 active torsions:
REMARK  status: ('A' for Active; 'I' for Inactive)
REMARK    1  A    between atoms: C_1  and  O_2
REMARK    2  A    between atoms: O_2  and  C_3
REMARK    3  A    between atoms: C_3  and  C_5
REMARK    4  A    between atoms: C_7  and  N_8
REMARK    5  A    between atoms: N_11  and  C_12
REMARK    6  A    between atoms: C_12  and  C_13
REMARK    7  A    between atoms: C_13  and  C_14
REMARK    8  A    between atoms: C_14  and  C_15
REMARK    9  A    between atoms: C_14  and  C_21
REMARK                            x       y       z     vdW  Elec       q    Type
REMARK                         _______ _______ _______ _____ _____    ______ ____
ROOT
ATOM      1  N   UNL     1      -0.639  10.665  17.986  0.00  0.00    +0.000 N 
ATOM      2  C   UNL     1       0.310   9.959  18.694  0.00  0.00    +0.000 C 
ATOM      3  O   UNL     1       0.418   9.944  19.919  0.00  0.00    +0.000 OA
ATOM      4  N   UNL     1       1.186   9.255  17.889  0.00  0.00    +0.000 N 
ATOM      5  H   UNL     1      -0.387  10.910  17.040  0.00  0.00    +0.000 HD
ATOM      6  H   UNL     1       0.779   8.896  17.037  0.00  0.00    +0.000 HD
ENDROOT
BRANCH   1   9
ATOM      7  C   UNL     1      -4.082  11.892  18.859  0.00  0.00    +0.000 A 
ATOM      8  C   UNL     1      -3.031  11.235  18.197  0.00  0.00    +0.000 A 
ATOM      9  C   UNL     1      -1.698  11.384  18.597  0.00  0.00    +0.000 A 
ATOM     10  C   UNL     1      -1.412  12.273  19.635  0.00  0.00    +0.000 A 
ATOM     11  C   UNL     1      -2.449  12.943  20.297  0.00  0.00    +0.000 A 
ATOM     12  C   UNL     1      -3.787  12.750  19.921  0.00  0.00    +0.000 A 
ATOM     13 CL   UNL     1      -4.994  13.565  20.846  0.00  0.00    +0.000 Cl
BRANCH   7  14
ATOM     14  C   UNL     1      -5.467  11.663  18.383  0.00  0.00    +0.000 C 
ATOM     15  O   UNL     1      -5.886  11.944  17.273  0.00  0.00    +0.000 OA
BRANCH  14  17
ATOM     16  C   UNL     1      -6.809   9.847  19.026  0.00  0.00    +0.000 C 
ATOM     17  O   UNL     1      -6.182  11.079  19.380  0.00  0.00    +0.000 OA
ENDBRANCH  14  17
ENDBRANCH   7  14
ENDBRANCH   1   9
BRANCH   4  18
ATOM     18  C   UNL     1       2.113   8.380  18.595  0.00  0.00    +0.000 C 
BRANCH  18  19
ATOM     19  C   UNL     1       2.810   7.354  17.711  0.00  0.00    +0.000 C 
BRANCH  19  20
ATOM     20  C   UNL     1       3.545   6.244  18.523  0.00  0.00    +0.000 C 
BRANCH  20  21
ATOM     21  C   UNL     1       2.596   5.115  18.950  0.00  0.00    +0.000 A 
ATOM     22  C   UNL     1       2.073   4.192  18.030  0.00  0.00    +0.000 A 
ATOM     23  C   UNL     1       1.191   3.188  18.440  0.00  0.00    +0.000 A 
ATOM     24  C   UNL     1       0.798   3.098  19.772  0.00  0.00    +0.000 A 
ATOM     25  C   UNL     1       1.299   4.008  20.699  0.00  0.00    +0.000 A 
ATOM     26  C   UNL     1       2.198   4.999  20.295  0.00  0.00    +0.000 A 
ENDBRANCH  20  21
BRANCH  20  27
ATOM     27  C   UNL     1       4.807   5.733  17.809  0.00  0.00    +0.000 A 
ATOM     28  C   UNL     1       4.929   5.881  16.415  0.00  0.00    +0.000 A 
ATOM     29  C   UNL     1       6.084   5.461  15.748  0.00  0.00    +0.000 A 
ATOM     30  C   UNL     1       7.135   4.886  16.458  0.00  0.00    +0.000 A 
ATOM     31  C   UNL     1       7.031   4.724  17.835  0.00  0.00    +0.000 A 
ATOM     32  C   UNL     1       5.878   5.146  18.504  0.00  0.00    +0.000 A 
ENDBRANCH  20  27
ENDBRANCH  19  20
ENDBRANCH  18  19
ENDBRANCH   4  18
TORSDOF 8
ENDMDL
MODEL 7
REMARK VINA RESULT:      -8.2      0.583      1.212
REMARK  Name = 
REMARK  9 active torsions:
REMARK  status: ('A' for Active; 'I' for Inactive)
REMARK    1  A    between atoms: C_1  and  O_2
REMARK    2  A    between atoms: O_2  and  C_3
REMARK    3  A    between atoms: C_3  and  C_5
REMARK    4  A    between atoms: C_7  and  N_8
REMARK    5  A    between atoms: N_11  and  C_12
REMARK    6  A    between atoms: C_12  and  C_13
REMARK    7  A    between atoms: C_13  and  C_14
REMARK    8  A    between atoms: C_14  and  C_15
REMARK    9  A    between atoms: C_14  and  C_21
REMARK                            x       y       z     vdW  Elec       q    Type
REMARK                         _______ _______ _______ _____ _____    ______ ____
ROOT
ATOM      1  N   UNL     1      -0.817  10.413  17.512  0.00  0.00    +0.000 N 
ATOM      2  C   UNL     1       0.143   9.817  18.302  0.00  0.00    +0.000 C 
ATOM      3  O   UNL     1       0.093   9.714  19.526  0.00  0.00    +0.000 OA
ATOM      4  N   UNL     1       1.226   9.341  17.587  0.00  0.00    +0.000 N 
ATOM      5  H   UNL     1      -0.493  10.777  16.628  0.00  0.00    +0.000 HD
ATOM      6  H   UNL     1       1.003   8.994  16.665  0.00  0.00    +0.000 HD
ENDROOT
BRANCH   1   9
ATOM      7  C   UNL     1      -3.369  12.236  19.582  0.00  0.00    +0.000 A 
ATOM      8  C   UNL     1      -2.144  11.705  19.143  0.00  0.00    +0.000 A 
ATOM      9  C   UNL     1      -2.057  10.889  18.009  0.00  0.00    +0.000 A 
ATOM     10  C   UNL     1      -3.238  10.537  17.351  0.00  0.00    +0.000 A 
ATOM     11  C   UNL     1      -4.467  11.050  17.785  0.00  0.00    +0.000 A 
ATOM     12  C   UNL     1      -4.539  11.908  18.893  0.00  0.00    +0.000 A 
ATOM     13 CL   UNL     1      -6.091  12.543  19.302  0.00  0.00    +0.000 Cl
BRANCH   7  14
ATOM     14  C   UNL     1      -3.370  13.108  20.780  0.00  0.00    +0.000 C 
ATOM     15  O   UNL     1      -4.031  12.920  21.788  0.00  0.00    +0.000 OA
BRANCH  14  17
ATOM     16  C   UNL     1      -1.712  14.488  21.706  0.00  0.00    +0.000 C 
ATOM     17  O   UNL     1      -2.508  14.137  20.574  0.00  0.00    +0.000 OA
ENDBRANCH  14  17
ENDBRANCH   7  14
ENDBRANCH   1   9
BRANCH   4  18
ATOM     18  C   UNL     1       2.195   8.576  18.362  0.00  0.00    +0.000 C 
BRANCH  18  19
ATOM     19  C   UNL     1       3.095   7.672  17.530  0.00  0.00    +0.000 C 
BRANCH  19  20
ATOM     20  C   UNL     1       3.763   6.536  18.364  0.00  0.00    +0.000 C 
BRANCH  20  21
ATOM     21  C   UNL     1       2.746   5.481  18.821  0.00  0.00    +0.000 A 
ATOM     22  C   UNL     1       2.120   4.608  17.917  0.00  0.00    +0.000 A 
ATOM     23  C   UNL     1       1.179   3.670  18.355  0.00  0.00    +0.000 A 
ATOM     24  C   UNL     1       0.830   3.601  19.701  0.00  0.00    +0.000 A 
ATOM     25  C   UNL     1       1.433   4.462  20.612  0.00  0.00    +0.000 A 
ATOM     26  C   UNL     1       2.390   5.385  20.180  0.00  0.00    +0.000 A 
ENDBRANCH  20  21
BRANCH  20  27
ATOM     27  C   UNL     1       4.986   5.929  17.658  0.00  0.00    +0.000 A 
ATOM     28  C   UNL     1       6.012   5.343  18.421  0.00  0.00    +0.000 A 
ATOM     29  C   UNL     1       7.116   4.747  17.800  0.00  0.00    +0.000 A 
ATOM     30  C   UNL     1       7.213   4.727  16.411  0.00  0.00    +0.000 A 
ATOM     31  C   UNL     1       6.212   5.308  15.640  0.00  0.00    +0.000 A 
ATOM     32  C   UNL     1       5.108   5.900  16.259  0.00  0.00    +0.000 A 
ENDBRANCH  20  27
ENDBRANCH  19  20
ENDBRANCH  18  19
ENDBRANCH   4  18
TORSDOF 8
ENDMDL
MODEL 8
REMARK VINA RESULT:      -8.2      1.608      4.009
REMARK  Name = 
REMARK  9 active torsions:
REMARK  status: ('A' for Active; 'I' for Inactive)
REMARK    1  A    between atoms: C_1  and  O_2
REMARK    2  A    between atoms: O_2  and  C_3
REMARK    3  A    between atoms: C_3  and  C_5
REMARK    4  A    between atoms: C_7  and  N_8
REMARK    5  A    between atoms: N_11  and  C_12
REMARK    6  A    between atoms: C_12  and  C_13
REMARK    7  A    between atoms: C_13  and  C_14
REMARK    8  A    between atoms: C_14  and  C_15
REMARK    9  A    between atoms: C_14  and  C_21
REMARK                            x       y       z     vdW  Elec       q    Type
REMARK                         _______ _______ _______ _____ _____    ______ ____
ROOT
ATOM      1  N   UNL     1      -0.611   9.873  17.654  0.00  0.00    +0.000 N 
ATOM      2  C   UNL     1       0.690   9.768  18.097  0.00  0.00    +0.000 C 
ATOM      3  O   UNL     1       1.198  10.458  18.979  0.00  0.00    +0.000 OA
ATOM      4  N   UNL     1       1.421   8.801  17.433  0.00  0.00    +0.000 N 
ATOM      5  H   UNL     1      -0.780   9.556  16.710  0.00  0.00    +0.000 HD
ATOM      6  H   UNL     1       0.888   7.992  17.146  0.00  0.00    +0.000 HD
ENDROOT
BRANCH   1   9
ATOM      7  C   UNL     1      -3.848  11.635  18.388  0.00  0.00    +0.000 A 
ATOM      8  C   UNL     1      -2.877  10.847  17.747  0.00  0.00    +0.000 A 
ATOM      9  C   UNL     1      -1.576  10.727  18.248  0.00  0.00    +0.000 A 
ATOM     10  C   UNL     1      -1.224  11.478  19.372  0.00  0.00    +0.000 A 
ATOM     11  C   UNL     1      -2.180  12.276  20.013  0.00  0.00    +0.000 A 
ATOM     12  C   UNL     1      -3.496  12.352  19.533  0.00  0.00    +0.000 A 
ATOM     13 CL   UNL     1      -4.614  13.306  20.437  0.00  0.00    +0.000 Cl
BRANCH   7  14
ATOM     14  C   UNL     1      -5.209  11.691  17.802  0.00  0.00    +0.000 C 
ATOM     15  O   UNL     1      -5.645  12.604  17.120  0.00  0.00    +0.000 OA
BRANCH  14  17
ATOM     16  C   UNL     1      -6.852  10.722  19.169  0.00  0.00    +0.000 C 
ATOM     17  O   UNL     1      -5.878  10.559  18.138  0.00  0.00    +0.000 OA
ENDBRANCH  14  17
ENDBRANCH   7  14
ENDBRANCH   1   9
BRANCH   4  18
ATOM     18  C   UNL     1       2.755   8.555  17.966  0.00  0.00    +0.000 C 
BRANCH  18  19
ATOM     19  C   UNL     1       2.865   7.316  18.844  0.00  0.00    +0.000 C 
BRANCH  19  20
ATOM     20  C   UNL     1       2.996   5.994  18.026  0.00  0.00    +0.000 C 
BRANCH  20  21
ATOM     21  C   UNL     1       4.459   5.651  17.713  0.00  0.00    +0.000 A 
ATOM     22  C   UNL     1       4.905   5.404  16.405  0.00  0.00    +0.000 A 
ATOM     23  C   UNL     1       6.238   5.069  16.149  0.00  0.00    +0.000 A 
ATOM     24  C   UNL     1       7.148   4.954  17.196  0.00  0.00    +0.000 A 
ATOM     25  C   UNL     1       6.725   5.188  18.501  0.00  0.00    +0.000 A 
ATOM     26  C   UNL     1       5.397   5.544  18.757  0.00  0.00    +0.000 A 
ENDBRANCH  20  21
BRANCH  20  27
ATOM     27  C   UNL     1       2.227   4.828  18.666  0.00  0.00    +0.000 A 
ATOM     28  C   UNL     1       1.883   4.884  20.029  0.00  0.00    +0.000 A 
ATOM     29  C   UNL     1       1.148   3.854  20.626  0.00  0.00    +0.000 A 
ATOM     30  C   UNL     1       0.745   2.753  19.875  0.00  0.00    +0.000 A 
ATOM     31  C   UNL     1       1.082   2.676  18.527  0.00  0.00    +0.000 A 
ATOM     32  C   UNL     1       1.814   3.705  17.930  0.00  0.00    +0.000 A 
ENDBRANCH  20  27
ENDBRANCH  19  20
ENDBRANCH  18  19
ENDBRANCH   4  18
TORSDOF 8
ENDMDL
MODEL 9
REMARK VINA RESULT:      -8.2      1.769      4.119
REMARK  Name = 
REMARK  9 active torsions:
REMARK  status: ('A' for Active; 'I' for Inactive)
REMARK    1  A    between atoms: C_1  and  O_2
REMARK    2  A    between atoms: O_2  and  C_3
REMARK    3  A    between atoms: C_3  and  C_5
REMARK    4  A    between atoms: C_7  and  N_8
REMARK    5  A    between atoms: N_11  and  C_12
REMARK    6  A    between atoms: C_12  and  C_13
REMARK    7  A    between atoms: C_13  and  C_14
REMARK    8  A    between atoms: C_14  and  C_15
REMARK    9  A    between atoms: C_14  and  C_21
REMARK                            x       y       z     vdW  Elec       q    Type
REMARK                         _______ _______ _______ _____ _____    ______ ____
ROOT
ATOM      1  N   UNL     1       0.393  11.411  19.779  0.00  0.00    +0.000 N 
ATOM      2  C   UNL     1       0.658  10.117  19.387  0.00  0.00    +0.000 C 
ATOM      3  O   UNL     1       0.143   9.109  19.866  0.00  0.00    +0.000 OA
ATOM      4  N   UNL     1       1.605  10.029  18.383  0.00  0.00    +0.000 N 
ATOM      5  H   UNL     1       1.129  12.081  19.609  0.00  0.00    +0.000 HD
ATOM      6  H   UNL     1       1.594  10.795  17.725  0.00  0.00    +0.000 HD
ENDROOT
BRANCH   1   9
ATOM      7  C   UNL     1      -2.808  12.681  21.284  0.00  0.00    +0.000 A 
ATOM      8  C   UNL     1      -1.788  12.415  20.355  0.00  0.00    +0.000 A 
ATOM      9  C   UNL     1      -0.609  11.755  20.723  0.00  0.00    +0.000 A 
ATOM     10  C   UNL     1      -0.423  11.426  22.068  0.00  0.00    +0.000 A 
ATOM     11  C   UNL     1      -1.428  11.696  23.005  0.00  0.00    +0.000 A 
ATOM     12  C   UNL     1      -2.627  12.314  22.619  0.00  0.00    +0.000 A 
ATOM     13 CL   UNL     1      -3.830  12.536  23.837  0.00  0.00    +0.000 Cl
BRANCH   7  14
ATOM     14  C   UNL     1      -4.033  13.367  20.807  0.00  0.00    +0.000 C 
ATOM     15  O   UNL     1      -4.272  14.556  20.940  0.00  0.00    +0.000 OA
BRANCH  14  17
ATOM     16  C   UNL     1      -6.058  12.181  20.867  0.00  0.00    +0.000 C 
ATOM     17  O   UNL     1      -4.832  12.459  20.191  0.00  0.00    +0.000 OA
ENDBRANCH  14  17
ENDBRANCH   7  14
ENDBRANCH   1   9
BRANCH   4  18
ATOM     18  C   UNL     1       1.811   8.694  17.837  0.00  0.00    +0.000 C 
BRANCH  18  19
ATOM     19  C   UNL     1       2.658   7.779  18.711  0.00  0.00    +0.000 C 
BRANCH  19  20
ATOM     20  C   UNL     1       2.987   6.414  18.031  0.00  0.00    +0.000 C 
BRANCH  20  21
ATOM     21  C   UNL     1       4.499   6.163  17.943  0.00  0.00    +0.000 A 
ATOM     22  C   UNL     1       5.253   6.536  16.819  0.00  0.00    +0.000 A 
ATOM     23  C   UNL     1       6.625   6.274  16.753  0.00  0.00    +0.000 A 
ATOM     24  C   UNL     1       7.266   5.616  17.798  0.00  0.00    +0.000 A 
ATOM     25  C   UNL     1       6.536   5.231  18.918  0.00  0.00    +0.000 A 
ATOM     26  C   UNL     1       5.168   5.511  18.996  0.00  0.00    +0.000 A 
ENDBRANCH  20  21
BRANCH  20  27
ATOM     27  C   UNL     1       2.217   5.243  18.661  0.00  0.00    +0.000 A 
ATOM     28  C   UNL     1       1.879   4.127  17.874  0.00  0.00    +0.000 A 
ATOM     29  C   UNL     1       1.215   3.030  18.434  0.00  0.00    +0.000 A 
ATOM     30  C   UNL     1       0.877   3.028  19.785  0.00  0.00    +0.000 A 
ATOM     31  C   UNL     1       1.197   4.125  20.578  0.00  0.00    +0.000 A 
ATOM     32  C   UNL     1       1.863   5.220  20.021  0.00  0.00    +0.000 A 
ENDBRANCH  20  27
ENDBRANCH  19  20
ENDBRANCH  18  19
ENDBRANCH   4  18
TORSDOF 8
ENDMDL
