MODEL 1
REMARK VINA RESULT:      -8.6      0.000      0.000
REMARK  Name = 
REMARK  5 active torsions:
REMARK  status: ('A' for Active; 'I' for Inactive)
REMARK    1  A    between atoms: C_6  and  C_7
REMARK    2  A    between atoms: C_7  and  C_8
REMARK    3  A    between atoms: C_8  and  C_9
REMARK    4  A    between atoms: C_9  and  O_10
REMARK    5  A    between atoms: O_10  and  C_11
REMARK                            x       y       z     vdW  Elec       q    Type
REMARK                         _______ _______ _______ _____ _____    ______ ____
ROOT
ATOM      1  C   UNL     1       3.236   3.767  19.413  0.00  0.00    +0.000 C 
ATOM      2  C   UNL     1       1.758   3.516  19.040  0.00  0.00    +0.000 C 
ATOM      3  C   UNL     1       0.832   3.682  20.236  0.00  0.00    +0.000 C 
ATOM      4  C   UNL     1       1.255   2.785  21.398  0.00  0.00    +0.000 C 
ATOM      5  N   UNL     1       2.675   2.826  21.732  0.00  0.00    +0.000 NA
ATOM      6  C   UNL     1       3.569   2.764  20.569  0.00  0.00    +0.000 C 
ATOM      7  H   UNL     1       2.887   3.640  22.307  0.00  0.00    +0.000 HD
ENDROOT
BRANCH   1   8
ATOM      8  C   UNL     1       3.540   5.209  19.950  0.00  0.00    +0.000 C 
BRANCH   8  14
ATOM      9 CL   UNL     1       0.389   9.412  20.704  0.00  0.00    +0.000 Cl
ATOM     10  C   UNL     1       1.447   8.456  19.740  0.00  0.00    +0.000 A 
ATOM     11  C   UNL     1       1.737   8.867  18.438  0.00  0.00    +0.000 A 
ATOM     12  C   UNL     1       2.596   8.097  17.662  0.00  0.00    +0.000 A 
ATOM     13  C   UNL     1       3.146   6.927  18.191  0.00  0.00    +0.000 A 
ATOM     14  C   UNL     1       2.861   6.492  19.506  0.00  0.00    +0.000 A 
ATOM     15  C   UNL     1       2.003   7.283  20.272  0.00  0.00    +0.000 A 
ENDBRANCH   8  14
ENDBRANCH   1   8
BRANCH   1  16
ATOM     16  C   UNL     1       4.111   3.388  18.189  0.00  0.00    +0.000 C 
BRANCH  16  17
ATOM     17  O   UNL     1       5.337   4.123  18.164  0.00  0.00    +0.000 OA
BRANCH  17  18
ATOM     18  C   UNL     1       5.882   4.354  16.933  0.00  0.00    +0.000 A 
ATOM     19  C   UNL     1       5.062   4.051  15.844  0.00  0.00    +0.000 A 
ATOM     20  C   UNL     1       5.518   4.266  14.547  0.00  0.00    +0.000 A 
ATOM     21  C   UNL     1       6.786   4.797  14.385  0.00  0.00    +0.000 A 
ATOM     22 CL   UNL     1       7.417   5.117  12.824  0.00  0.00    +0.000 Cl
ATOM     23  N   UNL     1       7.613   5.105  15.403  0.00  0.00    +0.000 NA
ATOM     24  C   UNL     1       7.143   4.872  16.652  0.00  0.00    +0.000 A 
ENDBRANCH  17  18
ENDBRANCH  16  17
ENDBRANCH   1  16
TORSDOF 5
ENDMDL
MODEL 2
REMARK VINA RESULT:      -8.3      1.795      2.152
REMARK  Name = 
REMARK  5 active torsions:
REMARK  status: ('A' for Active; 'I' for Inactive)
REMARK    1  A    between atoms: C_6  and  C_7
REMARK    2  A    between atoms: C_7  and  C_8
REMARK    3  A    between atoms: C_8  and  C_9
REMARK    4  A    between atoms: C_9  and  O_10
REMARK    5  A    between atoms: O_10  and  C_11
REMARK                            x       y       z     vdW  Elec       q    Type
REMARK                         _______ _______ _______ _____ _____    ______ ____
ROOT
ATOM      1  C   UNL     1       2.907   4.128  18.873  0.00  0.00    +0.000 C 
ATOM      2  C   UNL     1       1.393   3.828  18.787  0.00  0.00    +0.000 C 
ATOM      3  C   UNL     1       0.757   3.714  20.165  0.00  0.00    +0.000 C 
ATOM      4  C   UNL     1       1.467   2.668  21.023  0.00  0.00    +0.000 C 
ATOM      5  N   UNL     1       2.923   2.764  21.044  0.00  0.00    +0.000 NA
ATOM      6  C   UNL     1       3.532   2.972  19.725  0.00  0.00    +0.000 C 
ATOM      7  H   UNL     1       3.227   3.481  21.700  0.00  0.00    +0.000 HD
ENDROOT
BRANCH   1   8
ATOM      8  C   UNL     1       3.267   5.477  19.588  0.00  0.00    +0.000 C 
BRANCH   8  14
ATOM      9 CL   UNL     1       0.382   9.597  21.277  0.00  0.00    +0.000 Cl
ATOM     10  C   UNL     1       1.254   8.746  20.062  0.00  0.00    +0.000 A 
ATOM     11  C   UNL     1       1.353   9.299  18.784  0.00  0.00    +0.000 A 
ATOM     12  C   UNL     1       2.063   8.613  17.804  0.00  0.00    +0.000 A 
ATOM     13  C   UNL     1       2.655   7.385  18.110  0.00  0.00    +0.000 A 
ATOM     14  C   UNL     1       2.564   6.808  19.397  0.00  0.00    +0.000 A 
ATOM     15  C   UNL     1       1.853   7.516  20.369  0.00  0.00    +0.000 A 
ENDBRANCH   8  14
ENDBRANCH   1   8
BRANCH   1  16
ATOM     16  C   UNL     1       3.496   4.034  17.441  0.00  0.00    +0.000 C 
BRANCH  16  17
ATOM     17  O   UNL     1       4.914   3.856  17.460  0.00  0.00    +0.000 OA
BRANCH  17  18
ATOM     18  C   UNL     1       5.670   4.993  17.485  0.00  0.00    +0.000 A 
ATOM     19  C   UNL     1       6.638   5.053  18.491  0.00  0.00    +0.000 A 
ATOM     20  C   UNL     1       7.471   6.163  18.592  0.00  0.00    +0.000 A 
ATOM     21  C   UNL     1       7.314   7.177  17.664  0.00  0.00    +0.000 A 
ATOM     22 CL   UNL     1       8.314   8.569  17.700  0.00  0.00    +0.000 Cl
ATOM     23  N   UNL     1       6.397   7.166  16.677  0.00  0.00    +0.000 NA
ATOM     24  C   UNL     1       5.594   6.076  16.615  0.00  0.00    +0.000 A 
ENDBRANCH  17  18
ENDBRANCH  16  17
ENDBRANCH   1  16
TORSDOF 5
ENDMDL
MODEL 3
REMARK VINA RESULT:      -8.3      2.955      6.316
REMARK  Name = 
REMARK  5 active torsions:
REMARK  status: ('A' for Active; 'I' for Inactive)
REMARK    1  A    between atoms: C_6  and  C_7
REMARK    2  A    between atoms: C_7  and  C_8
REMARK    3  A    between atoms: C_8  and  C_9
REMARK    4  A    between atoms: C_9  and  O_10
REMARK    5  A    between atoms: O_10  and  C_11
REMARK                            x       y       z     vdW  Elec       q    Type
REMARK                         _______ _______ _______ _____ _____    ______ ____
ROOT
ATOM      1  C   UNL     1       5.448   5.512  16.947  0.00  0.00    +0.000 C 
ATOM      2  C   UNL     1       5.088   5.753  15.464  0.00  0.00    +0.000 C 
ATOM      3  C   UNL     1       5.737   4.727  14.547  0.00  0.00    +0.000 C 
ATOM      4  C   UNL     1       7.253   4.689  14.734  0.00  0.00    +0.000 C 
ATOM      5  N   UNL     1       7.707   4.624  16.120  0.00  0.00    +0.000 NA
ATOM      6  C   UNL     1       7.012   5.546  17.026  0.00  0.00    +0.000 C 
ATOM      7  H   UNL     1       7.659   3.669  16.470  0.00  0.00    +0.000 HD
ENDROOT
BRANCH   1   8
ATOM      8  C   UNL     1       4.987   4.126  17.516  0.00  0.00    +0.000 C 
BRANCH   8  14
ATOM      9 CL   UNL     1       2.201   3.009  21.892  0.00  0.00    +0.000 Cl
ATOM     10  C   UNL     1       2.320   3.347  20.209  0.00  0.00    +0.000 A 
ATOM     11  C   UNL     1       1.156   3.389  19.440  0.00  0.00    +0.000 A 
ATOM     12  C   UNL     1       1.253   3.668  18.082  0.00  0.00    +0.000 A 
ATOM     13  C   UNL     1       2.508   3.892  17.508  0.00  0.00    +0.000 A 
ATOM     14  C   UNL     1       3.698   3.850  18.270  0.00  0.00    +0.000 A 
ATOM     15  C   UNL     1       3.579   3.576  19.634  0.00  0.00    +0.000 A 
ENDBRANCH   8  14
ENDBRANCH   1   8
BRANCH   1  16
ATOM     16  C   UNL     1       4.905   6.709  17.773  0.00  0.00    +0.000 C 
BRANCH  16  17
ATOM     17  O   UNL     1       3.714   7.253  17.200  0.00  0.00    +0.000 OA
BRANCH  17  18
ATOM     18  C   UNL     1       2.830   7.829  18.068  0.00  0.00    +0.000 A 
ATOM     19  C   UNL     1       2.651   7.157  19.280  0.00  0.00    +0.000 A 
ATOM     20  C   UNL     1       1.784   7.672  20.240  0.00  0.00    +0.000 A 
ATOM     21  C   UNL     1       1.133   8.858  19.955  0.00  0.00    +0.000 A 
ATOM     22 CL   UNL     1       0.067   9.575  21.091  0.00  0.00    +0.000 Cl
ATOM     23  N   UNL     1       1.273   9.543  18.803  0.00  0.00    +0.000 NA
ATOM     24  C   UNL     1       2.116   9.008  17.886  0.00  0.00    +0.000 A 
ENDBRANCH  17  18
ENDBRANCH  16  17
ENDBRANCH   1  16
TORSDOF 5
ENDMDL
MODEL 4
REMARK VINA RESULT:      -8.1      1.794      1.938
REMARK  Name = 
REMARK  5 active torsions:
REMARK  status: ('A' for Active; 'I' for Inactive)
REMARK    1  A    between atoms: C_6  and  C_7
REMARK    2  A    between atoms: C_7  and  C_8
REMARK    3  A    between atoms: C_8  and  C_9
REMARK    4  A    between atoms: C_9  and  O_10
REMARK    5  A    between atoms: O_10  and  C_11
REMARK                            x       y       z     vdW  Elec       q    Type
REMARK                         _______ _______ _______ _____ _____    ______ ____
ROOT
ATOM      1  C   UNL     1       2.834   4.064  18.939  0.00  0.00    +0.000 C 
ATOM      2  C   UNL     1       1.315   3.785  18.993  0.00  0.00    +0.000 C 
ATOM      3  C   UNL     1       0.801   3.706  20.422  0.00  0.00    +0.000 C 
ATOM      4  C   UNL     1       1.570   2.666  21.235  0.00  0.00    +0.000 C 
ATOM      5  N   UNL     1       3.023   2.741  21.128  0.00  0.00    +0.000 NA
ATOM      6  C   UNL     1       3.517   2.915  19.756  0.00  0.00    +0.000 C 
ATOM      7  H   UNL     1       3.393   3.465  21.739  0.00  0.00    +0.000 HD
ENDROOT
BRANCH   1   8
ATOM      8  C   UNL     1       3.274   5.420  19.593  0.00  0.00    +0.000 C 
BRANCH   8  14
ATOM      9 CL   UNL     1       0.373   9.436  21.493  0.00  0.00    +0.000 Cl
ATOM     10  C   UNL     1       1.235   8.645  20.232  0.00  0.00    +0.000 A 
ATOM     11  C   UNL     1       1.308   9.251  18.976  0.00  0.00    +0.000 A 
ATOM     12  C   UNL     1       2.010   8.614  17.958  0.00  0.00    +0.000 A 
ATOM     13  C   UNL     1       2.620   7.381  18.204  0.00  0.00    +0.000 A 
ATOM     14  C   UNL     1       2.554   6.750  19.468  0.00  0.00    +0.000 A 
ATOM     15  C   UNL     1       1.851   7.410  20.479  0.00  0.00    +0.000 A 
ENDBRANCH   8  14
ENDBRANCH   1   8
BRANCH   1  16
ATOM     16  C   UNL     1       3.294   3.935  17.463  0.00  0.00    +0.000 C 
BRANCH  16  17
ATOM     17  O   UNL     1       4.693   3.656  17.364  0.00  0.00    +0.000 OA
BRANCH  17  18
ATOM     18  C   UNL     1       5.535   4.727  17.463  0.00  0.00    +0.000 A 
ATOM     19  C   UNL     1       5.259   5.793  16.603  0.00  0.00    +0.000 A 
ATOM     20  C   UNL     1       6.048   6.938  16.637  0.00  0.00    +0.000 A 
ATOM     21  C   UNL     1       7.086   6.983  17.550  0.00  0.00    +0.000 A 
ATOM     22 CL   UNL     1       8.093   8.365  17.676  0.00  0.00    +0.000 Cl
ATOM     23  N   UNL     1       7.392   5.983  18.399  0.00  0.00    +0.000 NA
ATOM     24  C   UNL     1       6.611   4.877  18.332  0.00  0.00    +0.000 A 
ENDBRANCH  17  18
ENDBRANCH  16  17
ENDBRANCH   1  16
TORSDOF 5
ENDMDL
MODEL 5
REMARK VINA RESULT:      -8.1      2.759      6.334
REMARK  Name = 
REMARK  5 active torsions:
REMARK  status: ('A' for Active; 'I' for Inactive)
REMARK    1  A    between atoms: C_6  and  C_7
REMARK    2  A    between atoms: C_7  and  C_8
REMARK    3  A    between atoms: C_8  and  C_9
REMARK    4  A    between atoms: C_9  and  O_10
REMARK    5  A    between atoms: O_10  and  C_11
REMARK                            x       y       z     vdW  Elec       q    Type
REMARK                         _______ _______ _______ _____ _____    ______ ____
ROOT
ATOM      1  C   UNL     1       5.403   5.436  16.982  0.00  0.00    +0.000 C 
ATOM      2  C   UNL     1       5.066   5.724  15.501  0.00  0.00    +0.000 C 
ATOM      3  C   UNL     1       5.720   4.721  14.563  0.00  0.00    +0.000 C 
ATOM      4  C   UNL     1       7.232   4.665  14.771  0.00  0.00    +0.000 C 
ATOM      5  N   UNL     1       7.667   4.554  16.160  0.00  0.00    +0.000 NA
ATOM      6  C   UNL     1       6.966   5.455  17.083  0.00  0.00    +0.000 C 
ATOM      7  H   UNL     1       7.606   3.590  16.480  0.00  0.00    +0.000 HD
ENDROOT
BRANCH   1   8
ATOM      8  C   UNL     1       4.923   4.037  17.502  0.00  0.00    +0.000 C 
BRANCH   8  14
ATOM      9 CL   UNL     1       2.219   2.907  21.926  0.00  0.00    +0.000 Cl
ATOM     10  C   UNL     1       2.307   3.250  20.242  0.00  0.00    +0.000 A 
ATOM     11  C   UNL     1       1.129   3.293  19.494  0.00  0.00    +0.000 A 
ATOM     12  C   UNL     1       1.200   3.575  18.135  0.00  0.00    +0.000 A 
ATOM     13  C   UNL     1       2.444   3.802  17.540  0.00  0.00    +0.000 A 
ATOM     14  C   UNL     1       3.649   3.759  18.279  0.00  0.00    +0.000 A 
ATOM     15  C   UNL     1       3.554   3.482  19.644  0.00  0.00    +0.000 A 
ENDBRANCH   8  14
ENDBRANCH   1   8
BRANCH   1  16
ATOM     16  C   UNL     1       4.858   6.612  17.835  0.00  0.00    +0.000 C 
BRANCH  16  17
ATOM     17  O   UNL     1       3.614   7.104  17.330  0.00  0.00    +0.000 OA
BRANCH  17  18
ATOM     18  C   UNL     1       2.783   7.699  18.236  0.00  0.00    +0.000 A 
ATOM     19  C   UNL     1       2.188   8.891  17.815  0.00  0.00    +0.000 A 
ATOM     20  C   UNL     1       1.311   9.567  18.658  0.00  0.00    +0.000 A 
ATOM     21  C   UNL     1       1.046   9.013  19.897  0.00  0.00    +0.000 A 
ATOM     22 CL   UNL     1      -0.040   9.767  20.988  0.00  0.00    +0.000 Cl
ATOM     23  N   UNL     1       1.594   7.867  20.347  0.00  0.00    +0.000 NA
ATOM     24  C   UNL     1       2.453   7.240  19.507  0.00  0.00    +0.000 A 
ENDBRANCH  17  18
ENDBRANCH  16  17
ENDBRANCH   1  16
TORSDOF 5
ENDMDL
MODEL 6
REMARK VINA RESULT:      -8.0      0.951      1.417
REMARK  Name = 
REMARK  5 active torsions:
REMARK  status: ('A' for Active; 'I' for Inactive)
REMARK    1  A    between atoms: C_6  and  C_7
REMARK    2  A    between atoms: C_7  and  C_8
REMARK    3  A    between atoms: C_8  and  C_9
REMARK    4  A    between atoms: C_9  and  O_10
REMARK    5  A    between atoms: O_10  and  C_11
REMARK                            x       y       z     vdW  Elec       q    Type
REMARK                         _______ _______ _______ _____ _____    ______ ____
ROOT
ATOM      1  C   UNL     1       3.086   4.074  18.966  0.00  0.00    +0.000 C 
ATOM      2  C   UNL     1       1.574   3.851  18.735  0.00  0.00    +0.000 C 
ATOM      3  C   UNL     1       0.808   3.739  20.044  0.00  0.00    +0.000 C 
ATOM      4  C   UNL     1       1.384   2.642  20.937  0.00  0.00    +0.000 C 
ATOM      5  N   UNL     1       2.835   2.665  21.095  0.00  0.00    +0.000 NA
ATOM      6  C   UNL     1       3.573   2.870  19.843  0.00  0.00    +0.000 C 
ATOM      7  H   UNL     1       3.110   3.352  21.793  0.00  0.00    +0.000 HD
ENDROOT
BRANCH   1   8
ATOM      8  C   UNL     1       3.442   5.387  19.746  0.00  0.00    +0.000 C 
BRANCH   8  14
ATOM      9 CL   UNL     1       1.640   9.880  17.572  0.00  0.00    +0.000 Cl
ATOM     10  C   UNL     1       1.738   8.746  18.863  0.00  0.00    +0.000 A 
ATOM     11  C   UNL     1       1.017   8.986  20.034  0.00  0.00    +0.000 A 
ATOM     12  C   UNL     1       1.092   8.067  21.074  0.00  0.00    +0.000 A 
ATOM     13  C   UNL     1       1.890   6.928  20.936  0.00  0.00    +0.000 A 
ATOM     14  C   UNL     1       2.630   6.669  19.759  0.00  0.00    +0.000 A 
ATOM     15  C   UNL     1       2.535   7.600  18.723  0.00  0.00    +0.000 A 
ENDBRANCH   8  14
ENDBRANCH   1   8
BRANCH   1  16
ATOM     16  C   UNL     1       3.801   3.980  17.592  0.00  0.00    +0.000 C 
BRANCH  16  17
ATOM     17  O   UNL     1       5.202   4.241  17.704  0.00  0.00    +0.000 OA
BRANCH  17  18
ATOM     18  C   UNL     1       5.869   4.488  16.537  0.00  0.00    +0.000 A 
ATOM     19  C   UNL     1       5.310   3.918  15.391  0.00  0.00    +0.000 A 
ATOM     20  C   UNL     1       5.905   4.124  14.149  0.00  0.00    +0.000 A 
ATOM     21  C   UNL     1       7.040   4.913  14.098  0.00  0.00    +0.000 A 
ATOM     22 CL   UNL     1       7.822   5.239  12.607  0.00  0.00    +0.000 Cl
ATOM     23  N   UNL     1       7.615   5.484  15.174  0.00  0.00    +0.000 NA
ATOM     24  C   UNL     1       7.018   5.254  16.368  0.00  0.00    +0.000 A 
ENDBRANCH  17  18
ENDBRANCH  16  17
ENDBRANCH   1  16
TORSDOF 5
ENDMDL
MODEL 7
REMARK VINA RESULT:      -7.8      0.605      1.020
REMARK  Name = 
REMARK  5 active torsions:
REMARK  status: ('A' for Active; 'I' for Inactive)
REMARK    1  A    between atoms: C_6  and  C_7
REMARK    2  A    between atoms: C_7  and  C_8
REMARK    3  A    between atoms: C_8  and  C_9
REMARK    4  A    between atoms: C_9  and  O_10
REMARK    5  A    between atoms: O_10  and  C_11
REMARK                            x       y       z     vdW  Elec       q    Type
REMARK                         _______ _______ _______ _____ _____    ______ ____
ROOT
ATOM      1  C   UNL     1       3.012   3.814  19.337  0.00  0.00    +0.000 C 
ATOM      2  C   UNL     1       1.498   3.537  19.201  0.00  0.00    +0.000 C 
ATOM      3  C   UNL     1       0.785   3.602  20.544  0.00  0.00    +0.000 C 
ATOM      4  C   UNL     1       1.418   2.652  21.559  0.00  0.00    +0.000 C 
ATOM      5  N   UNL     1       2.874   2.720  21.652  0.00  0.00    +0.000 NA
ATOM      6  C   UNL     1       3.559   2.756  20.354  0.00  0.00    +0.000 C 
ATOM      7  H   UNL     1       3.161   3.505  22.234  0.00  0.00    +0.000 HD
ENDROOT
BRANCH   1   8
ATOM      8  C   UNL     1       3.370   5.231  19.906  0.00  0.00    +0.000 C 
BRANCH   8  14
ATOM      9 CL   UNL     1       0.409   9.554  20.745  0.00  0.00    +0.000 Cl
ATOM     10  C   UNL     1       1.419   8.569  19.760  0.00  0.00    +0.000 A 
ATOM     11  C   UNL     1       1.720   8.988  18.462  0.00  0.00    +0.000 A 
ATOM     12  C   UNL     1       2.540   8.194  17.669  0.00  0.00    +0.000 A 
ATOM     13  C   UNL     1       3.041   6.992  18.176  0.00  0.00    +0.000 A 
ATOM     14  C   UNL     1       2.746   6.549  19.486  0.00  0.00    +0.000 A 
ATOM     15  C   UNL     1       1.926   7.365  20.269  0.00  0.00    +0.000 A 
ENDBRANCH   8  14
ENDBRANCH   1   8
BRANCH   1  16
ATOM     16  C   UNL     1       3.676   3.537  17.962  0.00  0.00    +0.000 C 
BRANCH  16  17
ATOM     17  O   UNL     1       5.062   3.884  17.961  0.00  0.00    +0.000 OA
BRANCH  17  18
ATOM     18  C   UNL     1       5.610   4.196  16.749  0.00  0.00    +0.000 A 
ATOM     19  C   UNL     1       6.942   4.618  16.780  0.00  0.00    +0.000 A 
ATOM     20  C   UNL     1       7.597   4.943  15.596  0.00  0.00    +0.000 A 
ATOM     21  C   UNL     1       6.895   4.820  14.411  0.00  0.00    +0.000 A 
ATOM     22 CL   UNL     1       7.632   5.176  12.906  0.00  0.00    +0.000 Cl
ATOM     23  N   UNL     1       5.611   4.418  14.330  0.00  0.00    +0.000 NA
ATOM     24  C   UNL     1       4.999   4.120  15.502  0.00  0.00    +0.000 A 
ENDBRANCH  17  18
ENDBRANCH  16  17
ENDBRANCH   1  16
TORSDOF 5
ENDMDL
MODEL 8
REMARK VINA RESULT:      -7.8      2.230      2.902
REMARK  Name = 
REMARK  5 active torsions:
REMARK  status: ('A' for Active; 'I' for Inactive)
REMARK    1  A    between atoms: C_6  and  C_7
REMARK    2  A    between atoms: C_7  and  C_8
REMARK    3  A    between atoms: C_8  and  C_9
REMARK    4  A    between atoms: C_9  and  O_10
REMARK    5  A    between atoms: O_10  and  C_11
REMARK                            x       y       z     vdW  Elec       q    Type
REMARK                         _______ _______ _______ _____ _____    ______ ____
ROOT
ATOM      1  C   UNL     1       3.484   3.959  18.083  0.00  0.00    +0.000 C 
ATOM      2  C   UNL     1       2.065   3.889  17.475  0.00  0.00    +0.000 C 
ATOM      3  C   UNL     1       1.023   3.481  18.506  0.00  0.00    +0.000 C 
ATOM      4  C   UNL     1       1.389   2.157  19.175  0.00  0.00    +0.000 C 
ATOM      5  N   UNL     1       2.766   2.057  19.647  0.00  0.00    +0.000 NA
ATOM      6  C   UNL     1       3.767   2.543  18.689  0.00  0.00    +0.000 C 
ATOM      7  H   UNL     1       2.873   2.520  20.547  0.00  0.00    +0.000 HD
ENDROOT
BRANCH   1   8
ATOM      8  C   UNL     1       3.648   5.000  19.245  0.00  0.00    +0.000 C 
BRANCH   8  14
ATOM      9 CL   UNL     1       1.947   9.791  17.725  0.00  0.00    +0.000 Cl
ATOM     10  C   UNL     1       1.994   8.473  18.830  0.00  0.00    +0.000 A 
ATOM     11  C   UNL     1       1.234   8.538  19.999  0.00  0.00    +0.000 A 
ATOM     12  C   UNL     1       1.268   7.471  20.888  0.00  0.00    +0.000 A 
ATOM     13  C   UNL     1       2.064   6.358  20.604  0.00  0.00    +0.000 A 
ATOM     14  C   UNL     1       2.843   6.274  19.427  0.00  0.00    +0.000 A 
ATOM     15  C   UNL     1       2.789   7.353  18.543  0.00  0.00    +0.000 A 
ENDBRANCH   8  14
ENDBRANCH   1   8
BRANCH   1  16
ATOM     16  C   UNL     1       4.491   4.190  16.926  0.00  0.00    +0.000 C 
BRANCH  16  17
ATOM     17  O   UNL     1       5.843   4.190  17.390  0.00  0.00    +0.000 OA
BRANCH  17  18
ATOM     18  C   UNL     1       6.438   5.412  17.531  0.00  0.00    +0.000 A 
ATOM     19  C   UNL     1       7.391   5.504  18.549  0.00  0.00    +0.000 A 
ATOM     20  C   UNL     1       8.066   6.702  18.764  0.00  0.00    +0.000 A 
ATOM     21  C   UNL     1       7.772   7.769  17.935  0.00  0.00    +0.000 A 
ATOM     22 CL   UNL     1       8.575   9.274  18.114  0.00  0.00    +0.000 Cl
ATOM     23  N   UNL     1       6.863   7.729  16.941  0.00  0.00    +0.000 NA
ATOM     24  C   UNL     1       6.215   6.552  16.766  0.00  0.00    +0.000 A 
ENDBRANCH  17  18
ENDBRANCH  16  17
ENDBRANCH   1  16
TORSDOF 5
ENDMDL
MODEL 9
REMARK VINA RESULT:      -7.8      1.991      2.380
REMARK  Name = 
REMARK  5 active torsions:
REMARK  status: ('A' for Active; 'I' for Inactive)
REMARK    1  A    between atoms: C_6  and  C_7
REMARK    2  A    between atoms: C_7  and  C_8
REMARK    3  A    between atoms: C_8  and  C_9
REMARK    4  A    between atoms: C_9  and  O_10
REMARK    5  A    between atoms: O_10  and  C_11
REMARK                            x       y       z     vdW  Elec       q    Type
REMARK                         _______ _______ _______ _____ _____    ______ ____
ROOT
ATOM      1  C   UNL     1       2.837   4.102  18.923  0.00  0.00    +0.000 C 
ATOM      2  C   UNL     1       1.316   3.830  18.917  0.00  0.00    +0.000 C 
ATOM      3  C   UNL     1       0.764   3.646  20.323  0.00  0.00    +0.000 C 
ATOM      4  C   UNL     1       1.507   2.542  21.073  0.00  0.00    +0.000 C 
ATOM      5  N   UNL     1       2.963   2.614  21.008  0.00  0.00    +0.000 NA
ATOM      6  C   UNL     1       3.492   2.889  19.666  0.00  0.00    +0.000 C 
ATOM      7  H   UNL     1       3.321   3.287  21.682  0.00  0.00    +0.000 HD
ENDROOT
BRANCH   1   8
ATOM      8  C   UNL     1       3.267   5.401  19.688  0.00  0.00    +0.000 C 
BRANCH   8  14
ATOM      9 CL   UNL     1       1.663  10.010  17.605  0.00  0.00    +0.000 Cl
ATOM     10  C   UNL     1       1.704   8.844  18.869  0.00  0.00    +0.000 A 
ATOM     11  C   UNL     1       0.981   9.084  20.039  0.00  0.00    +0.000 A 
ATOM     12  C   UNL     1       1.010   8.139  21.058  0.00  0.00    +0.000 A 
ATOM     13  C   UNL     1       1.764   6.974  20.900  0.00  0.00    +0.000 A 
ATOM     14  C   UNL     1       2.505   6.713  19.725  0.00  0.00    +0.000 A 
ATOM     15  C   UNL     1       2.457   7.671  18.710  0.00  0.00    +0.000 A 
ENDBRANCH   8  14
ENDBRANCH   1   8
BRANCH   1  16
ATOM     16  C   UNL     1       3.334   4.081  17.453  0.00  0.00    +0.000 C 
BRANCH  16  17
ATOM     17  O   UNL     1       4.728   3.776  17.367  0.00  0.00    +0.000 OA
BRANCH  17  18
ATOM     18  C   UNL     1       5.589   4.830  17.481  0.00  0.00    +0.000 A 
ATOM     19  C   UNL     1       5.227   5.983  16.782  0.00  0.00    +0.000 A 
ATOM     20  C   UNL     1       6.029   7.119  16.846  0.00  0.00    +0.000 A 
ATOM     21  C   UNL     1       7.169   7.062  17.628  0.00  0.00    +0.000 A 
ATOM     22 CL   UNL     1       8.201   8.422  17.783  0.00  0.00    +0.000 Cl
ATOM     23  N   UNL     1       7.561   5.975  18.320  0.00  0.00    +0.000 NA
ATOM     24  C   UNL     1       6.763   4.883  18.226  0.00  0.00    +0.000 A 
ENDBRANCH  17  18
ENDBRANCH  16  17
ENDBRANCH   1  16
TORSDOF 5
ENDMDL
