MODEL 1
REMARK VINA RESULT:      -6.1      0.000      0.000
REMARK  Name = 
REMARK  7 active torsions:
REMARK  status: ('A' for Active; 'I' for Inactive)
REMARK    1  A    between atoms: C_1  and  O_2
REMARK    2  A    between atoms: O_2  and  C_3
REMARK    3  A    between atoms: C_3  and  C_5
REMARK    4  A    between atoms: C_6  and  C_7
REMARK    5  A    between atoms: C_9  and  N_10
REMARK    6  A    between atoms: C_11  and  C_12
REMARK    7  A    between atoms: C_14  and  C_15
REMARK                            x       y       z     vdW  Elec       q    Type
REMARK                         _______ _______ _______ _____ _____    ______ ____
ROOT
ATOM      1  C   UNL     1       2.773   5.981  18.976  0.00  0.00    +0.000 C 
ATOM      2  C   UNL     1       2.181   6.100  20.182  0.00  0.00    +0.000 C 
ATOM      3  C   UNL     1       1.635   7.346  20.820  0.00  0.00    +0.000 C 
ATOM      4  O   UNL     1       1.959   4.994  20.992  0.00  0.00    +0.000 OA
ATOM      5  C   UNL     1       2.470   3.751  20.657  0.00  0.00    +0.000 C 
ATOM      6  C   UNL     1       2.977   3.507  19.435  0.00  0.00    +0.000 C 
ATOM      7  C   UNL     1       3.081   4.614  18.391  0.00  0.00    +0.000 C 
ENDROOT
BRANCH   7   8
ATOM      8  C   UNL     1       4.421   4.557  17.667  0.00  0.00    +0.000 A 
ATOM      9  C   UNL     1       4.609   4.391  16.253  0.00  0.00    +0.000 A 
ATOM     10  C   UNL     1       5.937   4.437  15.886  0.00  0.00    +0.000 A 
ATOM     11  S   UNL     1       6.968   4.660  17.227  0.00  0.00    +0.000 S 
ATOM     12  C   UNL     1       5.644   4.707  18.304  0.00  0.00    +0.000 A 
ENDBRANCH   7   8
BRANCH   5  13
ATOM     13  N   UNL     1       2.376   2.853  21.693  0.00  0.00    +0.000 N 
ATOM     14  H   UNL     1       2.724   1.929  21.451  0.00  0.00    +0.000 HD
ATOM     15  H   UNL     1       2.667   3.179  22.612  0.00  0.00    +0.000 HD
ENDBRANCH   5  13
BRANCH   1  16
ATOM     16  C   UNL     1       3.067   7.154  18.118  0.00  0.00    +0.000 C 
ATOM     17  O   UNL     1       4.196   7.550  17.879  0.00  0.00    +0.000 OA
BRANCH  16  19
ATOM     18  C   UNL     1       1.881   9.156  17.731  0.00  0.00    +0.000 C 
ATOM     19  O   UNL     1       1.910   7.729  17.705  0.00  0.00    +0.000 OA
ENDBRANCH  16  19
ENDBRANCH   1  16
BRANCH   6  20
ATOM     20  C   UNL     1       3.421   2.197  19.094  0.00  0.00    +0.000 C 
ATOM     21  N   UNL     1       3.746   1.125  18.795  0.00  0.00    +0.000 NA
ENDBRANCH   6  20
TORSDOF 5
ENDMDL
MODEL 2
REMARK VINA RESULT:      -6.1      3.093      4.895
REMARK  Name = 
REMARK  7 active torsions:
REMARK  status: ('A' for Active; 'I' for Inactive)
REMARK    1  A    between atoms: C_1  and  O_2
REMARK    2  A    between atoms: O_2  and  C_3
REMARK    3  A    between atoms: C_3  and  C_5
REMARK    4  A    between atoms: C_6  and  C_7
REMARK    5  A    between atoms: C_9  and  N_10
REMARK    6  A    between atoms: C_11  and  C_12
REMARK    7  A    between atoms: C_14  and  C_15
REMARK                            x       y       z     vdW  Elec       q    Type
REMARK                         _______ _______ _______ _____ _____    ______ ____
ROOT
ATOM      1  C   UNL     1       3.211   4.171  18.085  0.00  0.00    +0.000 C 
ATOM      2  C   UNL     1       4.020   3.135  18.390  0.00  0.00    +0.000 C 
ATOM      3  C   UNL     1       3.621   1.733  18.754  0.00  0.00    +0.000 C 
ATOM      4  O   UNL     1       5.402   3.258  18.348  0.00  0.00    +0.000 OA
ATOM      5  C   UNL     1       6.002   4.488  18.137  0.00  0.00    +0.000 C 
ATOM      6  C   UNL     1       5.293   5.553  17.721  0.00  0.00    +0.000 C 
ATOM      7  C   UNL     1       3.781   5.468  17.537  0.00  0.00    +0.000 C 
ENDROOT
BRANCH   7   8
ATOM      8  C   UNL     1       3.093   6.709  18.092  0.00  0.00    +0.000 A 
ATOM      9  C   UNL     1       2.672   7.851  17.330  0.00  0.00    +0.000 A 
ATOM     10  C   UNL     1       2.025   8.793  18.100  0.00  0.00    +0.000 A 
ATOM     11  S   UNL     1       1.932   8.329  19.740  0.00  0.00    +0.000 S 
ATOM     12  C   UNL     1       2.747   6.862  19.426  0.00  0.00    +0.000 A 
ENDBRANCH   7   8
BRANCH   5  13
ATOM     13  N   UNL     1       7.353   4.459  18.390  0.00  0.00    +0.000 N 
ATOM     14  H   UNL     1       7.813   5.345  18.197  0.00  0.00    +0.000 HD
ATOM     15  H   UNL     1       7.649   4.019  19.258  0.00  0.00    +0.000 HD
ENDBRANCH   5  13
BRANCH   1  16
ATOM     16  C   UNL     1       1.734   4.077  18.173  0.00  0.00    +0.000 C 
ATOM     17  O   UNL     1       1.002   4.023  17.198  0.00  0.00    +0.000 OA
BRANCH  16  19
ATOM     18  C   UNL     1       0.617   2.979  19.937  0.00  0.00    +0.000 C 
ATOM     19  O   UNL     1       1.343   4.117  19.471  0.00  0.00    +0.000 OA
ENDBRANCH  16  19
ENDBRANCH   1  16
BRANCH   6  20
ATOM     20  C   UNL     1       5.952   6.783  17.434  0.00  0.00    +0.000 C 
ATOM     21  N   UNL     1       6.524   7.763  17.198  0.00  0.00    +0.000 NA
ENDBRANCH   6  20
TORSDOF 5
ENDMDL
MODEL 3
REMARK VINA RESULT:      -6.0      2.662      4.255
REMARK  Name = 
REMARK  7 active torsions:
REMARK  status: ('A' for Active; 'I' for Inactive)
REMARK    1  A    between atoms: C_1  and  O_2
REMARK    2  A    between atoms: O_2  and  C_3
REMARK    3  A    between atoms: C_3  and  C_5
REMARK    4  A    between atoms: C_6  and  C_7
REMARK    5  A    between atoms: C_9  and  N_10
REMARK    6  A    between atoms: C_11  and  C_12
REMARK    7  A    between atoms: C_14  and  C_15
REMARK                            x       y       z     vdW  Elec       q    Type
REMARK                         _______ _______ _______ _____ _____    ______ ____
ROOT
ATOM      1  C   UNL     1       3.228   5.948  18.953  0.00  0.00    +0.000 C 
ATOM      2  C   UNL     1       3.172   7.062  18.193  0.00  0.00    +0.000 C 
ATOM      3  C   UNL     1       2.021   8.016  18.043  0.00  0.00    +0.000 C 
ATOM      4  O   UNL     1       4.268   7.493  17.459  0.00  0.00    +0.000 OA
ATOM      5  C   UNL     1       5.411   6.717  17.360  0.00  0.00    +0.000 C 
ATOM      6  C   UNL     1       5.606   5.652  18.158  0.00  0.00    +0.000 C 
ATOM      7  C   UNL     1       4.539   5.208  19.154  0.00  0.00    +0.000 C 
ENDROOT
BRANCH   7   8
ATOM      8  C   UNL     1       4.381   3.693  19.147  0.00  0.00    +0.000 A 
ATOM      9  C   UNL     1       4.534   2.824  20.279  0.00  0.00    +0.000 A 
ATOM     10  C   UNL     1       4.273   1.505  19.976  0.00  0.00    +0.000 A 
ATOM     11  S   UNL     1       3.860   1.293  18.333  0.00  0.00    +0.000 S 
ATOM     12  C   UNL     1       4.020   2.965  18.023  0.00  0.00    +0.000 A 
ENDBRANCH   7   8
BRANCH   5  13
ATOM     13  N   UNL     1       6.271   7.177  16.392  0.00  0.00    +0.000 N 
ATOM     14  H   UNL     1       6.476   6.481  15.679  0.00  0.00    +0.000 HD
ATOM     15  H   UNL     1       6.094   8.109  16.025  0.00  0.00    +0.000 HD
ENDBRANCH   5  13
BRANCH   1  16
ATOM     16  C   UNL     1       2.054   5.441  19.704  0.00  0.00    +0.000 C 
ATOM     17  O   UNL     1       1.803   5.754  20.856  0.00  0.00    +0.000 OA
BRANCH  16  19
ATOM     18  C   UNL     1       0.788   3.452  19.641  0.00  0.00    +0.000 C 
ATOM     19  O   UNL     1       1.362   4.557  18.942  0.00  0.00    +0.000 OA
ENDBRANCH  16  19
ENDBRANCH   1  16
BRANCH   6  20
ATOM     20  C   UNL     1       6.827   4.922  18.090  0.00  0.00    +0.000 C 
ATOM     21  N   UNL     1       7.838   4.358  18.011  0.00  0.00    +0.000 NA
ENDBRANCH   6  20
TORSDOF 5
ENDMDL
MODEL 4
REMARK VINA RESULT:      -5.9      3.137      4.941
REMARK  Name = 
REMARK  7 active torsions:
REMARK  status: ('A' for Active; 'I' for Inactive)
REMARK    1  A    between atoms: C_1  and  O_2
REMARK    2  A    between atoms: O_2  and  C_3
REMARK    3  A    between atoms: C_3  and  C_5
REMARK    4  A    between atoms: C_6  and  C_7
REMARK    5  A    between atoms: C_9  and  N_10
REMARK    6  A    between atoms: C_11  and  C_12
REMARK    7  A    between atoms: C_14  and  C_15
REMARK                            x       y       z     vdW  Elec       q    Type
REMARK                         _______ _______ _______ _____ _____    ______ ____
ROOT
ATOM      1  C   UNL     1       3.361   4.261  18.405  0.00  0.00    +0.000 C 
ATOM      2  C   UNL     1       4.220   3.322  18.855  0.00  0.00    +0.000 C 
ATOM      3  C   UNL     1       3.895   1.950  19.373  0.00  0.00    +0.000 C 
ATOM      4  O   UNL     1       5.592   3.529  18.837  0.00  0.00    +0.000 OA
ATOM      5  C   UNL     1       6.123   4.762  18.497  0.00  0.00    +0.000 C 
ATOM      6  C   UNL     1       5.366   5.722  17.936  0.00  0.00    +0.000 C 
ATOM      7  C   UNL     1       3.869   5.518  17.722  0.00  0.00    +0.000 C 
ENDROOT
BRANCH   7   8
ATOM      8  C   UNL     1       3.087   6.768  18.104  0.00  0.00    +0.000 A 
ATOM      9  C   UNL     1       2.655   7.121  19.428  0.00  0.00    +0.000 A 
ATOM     10  C   UNL     1       2.018   8.342  19.470  0.00  0.00    +0.000 A 
ATOM     11  S   UNL     1       1.916   9.068  17.929  0.00  0.00    +0.000 S 
ATOM     12  C   UNL     1       2.731   7.757  17.199  0.00  0.00    +0.000 A 
ENDBRANCH   7   8
BRANCH   5  13
ATOM     13  N   UNL     1       7.464   4.851  18.790  0.00  0.00    +0.000 N 
ATOM     14  H   UNL     1       7.893   3.947  18.966  0.00  0.00    +0.000 HD
ATOM     15  H   UNL     1       8.022   5.469  18.205  0.00  0.00    +0.000 HD
ENDBRANCH   5  13
BRANCH   1  16
ATOM     16  C   UNL     1       1.890   4.082  18.463  0.00  0.00    +0.000 C 
ATOM     17  O   UNL     1       1.200   3.847  17.484  0.00  0.00    +0.000 OA
BRANCH  16  19
ATOM     18  C   UNL     1       0.828   3.145  20.350  0.00  0.00    +0.000 C 
ATOM     19  O   UNL     1       1.448   4.273  19.730  0.00  0.00    +0.000 OA
ENDBRANCH  16  19
ENDBRANCH   1  16
BRANCH   6  20
ATOM     20  C   UNL     1       5.958   6.950  17.523  0.00  0.00    +0.000 C 
ATOM     21  N   UNL     1       6.471   7.942  17.213  0.00  0.00    +0.000 NA
ENDBRANCH   6  20
TORSDOF 5
ENDMDL
MODEL 5
REMARK VINA RESULT:      -5.9      3.055      4.818
REMARK  Name = 
REMARK  7 active torsions:
REMARK  status: ('A' for Active; 'I' for Inactive)
REMARK    1  A    between atoms: C_1  and  O_2
REMARK    2  A    between atoms: O_2  and  C_3
REMARK    3  A    between atoms: C_3  and  C_5
REMARK    4  A    between atoms: C_6  and  C_7
REMARK    5  A    between atoms: C_9  and  N_10
REMARK    6  A    between atoms: C_11  and  C_12
REMARK    7  A    between atoms: C_14  and  C_15
REMARK                            x       y       z     vdW  Elec       q    Type
REMARK                         _______ _______ _______ _____ _____    ______ ____
ROOT
ATOM      1  C   UNL     1       3.195   4.328  19.210  0.00  0.00    +0.000 C 
ATOM      2  C   UNL     1       4.115   3.474  19.706  0.00  0.00    +0.000 C 
ATOM      3  C   UNL     1       3.878   2.254  20.550  0.00  0.00    +0.000 C 
ATOM      4  O   UNL     1       5.466   3.625  19.426  0.00  0.00    +0.000 OA
ATOM      5  C   UNL     1       5.935   4.739  18.751  0.00  0.00    +0.000 C 
ATOM      6  C   UNL     1       5.096   5.586  18.126  0.00  0.00    +0.000 C 
ATOM      7  C   UNL     1       3.585   5.394  18.202  0.00  0.00    +0.000 C 
ENDROOT
BRANCH   7   8
ATOM      8  C   UNL     1       2.877   6.724  18.429  0.00  0.00    +0.000 A 
ATOM      9  C   UNL     1       2.429   7.627  17.406  0.00  0.00    +0.000 A 
ATOM     10  C   UNL     1       1.769   8.723  17.917  0.00  0.00    +0.000 A 
ATOM     11  S   UNL     1       1.695   8.692  19.622  0.00  0.00    +0.000 S 
ATOM     12  C   UNL     1       2.536   7.207  19.684  0.00  0.00    +0.000 A 
ENDBRANCH   7   8
BRANCH   5  13
ATOM     13  N   UNL     1       7.305   4.841  18.799  0.00  0.00    +0.000 N 
ATOM     14  H   UNL     1       7.642   5.780  18.603  0.00  0.00    +0.000 HD
ATOM     15  H   UNL     1       7.772   4.386  19.581  0.00  0.00    +0.000 HD
ENDBRANCH   5  13
BRANCH   1  16
ATOM     16  C   UNL     1       1.753   4.217  19.538  0.00  0.00    +0.000 C 
ATOM     17  O   UNL     1       1.280   4.534  20.618  0.00  0.00    +0.000 OA
BRANCH  16  19
ATOM     18  C   UNL     1       0.711   2.297  18.647  0.00  0.00    +0.000 C 
ATOM     19  O   UNL     1       1.080   3.668  18.496  0.00  0.00    +0.000 OA
ENDBRANCH  16  19
ENDBRANCH   1  16
BRANCH   6  20
ATOM     20  C   UNL     1       5.613   6.678  17.372  0.00  0.00    +0.000 C 
ATOM     21  N   UNL     1       6.073   7.550  16.761  0.00  0.00    +0.000 NA
ENDBRANCH   6  20
TORSDOF 5
ENDMDL
MODEL 6
REMARK VINA RESULT:      -5.9      2.496      4.364
REMARK  Name = 
REMARK  7 active torsions:
REMARK  status: ('A' for Active; 'I' for Inactive)
REMARK    1  A    between atoms: C_1  and  O_2
REMARK    2  A    between atoms: O_2  and  C_3
REMARK    3  A    between atoms: C_3  and  C_5
REMARK    4  A    between atoms: C_6  and  C_7
REMARK    5  A    between atoms: C_9  and  N_10
REMARK    6  A    between atoms: C_11  and  C_12
REMARK    7  A    between atoms: C_14  and  C_15
REMARK                            x       y       z     vdW  Elec       q    Type
REMARK                         _______ _______ _______ _____ _____    ______ ____
ROOT
ATOM      1  C   UNL     1       4.691   5.239  17.357  0.00  0.00    +0.000 C 
ATOM      2  C   UNL     1       4.856   4.074  16.695  0.00  0.00    +0.000 C 
ATOM      3  C   UNL     1       5.868   3.756  15.632  0.00  0.00    +0.000 C 
ATOM      4  O   UNL     1       4.079   2.961  16.984  0.00  0.00    +0.000 OA
ATOM      5  C   UNL     1       3.008   3.046  17.859  0.00  0.00    +0.000 C 
ATOM      6  C   UNL     1       2.828   4.123  18.645  0.00  0.00    +0.000 C 
ATOM      7  C   UNL     1       3.755   5.331  18.549  0.00  0.00    +0.000 C 
ENDROOT
BRANCH   7   8
ATOM      8  C   UNL     1       2.963   6.632  18.592  0.00  0.00    +0.000 A 
ATOM      9  C   UNL     1       2.492   7.371  17.454  0.00  0.00    +0.000 A 
ATOM     10  C   UNL     1       1.754   8.479  17.810  0.00  0.00    +0.000 A 
ATOM     11  S   UNL     1       1.632   8.655  19.503  0.00  0.00    +0.000 S 
ATOM     12  C   UNL     1       2.558   7.245  19.769  0.00  0.00    +0.000 A 
ENDBRANCH   7   8
BRANCH   5  13
ATOM     13  N   UNL     1       2.210   1.928  17.816  0.00  0.00    +0.000 N 
ATOM     14  H   UNL     1       1.889   1.703  16.878  0.00  0.00    +0.000 HD
ATOM     15  H   UNL     1       2.520   1.121  18.353  0.00  0.00    +0.000 HD
ENDBRANCH   5  13
BRANCH   1  16
ATOM     16  C   UNL     1       5.473   6.454  17.028  0.00  0.00    +0.000 C 
ATOM     17  O   UNL     1       5.326   7.095  16.000  0.00  0.00    +0.000 OA
BRANCH  16  19
ATOM     18  C   UNL     1       7.547   7.425  17.596  0.00  0.00    +0.000 C 
ATOM     19  O   UNL     1       6.388   6.694  18.000  0.00  0.00    +0.000 OA
ENDBRANCH  16  19
ENDBRANCH   1  16
BRANCH   6  20
ATOM     20  C   UNL     1       1.764   4.147  19.592  0.00  0.00    +0.000 C 
ATOM     21  N   UNL     1       0.887   4.128  20.350  0.00  0.00    +0.000 NA
ENDBRANCH   6  20
TORSDOF 5
ENDMDL
MODEL 7
REMARK VINA RESULT:      -5.5      3.021      4.788
REMARK  Name = 
REMARK  7 active torsions:
REMARK  status: ('A' for Active; 'I' for Inactive)
REMARK    1  A    between atoms: C_1  and  O_2
REMARK    2  A    between atoms: O_2  and  C_3
REMARK    3  A    between atoms: C_3  and  C_5
REMARK    4  A    between atoms: C_6  and  C_7
REMARK    5  A    between atoms: C_9  and  N_10
REMARK    6  A    between atoms: C_11  and  C_12
REMARK    7  A    between atoms: C_14  and  C_15
REMARK                            x       y       z     vdW  Elec       q    Type
REMARK                         _______ _______ _______ _____ _____    ______ ____
ROOT
ATOM      1  C   UNL     1       5.916   5.473  17.340  0.00  0.00    +0.000 C 
ATOM      2  C   UNL     1       6.053   6.814  17.391  0.00  0.00    +0.000 C 
ATOM      3  C   UNL     1       7.319   7.614  17.276  0.00  0.00    +0.000 C 
ATOM      4  O   UNL     1       4.952   7.650  17.519  0.00  0.00    +0.000 OA
ATOM      5  C   UNL     1       3.687   7.134  17.746  0.00  0.00    +0.000 C 
ATOM      6  C   UNL     1       3.429   5.821  17.606  0.00  0.00    +0.000 C 
ATOM      7  C   UNL     1       4.540   4.833  17.265  0.00  0.00    +0.000 C 
ENDROOT
BRANCH   7   8
ATOM      8  C   UNL     1       4.420   3.566  18.102  0.00  0.00    +0.000 A 
ATOM      9  C   UNL     1       4.717   3.448  19.502  0.00  0.00    +0.000 A 
ATOM     10  C   UNL     1       4.456   2.189  19.996  0.00  0.00    +0.000 A 
ATOM     11  S   UNL     1       3.873   1.132  18.789  0.00  0.00    +0.000 S 
ATOM     12  C   UNL     1       3.957   2.357  17.602  0.00  0.00    +0.000 A 
ENDBRANCH   7   8
BRANCH   5  13
ATOM     13  N   UNL     1       2.784   8.106  18.104  0.00  0.00    +0.000 N 
ATOM     14  H   UNL     1       1.969   8.135  17.497  0.00  0.00    +0.000 HD
ATOM     15  H   UNL     1       2.567   8.190  19.095  0.00  0.00    +0.000 HD
ENDBRANCH   5  13
BRANCH   1  16
ATOM     16  C   UNL     1       7.080   4.559  17.257  0.00  0.00    +0.000 C 
ATOM     17  O   UNL     1       7.910   4.440  18.144  0.00  0.00    +0.000 OA
BRANCH  16  19
ATOM     18  C   UNL     1       7.172   4.805  14.912  0.00  0.00    +0.000 C 
ATOM     19  O   UNL     1       7.102   3.943  16.049  0.00  0.00    +0.000 OA
ENDBRANCH  16  19
ENDBRANCH   1  16
BRANCH   6  20
ATOM     20  C   UNL     1       2.101   5.332  17.768  0.00  0.00    +0.000 C 
ATOM     21  N   UNL     1       1.028   4.905  17.871  0.00  0.00    +0.000 NA
ENDBRANCH   6  20
TORSDOF 5
ENDMDL
MODEL 8
REMARK VINA RESULT:      -5.5      2.636      4.152
REMARK  Name = 
REMARK  7 active torsions:
REMARK  status: ('A' for Active; 'I' for Inactive)
REMARK    1  A    between atoms: C_1  and  O_2
REMARK    2  A    between atoms: O_2  and  C_3
REMARK    3  A    between atoms: C_3  and  C_5
REMARK    4  A    between atoms: C_6  and  C_7
REMARK    5  A    between atoms: C_9  and  N_10
REMARK    6  A    between atoms: C_11  and  C_12
REMARK    7  A    between atoms: C_14  and  C_15
REMARK                            x       y       z     vdW  Elec       q    Type
REMARK                         _______ _______ _______ _____ _____    ______ ____
ROOT
ATOM      1  C   UNL     1       3.285   6.040  18.811  0.00  0.00    +0.000 C 
ATOM      2  C   UNL     1       3.292   7.150  18.044  0.00  0.00    +0.000 C 
ATOM      3  C   UNL     1       2.171   8.126  17.829  0.00  0.00    +0.000 C 
ATOM      4  O   UNL     1       4.433   7.553  17.365  0.00  0.00    +0.000 OA
ATOM      5  C   UNL     1       5.563   6.753  17.330  0.00  0.00    +0.000 C 
ATOM      6  C   UNL     1       5.694   5.689  18.142  0.00  0.00    +0.000 C 
ATOM      7  C   UNL     1       4.568   5.274  19.084  0.00  0.00    +0.000 C 
ENDROOT
BRANCH   7   8
ATOM      8  C   UNL     1       4.379   3.762  19.076  0.00  0.00    +0.000 A 
ATOM      9  C   UNL     1       4.564   2.883  20.197  0.00  0.00    +0.000 A 
ATOM     10  C   UNL     1       4.262   1.572  19.899  0.00  0.00    +0.000 A 
ATOM     11  S   UNL     1       3.773   1.378  18.275  0.00  0.00    +0.000 S 
ATOM     12  C   UNL     1       3.953   3.048  17.966  0.00  0.00    +0.000 A 
ENDBRANCH   7   8
BRANCH   5  13
ATOM     13  N   UNL     1       6.482   7.188  16.405  0.00  0.00    +0.000 N 
ATOM     14  H   UNL     1       6.537   6.588  15.586  0.00  0.00    +0.000 HD
ATOM     15  H   UNL     1       6.484   8.183  16.193  0.00  0.00    +0.000 HD
ENDBRANCH   5  13
BRANCH   1  16
ATOM     16  C   UNL     1       2.064   5.562  19.503  0.00  0.00    +0.000 C 
ATOM     17  O   UNL     1       1.197   4.896  18.960  0.00  0.00    +0.000 OA
BRANCH  16  19
ATOM     18  C   UNL     1       1.164   7.118  21.031  0.00  0.00    +0.000 C 
ATOM     19  O   UNL     1       2.043   6.021  20.779  0.00  0.00    +0.000 OA
ENDBRANCH  16  19
ENDBRANCH   1  16
BRANCH   6  20
ATOM     20  C   UNL     1       6.901   4.933  18.141  0.00  0.00    +0.000 C 
ATOM     21  N   UNL     1       7.895   4.335  18.103  0.00  0.00    +0.000 NA
ENDBRANCH   6  20
TORSDOF 5
ENDMDL
MODEL 9
REMARK VINA RESULT:      -5.4      2.530      4.174
REMARK  Name = 
REMARK  7 active torsions:
REMARK  status: ('A' for Active; 'I' for Inactive)
REMARK    1  A    between atoms: C_1  and  O_2
REMARK    2  A    between atoms: O_2  and  C_3
REMARK    3  A    between atoms: C_3  and  C_5
REMARK    4  A    between atoms: C_6  and  C_7
REMARK    5  A    between atoms: C_9  and  N_10
REMARK    6  A    between atoms: C_11  and  C_12
REMARK    7  A    between atoms: C_14  and  C_15
REMARK                            x       y       z     vdW  Elec       q    Type
REMARK                         _______ _______ _______ _____ _____    ______ ____
ROOT
ATOM      1  C   UNL     1       4.566   5.227  17.297  0.00  0.00    +0.000 C 
ATOM      2  C   UNL     1       4.643   6.572  17.387  0.00  0.00    +0.000 C 
ATOM      3  C   UNL     1       5.640   7.483  16.728  0.00  0.00    +0.000 C 
ATOM      4  O   UNL     1       3.713   7.302  18.114  0.00  0.00    +0.000 OA
ATOM      5  C   UNL     1       2.760   6.669  18.894  0.00  0.00    +0.000 C 
ATOM      6  C   UNL     1       2.533   5.347  18.789  0.00  0.00    +0.000 C 
ATOM      7  C   UNL     1       3.372   4.476  17.859  0.00  0.00    +0.000 C 
ENDROOT
BRANCH   7   8
ATOM      8  C   UNL     1       3.751   3.164  18.534  0.00  0.00    +0.000 A 
ATOM      9  C   UNL     1       3.447   1.847  18.048  0.00  0.00    +0.000 A 
ATOM     10  C   UNL     1       3.971   0.853  18.846  0.00  0.00    +0.000 A 
ATOM     11  S   UNL     1       4.814   1.484  20.190  0.00  0.00    +0.000 S 
ATOM     12  C   UNL     1       4.490   3.089  19.705  0.00  0.00    +0.000 A 
ENDBRANCH   7   8
BRANCH   5  13
ATOM     13  N   UNL     1       2.109   7.541  19.733  0.00  0.00    +0.000 N 
ATOM     14  H   UNL     1       2.546   7.613  20.648  0.00  0.00    +0.000 HD
ATOM     15  H   UNL     1       1.825   8.435  19.337  0.00  0.00    +0.000 HD
ENDBRANCH   5  13
BRANCH   1  16
ATOM     16  C   UNL     1       5.577   4.423  16.570  0.00  0.00    +0.000 C 
ATOM     17  O   UNL     1       6.687   4.172  17.013  0.00  0.00    +0.000 OA
BRANCH  16  19
ATOM     18  C   UNL     1       6.052   4.098  14.282  0.00  0.00    +0.000 C 
ATOM     19  O   UNL     1       5.103   4.074  15.348  0.00  0.00    +0.000 OA
ENDBRANCH  16  19
ENDBRANCH   1  16
BRANCH   6  20
ATOM     20  C   UNL     1       1.491   4.739  19.545  0.00  0.00    +0.000 C 
ATOM     21  N   UNL     1       0.671   4.217  20.178  0.00  0.00    +0.000 NA
ENDBRANCH   6  20
TORSDOF 5
ENDMDL
