MODEL 1
REMARK VINA RESULT:      -7.0      0.000      0.000
REMARK  Name = 
REMARK  1 active torsions:
REMARK  status: ('A' for Active; 'I' for Inactive)
REMARK    1  A    between atoms: C_2  and  C_9
REMARK                            x       y       z     vdW  Elec       q    Type
REMARK                         _______ _______ _______ _____ _____    ______ ____
ROOT
ATOM      1  O   UNL     1       5.634   4.700  19.807  0.00  0.00    +0.000 OA
ATOM      2  C   UNL     1       5.385   4.510  18.613  0.00  0.00    +0.000 C 
ATOM      3  N   UNL     1       4.146   4.148  18.148  0.00  0.00    +0.000 N 
ATOM      4  C   UNL     1       3.066   4.079  18.987  0.00  0.00    +0.000 A 
ATOM      5  N   UNL     1       2.937   4.491  20.225  0.00  0.00    +0.000 NA
ATOM      6  N   UNL     1       1.692   4.193  20.742  0.00  0.00    +0.000 NA
ATOM      7  C   UNL     1       0.947   3.550  19.869  0.00  0.00    +0.000 A 
ATOM      8  S   UNL     1       1.679   3.329  18.331  0.00  0.00    +0.000 S 
ATOM      9  H   UNL     1       3.987   3.910  17.170  0.00  0.00    +0.000 HD
ENDROOT
BRANCH   2  10
ATOM     10  C   UNL     1       6.531   4.536  17.611  0.00  0.00    +0.000 C 
ATOM     11  C   UNL     1       7.864   4.871  18.296  0.00  0.00    +0.000 C 
ATOM     12  C   UNL     1       7.913   6.300  18.862  0.00  0.00    +0.000 C 
ATOM     13  C   UNL     1       7.714   7.380  17.797  0.00  0.00    +0.000 C 
ATOM     14  C   UNL     1       6.390   7.246  17.059  0.00  0.00    +0.000 C 
ATOM     15  S   UNL     1       6.252   5.662  16.262  0.00  0.00    +0.000 S 
ATOM     16  O   UNL     1       4.881   5.490  15.804  0.00  0.00    +0.000 OA
ATOM     17  O   UNL     1       7.348   5.525  15.323  0.00  0.00    +0.000 OA
ENDBRANCH   2  10
TORSDOF 1
ENDMDL
MODEL 2
REMARK VINA RESULT:      -7.0      2.753      5.735
REMARK  Name = 
REMARK  1 active torsions:
REMARK  status: ('A' for Active; 'I' for Inactive)
REMARK    1  A    between atoms: C_2  and  C_9
REMARK                            x       y       z     vdW  Elec       q    Type
REMARK                         _______ _______ _______ _____ _____    ______ ____
ROOT
ATOM      1  O   UNL     1       4.155   5.279  19.397  0.00  0.00    +0.000 OA
ATOM      2  C   UNL     1       3.478   4.685  18.554  0.00  0.00    +0.000 C 
ATOM      3  N   UNL     1       3.953   4.332  17.316  0.00  0.00    +0.000 N 
ATOM      4  C   UNL     1       5.266   4.527  16.977  0.00  0.00    +0.000 A 
ATOM      5  N   UNL     1       6.285   4.861  17.731  0.00  0.00    +0.000 NA
ATOM      6  N   UNL     1       7.445   5.005  16.996  0.00  0.00    +0.000 NA
ATOM      7  C   UNL     1       7.237   4.790  15.715  0.00  0.00    +0.000 A 
ATOM      8  S   UNL     1       5.630   4.324  15.322  0.00  0.00    +0.000 S 
ATOM      9  H   UNL     1       3.349   3.923  16.604  0.00  0.00    +0.000 HD
ENDROOT
BRANCH   2  10
ATOM     10  C   UNL     1       1.999   4.452  18.830  0.00  0.00    +0.000 C 
ATOM     11  C   UNL     1       1.596   4.997  20.209  0.00  0.00    +0.000 C 
ATOM     12  C   UNL     1       2.255   4.241  21.376  0.00  0.00    +0.000 C 
ATOM     13  C   UNL     1       1.909   2.751  21.403  0.00  0.00    +0.000 C 
ATOM     14  C   UNL     1       2.313   2.026  20.128  0.00  0.00    +0.000 C 
ATOM     15  S   UNL     1       1.527   2.742  18.702  0.00  0.00    +0.000 S 
ATOM     16  O   UNL     1       2.145   2.189  17.505  0.00  0.00    +0.000 OA
ATOM     17  O   UNL     1       0.091   2.653  18.877  0.00  0.00    +0.000 OA
ENDBRANCH   2  10
TORSDOF 1
ENDMDL
MODEL 3
REMARK VINA RESULT:      -7.0      1.976      2.786
REMARK  Name = 
REMARK  1 active torsions:
REMARK  status: ('A' for Active; 'I' for Inactive)
REMARK    1  A    between atoms: C_2  and  C_9
REMARK                            x       y       z     vdW  Elec       q    Type
REMARK                         _______ _______ _______ _____ _____    ______ ____
ROOT
ATOM      1  O   UNL     1       3.700   4.382  17.083  0.00  0.00    +0.000 OA
ATOM      2  C   UNL     1       4.181   5.057  17.996  0.00  0.00    +0.000 C 
ATOM      3  N   UNL     1       3.784   4.949  19.306  0.00  0.00    +0.000 N 
ATOM      4  C   UNL     1       2.888   3.990  19.698  0.00  0.00    +0.000 A 
ATOM      5  N   UNL     1       2.423   2.956  19.039  0.00  0.00    +0.000 NA
ATOM      6  N   UNL     1       1.492   2.250  19.775  0.00  0.00    +0.000 NA
ATOM      7  C   UNL     1       1.288   2.800  20.952  0.00  0.00    +0.000 A 
ATOM      8  S   UNL     1       2.268   4.174  21.278  0.00  0.00    +0.000 S 
ATOM      9  H   UNL     1       4.131   5.579  20.028  0.00  0.00    +0.000 HD
ENDROOT
BRANCH   2  10
ATOM     10  C   UNL     1       5.162   6.169  17.651  0.00  0.00    +0.000 C 
ATOM     11  C   UNL     1       5.127   6.497  16.151  0.00  0.00    +0.000 C 
ATOM     12  C   UNL     1       5.635   5.347  15.266  0.00  0.00    +0.000 C 
ATOM     13  C   UNL     1       7.081   4.944  15.567  0.00  0.00    +0.000 C 
ATOM     14  C   UNL     1       7.285   4.510  17.011  0.00  0.00    +0.000 C 
ATOM     15  S   UNL     1       6.832   5.803  18.144  0.00  0.00    +0.000 S 
ATOM     16  O   UNL     1       6.796   5.250  19.490  0.00  0.00    +0.000 OA
ATOM     17  O   UNL     1       7.652   6.965  17.866  0.00  0.00    +0.000 OA
ENDBRANCH   2  10
TORSDOF 1
ENDMDL
MODEL 4
REMARK VINA RESULT:      -6.9      1.948      2.614
REMARK  Name = 
REMARK  1 active torsions:
REMARK  status: ('A' for Active; 'I' for Inactive)
REMARK    1  A    between atoms: C_2  and  C_9
REMARK                            x       y       z     vdW  Elec       q    Type
REMARK                         _______ _______ _______ _____ _____    ______ ____
ROOT
ATOM      1  O   UNL     1       5.519   3.992  19.273  0.00  0.00    +0.000 OA
ATOM      2  C   UNL     1       4.797   4.948  18.979  0.00  0.00    +0.000 C 
ATOM      3  N   UNL     1       3.488   5.056  19.377  0.00  0.00    +0.000 N 
ATOM      4  C   UNL     1       2.929   4.143  20.231  0.00  0.00    +0.000 A 
ATOM      5  N   UNL     1       3.498   3.196  20.937  0.00  0.00    +0.000 NA
ATOM      6  N   UNL     1       2.574   2.452  21.644  0.00  0.00    +0.000 NA
ATOM      7  C   UNL     1       1.346   2.865  21.419  0.00  0.00    +0.000 A 
ATOM      8  S   UNL     1       1.231   4.237  20.390  0.00  0.00    +0.000 S 
ATOM      9  H   UNL     1       2.886   5.809  19.048  0.00  0.00    +0.000 HD
ENDROOT
BRANCH   2  10
ATOM     10  C   UNL     1       5.324   5.997  18.009  0.00  0.00    +0.000 C 
ATOM     11  C   UNL     1       4.739   5.799  16.602  0.00  0.00    +0.000 C 
ATOM     12  C   UNL     1       5.199   4.494  15.932  0.00  0.00    +0.000 C 
ATOM     13  C   UNL     1       6.718   4.403  15.764  0.00  0.00    +0.000 C 
ATOM     14  C   UNL     1       7.466   4.505  17.085  0.00  0.00    +0.000 C 
ATOM     15  S   UNL     1       7.100   6.033  17.918  0.00  0.00    +0.000 S 
ATOM     16  O   UNL     1       7.625   5.960  19.274  0.00  0.00    +0.000 OA
ATOM     17  O   UNL     1       7.487   7.130  17.054  0.00  0.00    +0.000 OA
ENDBRANCH   2  10
TORSDOF 1
ENDMDL
MODEL 5
REMARK VINA RESULT:      -6.8      1.548      1.821
REMARK  Name = 
REMARK  1 active torsions:
REMARK  status: ('A' for Active; 'I' for Inactive)
REMARK    1  A    between atoms: C_2  and  C_9
REMARK                            x       y       z     vdW  Elec       q    Type
REMARK                         _______ _______ _______ _____ _____    ______ ____
ROOT
ATOM      1  O   UNL     1       5.348   3.519  18.939  0.00  0.00    +0.000 OA
ATOM      2  C   UNL     1       4.474   4.059  18.257  0.00  0.00    +0.000 C 
ATOM      3  N   UNL     1       3.146   4.074  18.603  0.00  0.00    +0.000 N 
ATOM      4  C   UNL     1       2.721   3.573  19.805  0.00  0.00    +0.000 A 
ATOM      5  N   UNL     1       3.417   3.202  20.853  0.00  0.00    +0.000 NA
ATOM      6  N   UNL     1       2.612   2.703  21.858  0.00  0.00    +0.000 NA
ATOM      7  C   UNL     1       1.344   2.707  21.508  0.00  0.00    +0.000 A 
ATOM      8  S   UNL     1       1.031   3.385  19.961  0.00  0.00    +0.000 S 
ATOM      9  H   UNL     1       2.431   4.447  17.980  0.00  0.00    +0.000 HD
ENDROOT
BRANCH   2  10
ATOM     10  C   UNL     1       4.848   4.616  16.890  0.00  0.00    +0.000 C 
ATOM     11  C   UNL     1       6.228   4.111  16.440  0.00  0.00    +0.000 C 
ATOM     12  C   UNL     1       7.380   4.631  17.316  0.00  0.00    +0.000 C 
ATOM     13  C   UNL     1       7.485   6.157  17.333  0.00  0.00    +0.000 C 
ATOM     14  C   UNL     1       6.216   6.832  17.832  0.00  0.00    +0.000 C 
ATOM     15  S   UNL     1       4.814   6.394  16.829  0.00  0.00    +0.000 S 
ATOM     16  O   UNL     1       3.604   6.847  17.499  0.00  0.00    +0.000 OA
ATOM     17  O   UNL     1       5.079   6.806  15.465  0.00  0.00    +0.000 OA
ENDBRANCH   2  10
TORSDOF 1
ENDMDL
MODEL 6
REMARK VINA RESULT:      -6.7      2.650      5.646
REMARK  Name = 
REMARK  1 active torsions:
REMARK  status: ('A' for Active; 'I' for Inactive)
REMARK    1  A    between atoms: C_2  and  C_9
REMARK                            x       y       z     vdW  Elec       q    Type
REMARK                         _______ _______ _______ _____ _____    ______ ____
ROOT
ATOM      1  O   UNL     1       2.437   6.589  18.124  0.00  0.00    +0.000 OA
ATOM      2  C   UNL     1       2.611   5.383  18.315  0.00  0.00    +0.000 C 
ATOM      3  N   UNL     1       3.773   4.728  17.994  0.00  0.00    +0.000 N 
ATOM      4  C   UNL     1       4.868   5.410  17.533  0.00  0.00    +0.000 A 
ATOM      5  N   UNL     1       5.097   6.700  17.494  0.00  0.00    +0.000 NA
ATOM      6  N   UNL     1       6.312   6.991  16.906  0.00  0.00    +0.000 NA
ATOM      7  C   UNL     1       6.933   5.900  16.512  0.00  0.00    +0.000 A 
ATOM      8  S   UNL     1       6.118   4.437  16.895  0.00  0.00    +0.000 S 
ATOM      9  H   UNL     1       3.861   3.716  18.078  0.00  0.00    +0.000 HD
ENDROOT
BRANCH   2  10
ATOM     10  C   UNL     1       1.440   4.538  18.797  0.00  0.00    +0.000 C 
ATOM     11  C   UNL     1       1.176   4.754  20.296  0.00  0.00    +0.000 C 
ATOM     12  C   UNL     1       2.318   4.246  21.192  0.00  0.00    +0.000 C 
ATOM     13  C   UNL     1       2.593   2.749  21.032  0.00  0.00    +0.000 C 
ATOM     14  C   UNL     1       2.951   2.362  19.605  0.00  0.00    +0.000 C 
ATOM     15  S   UNL     1       1.652   2.803  18.472  0.00  0.00    +0.000 S 
ATOM     16  O   UNL     1       2.152   2.654  17.112  0.00  0.00    +0.000 OA
ATOM     17  O   UNL     1       0.441   2.114  18.872  0.00  0.00    +0.000 OA
ENDBRANCH   2  10
TORSDOF 1
ENDMDL
MODEL 7
REMARK VINA RESULT:      -6.7      1.351      1.351
REMARK  Name = 
REMARK  1 active torsions:
REMARK  status: ('A' for Active; 'I' for Inactive)
REMARK    1  A    between atoms: C_2  and  C_9
REMARK                            x       y       z     vdW  Elec       q    Type
REMARK                         _______ _______ _______ _____ _____    ______ ____
ROOT
ATOM      1  O   UNL     1       5.185   3.298  19.081  0.00  0.00    +0.000 OA
ATOM      2  C   UNL     1       5.414   4.381  18.538  0.00  0.00    +0.000 C 
ATOM      3  N   UNL     1       4.606   5.482  18.677  0.00  0.00    +0.000 N 
ATOM      4  C   UNL     1       3.534   5.471  19.531  0.00  0.00    +0.000 A 
ATOM      5  N   UNL     1       3.200   4.595  20.446  0.00  0.00    +0.000 NA
ATOM      6  N   UNL     1       2.011   4.924  21.068  0.00  0.00    +0.000 NA
ATOM      7  C   UNL     1       1.498   6.030  20.574  0.00  0.00    +0.000 A 
ATOM      8  S   UNL     1       2.460   6.788  19.369  0.00  0.00    +0.000 S 
ATOM      9  H   UNL     1       4.766   6.338  18.149  0.00  0.00    +0.000 HD
ENDROOT
BRANCH   2  10
ATOM     10  C   UNL     1       6.566   4.480  17.548  0.00  0.00    +0.000 C 
ATOM     11  C   UNL     1       7.902   4.721  18.269  0.00  0.00    +0.000 C 
ATOM     12  C   UNL     1       7.974   6.087  18.971  0.00  0.00    +0.000 C 
ATOM     13  C   UNL     1       7.804   7.268  18.013  0.00  0.00    +0.000 C 
ATOM     14  C   UNL     1       6.482   7.232  17.259  0.00  0.00    +0.000 C 
ATOM     15  S   UNL     1       6.320   5.735  16.313  0.00  0.00    +0.000 S 
ATOM     16  O   UNL     1       4.949   5.636  15.833  0.00  0.00    +0.000 OA
ATOM     17  O   UNL     1       7.419   5.667  15.371  0.00  0.00    +0.000 OA
ENDBRANCH   2  10
TORSDOF 1
ENDMDL
MODEL 8
REMARK VINA RESULT:      -6.6      2.548      5.974
REMARK  Name = 
REMARK  1 active torsions:
REMARK  status: ('A' for Active; 'I' for Inactive)
REMARK    1  A    between atoms: C_2  and  C_9
REMARK                            x       y       z     vdW  Elec       q    Type
REMARK                         _______ _______ _______ _____ _____    ______ ____
ROOT
ATOM      1  O   UNL     1       3.554   4.477  18.046  0.00  0.00    +0.000 OA
ATOM      2  C   UNL     1       4.208   4.139  19.035  0.00  0.00    +0.000 C 
ATOM      3  N   UNL     1       5.460   4.626  19.316  0.00  0.00    +0.000 N 
ATOM      4  C   UNL     1       6.023   5.616  18.554  0.00  0.00    +0.000 A 
ATOM      5  N   UNL     1       5.483   6.372  17.629  0.00  0.00    +0.000 NA
ATOM      6  N   UNL     1       6.405   7.226  17.056  0.00  0.00    +0.000 NA
ATOM      7  C   UNL     1       7.605   7.056  17.568  0.00  0.00    +0.000 A 
ATOM      8  S   UNL     1       7.684   5.898  18.835  0.00  0.00    +0.000 S 
ATOM      9  H   UNL     1       6.018   4.266  20.089  0.00  0.00    +0.000 HD
ENDROOT
BRANCH   2  10
ATOM     10  C   UNL     1       3.676   3.023  19.924  0.00  0.00    +0.000 C 
ATOM     11  C   UNL     1       3.338   1.770  19.102  0.00  0.00    +0.000 C 
ATOM     12  C   UNL     1       2.167   1.980  18.127  0.00  0.00    +0.000 C 
ATOM     13  C   UNL     1       0.865   2.379  18.825  0.00  0.00    +0.000 C 
ATOM     14  C   UNL     1       0.996   3.660  19.634  0.00  0.00    +0.000 C 
ATOM     15  S   UNL     1       2.257   3.510  20.880  0.00  0.00    +0.000 S 
ATOM     16  O   UNL     1       2.517   4.829  21.438  0.00  0.00    +0.000 OA
ATOM     17  O   UNL     1       1.905   2.413  21.759  0.00  0.00    +0.000 OA
ENDBRANCH   2  10
TORSDOF 1
ENDMDL
MODEL 9
REMARK VINA RESULT:      -6.5      2.762      5.429
REMARK  Name = 
REMARK  1 active torsions:
REMARK  status: ('A' for Active; 'I' for Inactive)
REMARK    1  A    between atoms: C_2  and  C_9
REMARK                            x       y       z     vdW  Elec       q    Type
REMARK                         _______ _______ _______ _____ _____    ______ ____
ROOT
ATOM      1  O   UNL     1       6.208   4.646  19.223  0.00  0.00    +0.000 OA
ATOM      2  C   UNL     1       5.126   4.301  18.742  0.00  0.00    +0.000 C 
ATOM      3  N   UNL     1       4.886   4.231  17.392  0.00  0.00    +0.000 N 
ATOM      4  C   UNL     1       5.888   4.442  16.483  0.00  0.00    +0.000 A 
ATOM      5  N   UNL     1       7.182   4.540  16.668  0.00  0.00    +0.000 NA
ATOM      6  N   UNL     1       7.854   4.803  15.490  0.00  0.00    +0.000 NA
ATOM      7  C   UNL     1       7.026   4.908  14.474  0.00  0.00    +0.000 A 
ATOM      8  S   UNL     1       5.377   4.622  14.863  0.00  0.00    +0.000 S 
ATOM      9  H   UNL     1       3.959   4.031  17.019  0.00  0.00    +0.000 HD
ENDROOT
BRANCH   2  10
ATOM     10  C   UNL     1       3.944   4.076  19.676  0.00  0.00    +0.000 C 
ATOM     11  C   UNL     1       3.765   2.584  19.998  0.00  0.00    +0.000 C 
ATOM     12  C   UNL     1       3.362   1.743  18.775  0.00  0.00    +0.000 C 
ATOM     13  C   UNL     1       2.042   2.190  18.142  0.00  0.00    +0.000 C 
ATOM     14  C   UNL     1       2.067   3.642  17.687  0.00  0.00    +0.000 C 
ATOM     15  S   UNL     1       2.419   4.738  19.043  0.00  0.00    +0.000 S 
ATOM     16  O   UNL     1       2.688   6.065  18.510  0.00  0.00    +0.000 OA
ATOM     17  O   UNL     1       1.395   4.562  20.053  0.00  0.00    +0.000 OA
ENDBRANCH   2  10
TORSDOF 1
ENDMDL
