MODEL 1
REMARK VINA RESULT:      -7.8      0.000      0.000
REMARK  Name = 
REMARK  3 active torsions:
REMARK  status: ('A' for Active; 'I' for Inactive)
REMARK    1  A    between atoms: C_1  and  O_2
REMARK    2  A    between atoms: O_2  and  C_3
REMARK    3  A    between atoms: N_20  and  C_21
REMARK                            x       y       z     vdW  Elec       q    Type
REMARK                         _______ _______ _______ _____ _____    ______ ____
ROOT
ATOM      1  C   UNL     1       5.489   4.234  13.919  0.00  0.00    +0.000 A 
ATOM      2  C   UNL     1       6.871   4.450  13.808  0.00  0.00    +0.000 A 
ATOM      3  C   UNL     1       7.619   4.670  14.949  0.00  0.00    +0.000 A 
ATOM      4  C   UNL     1       6.953   4.708  16.164  0.00  0.00    +0.000 A 
ATOM      5  C   UNL     1       5.558   4.622  16.300  0.00  0.00    +0.000 A 
ATOM      6  C   UNL     1       4.816   4.383  15.154  0.00  0.00    +0.000 A 
ATOM      7  C   UNL     1       5.165   4.904  17.768  0.00  0.00    +0.000 C 
ATOM      8  C   UNL     1       4.870   6.447  17.942  0.00  0.00    +0.000 C 
ATOM      9  C   UNL     1       3.676   7.091  17.240  0.00  0.00    +0.000 C 
ATOM     10  C   UNL     1       2.392   6.913  18.036  0.00  0.00    +0.000 C 
ATOM     11  C   UNL     1       1.987   5.472  18.019  0.00  0.00    +0.000 C 
ATOM     12  C   UNL     1       2.850   4.600  18.918  0.00  0.00    +0.000 A 
ATOM     13  C   UNL     1       2.129   4.002  19.963  0.00  0.00    +0.000 A 
ATOM     14  C   UNL     1       2.222   2.640  20.126  0.00  0.00    +0.000 A 
ATOM     15  C   UNL     1       3.082   1.935  19.276  0.00  0.00    +0.000 A 
ATOM     16  C   UNL     1       4.017   2.617  18.458  0.00  0.00    +0.000 A 
ATOM     17  C   UNL     1       4.015   4.018  18.371  0.00  0.00    +0.000 A 
ATOM     18  N   UNL     1       6.522   4.648  18.473  0.00  0.00    +0.000 NA
ATOM     19  C   UNL     1       6.873   5.344  19.713  0.00  0.00    +0.000 C 
ATOM     20  C   UNL     1       7.578   4.959  17.481  0.00  0.00    +0.000 C 
ENDROOT
BRANCH   1  22
ATOM     21  C   UNL     1       5.380   3.038  11.900  0.00  0.00    +0.000 C 
ATOM     22  O   UNL     1       4.712   3.873  12.848  0.00  0.00    +0.000 OA
ENDBRANCH   1  22
TORSDOF 1
ENDMDL
MODEL 2
REMARK VINA RESULT:      -6.2      2.248      5.762
REMARK  Name = 
REMARK  3 active torsions:
REMARK  status: ('A' for Active; 'I' for Inactive)
REMARK    1  A    between atoms: C_1  and  O_2
REMARK    2  A    between atoms: O_2  and  C_3
REMARK    3  A    between atoms: N_20  and  C_21
REMARK                            x       y       z     vdW  Elec       q    Type
REMARK                         _______ _______ _______ _____ _____    ______ ____
ROOT
ATOM      1  C   UNL     1       3.503   2.586  20.610  0.00  0.00    +0.000 A 
ATOM      2  C   UNL     1       2.389   3.252  21.146  0.00  0.00    +0.000 A 
ATOM      3  C   UNL     1       2.002   4.468  20.615  0.00  0.00    +0.000 A 
ATOM      4  C   UNL     1       2.768   5.001  19.590  0.00  0.00    +0.000 A 
ATOM      5  C   UNL     1       3.958   4.426  19.116  0.00  0.00    +0.000 A 
ATOM      6  C   UNL     1       4.330   3.198  19.640  0.00  0.00    +0.000 A 
ATOM      7  C   UNL     1       4.638   5.395  18.122  0.00  0.00    +0.000 C 
ATOM      8  C   UNL     1       5.652   6.320  18.905  0.00  0.00    +0.000 C 
ATOM      9  C   UNL     1       6.898   5.724  19.559  0.00  0.00    +0.000 C 
ATOM     10  C   UNL     1       8.040   5.578  18.565  0.00  0.00    +0.000 C 
ATOM     11  C   UNL     1       7.705   4.511  17.570  0.00  0.00    +0.000 C 
ATOM     12  C   UNL     1       6.666   4.953  16.550  0.00  0.00    +0.000 A 
ATOM     13  C   UNL     1       7.153   4.962  15.235  0.00  0.00    +0.000 A 
ATOM     14  C   UNL     1       6.448   4.281  14.270  0.00  0.00    +0.000 A 
ATOM     15  C   UNL     1       5.247   3.668  14.647  0.00  0.00    +0.000 A 
ATOM     16  C   UNL     1       4.645   3.953  15.898  0.00  0.00    +0.000 A 
ATOM     17  C   UNL     1       5.300   4.749  16.851  0.00  0.00    +0.000 A 
ATOM     18  N   UNL     1       3.436   6.300  17.750  0.00  0.00    +0.000 NA
ATOM     19  C   UNL     1       3.634   7.697  17.357  0.00  0.00    +0.000 C 
ATOM     20  C   UNL     1       2.529   6.298  18.921  0.00  0.00    +0.000 C 
ENDROOT
BRANCH   1  22
ATOM     21  C   UNL     1       5.267   1.097  21.039  0.00  0.00    +0.000 C 
ATOM     22  O   UNL     1       3.856   1.318  20.994  0.00  0.00    +0.000 OA
ENDBRANCH   1  22
TORSDOF 1
ENDMDL
MODEL 3
REMARK VINA RESULT:      -6.1      8.766     12.153
REMARK  Name = 
REMARK  3 active torsions:
REMARK  status: ('A' for Active; 'I' for Inactive)
REMARK    1  A    between atoms: C_1  and  O_2
REMARK    2  A    between atoms: O_2  and  C_3
REMARK    3  A    between atoms: N_20  and  C_21
REMARK                            x       y       z     vdW  Elec       q    Type
REMARK                         _______ _______ _______ _____ _____    ______ ____
ROOT
ATOM      1  C   UNL     1      -3.230  12.757  23.583  0.00  0.00    +0.000 A 
ATOM      2  C   UNL     1      -3.063  14.112  23.910  0.00  0.00    +0.000 A 
ATOM      3  C   UNL     1      -2.419  14.952  23.023  0.00  0.00    +0.000 A 
ATOM      4  C   UNL     1      -1.923  14.401  21.851  0.00  0.00    +0.000 A 
ATOM      5  C   UNL     1      -1.960  13.030  21.548  0.00  0.00    +0.000 A 
ATOM      6  C   UNL     1      -2.624  12.196  22.434  0.00  0.00    +0.000 A 
ATOM      7  C   UNL     1      -1.140  12.763  20.266  0.00  0.00    +0.000 C 
ATOM      8  C   UNL     1       0.349  12.415  20.661  0.00  0.00    +0.000 C 
ATOM      9  C   UNL     1       0.668  11.133  21.426  0.00  0.00    +0.000 C 
ATOM     10  C   UNL     1       0.799   9.937  20.495  0.00  0.00    +0.000 C 
ATOM     11  C   UNL     1      -0.541   9.599  19.921  0.00  0.00    +0.000 C 
ATOM     12  C   UNL     1      -0.997  10.582  18.853  0.00  0.00    +0.000 A 
ATOM     13  C   UNL     1      -1.155   9.990  17.590  0.00  0.00    +0.000 A 
ATOM     14  C   UNL     1      -2.351  10.160  16.933  0.00  0.00    +0.000 A 
ATOM     15  C   UNL     1      -3.321  10.968  17.536  0.00  0.00    +0.000 A 
ATOM     16  C   UNL     1      -2.997  11.791  18.644  0.00  0.00    +0.000 A 
ATOM     17  C   UNL     1      -1.736  11.716  19.256  0.00  0.00    +0.000 A 
ATOM     18  N   UNL     1      -1.098  14.190  19.661  0.00  0.00    +0.000 NA
ATOM     19  C   UNL     1       0.021  14.623  18.822  0.00  0.00    +0.000 C 
ATOM     20  C   UNL     1      -1.184  15.133  20.801  0.00  0.00    +0.000 C 
ENDROOT
BRANCH   1  22
ATOM     21  C   UNL     1      -5.303  12.366  24.615  0.00  0.00    +0.000 C 
ATOM     22  O   UNL     1      -3.979  11.901  24.350  0.00  0.00    +0.000 OA
ENDBRANCH   1  22
TORSDOF 1
ENDMDL
MODEL 4
REMARK VINA RESULT:      -6.0      1.979      5.556
REMARK  Name = 
REMARK  3 active torsions:
REMARK  status: ('A' for Active; 'I' for Inactive)
REMARK    1  A    between atoms: C_1  and  O_2
REMARK    2  A    between atoms: O_2  and  C_3
REMARK    3  A    between atoms: N_20  and  C_21
REMARK                            x       y       z     vdW  Elec       q    Type
REMARK                         _______ _______ _______ _____ _____    ______ ____
ROOT
ATOM      1  C   UNL     1       2.697   2.673  19.411  0.00  0.00    +0.000 A 
ATOM      2  C   UNL     1       1.589   3.409  19.861  0.00  0.00    +0.000 A 
ATOM      3  C   UNL     1       1.447   4.728  19.477  0.00  0.00    +0.000 A 
ATOM      4  C   UNL     1       2.440   5.284  18.686  0.00  0.00    +0.000 A 
ATOM      5  C   UNL     1       3.622   4.618  18.322  0.00  0.00    +0.000 A 
ATOM      6  C   UNL     1       3.750   3.289  18.696  0.00  0.00    +0.000 A 
ATOM      7  C   UNL     1       4.576   5.609  17.618  0.00  0.00    +0.000 C 
ATOM      8  C   UNL     1       5.532   6.265  18.691  0.00  0.00    +0.000 C 
ATOM      9  C   UNL     1       6.564   5.416  19.432  0.00  0.00    +0.000 C 
ATOM     10  C   UNL     1       7.841   5.248  18.623  0.00  0.00    +0.000 C 
ATOM     11  C   UNL     1       7.569   4.387  17.429  0.00  0.00    +0.000 C 
ATOM     12  C   UNL     1       6.788   5.106  16.341  0.00  0.00    +0.000 A 
ATOM     13  C   UNL     1       7.501   5.228  15.139  0.00  0.00    +0.000 A 
ATOM     14  C   UNL     1       6.906   4.792  13.978  0.00  0.00    +0.000 A 
ATOM     15  C   UNL     1       5.595   4.308  14.055  0.00  0.00    +0.000 A 
ATOM     16  C   UNL     1       4.816   4.501  15.222  0.00  0.00    +0.000 A 
ATOM     17  C   UNL     1       5.376   5.057  16.383  0.00  0.00    +0.000 A 
ATOM     18  N   UNL     1       3.573   6.717  17.208  0.00  0.00    +0.000 NA
ATOM     19  C   UNL     1       3.997   8.113  17.080  0.00  0.00    +0.000 C 
ATOM     20  C   UNL     1       2.475   6.681  18.203  0.00  0.00    +0.000 C 
ENDROOT
BRANCH   1  22
ATOM     21  C   UNL     1       3.923   0.724  18.948  0.00  0.00    +0.000 C 
ATOM     22  O   UNL     1       2.827   1.327  19.639  0.00  0.00    +0.000 OA
ENDBRANCH   1  22
TORSDOF 1
ENDMDL
MODEL 5
REMARK VINA RESULT:      -6.0     10.045     11.974
REMARK  Name = 
REMARK  3 active torsions:
REMARK  status: ('A' for Active; 'I' for Inactive)
REMARK    1  A    between atoms: C_1  and  O_2
REMARK    2  A    between atoms: O_2  and  C_3
REMARK    3  A    between atoms: N_20  and  C_21
REMARK                            x       y       z     vdW  Elec       q    Type
REMARK                         _______ _______ _______ _____ _____    ______ ____
ROOT
ATOM      1  C   UNL     1       5.850  15.373  18.637  0.00  0.00    +0.000 A 
ATOM      2  C   UNL     1       5.796  16.774  18.704  0.00  0.00    +0.000 A 
ATOM      3  C   UNL     1       6.930  17.483  19.050  0.00  0.00    +0.000 A 
ATOM      4  C   UNL     1       8.075  16.764  19.360  0.00  0.00    +0.000 A 
ATOM      5  C   UNL     1       8.131  15.363  19.426  0.00  0.00    +0.000 A 
ATOM      6  C   UNL     1       6.995  14.658  19.060  0.00  0.00    +0.000 A 
ATOM      7  C   UNL     1       9.501  14.928  19.994  0.00  0.00    +0.000 C 
ATOM      8  C   UNL     1       9.393  14.782  21.564  0.00  0.00    +0.000 C 
ATOM      9  C   UNL     1       8.515  13.695  22.182  0.00  0.00    +0.000 C 
ATOM     10  C   UNL     1       9.242  12.362  22.263  0.00  0.00    +0.000 C 
ATOM     11  C   UNL     1       9.442  11.815  20.884  0.00  0.00    +0.000 C 
ATOM     12  C   UNL     1      10.530  12.540  20.107  0.00  0.00    +0.000 A 
ATOM     13  C   UNL     1      11.611  11.711  19.769  0.00  0.00    +0.000 A 
ATOM     14  C   UNL     1      12.007  11.658  18.452  0.00  0.00    +0.000 A 
ATOM     15  C   UNL     1      11.346  12.484  17.535  0.00  0.00    +0.000 A 
ATOM     16  C   UNL     1      10.489  13.522  17.976  0.00  0.00    +0.000 A 
ATOM     17  C   UNL     1      10.167  13.666  19.335  0.00  0.00    +0.000 A 
ATOM     18  N   UNL     1      10.327  16.215  19.742  0.00  0.00    +0.000 NA
ATOM     19  C   UNL     1      11.453  16.573  20.608  0.00  0.00    +0.000 C 
ATOM     20  C   UNL     1       9.369  17.345  19.778  0.00  0.00    +0.000 C 
ENDROOT
BRANCH   1  22
ATOM     21  C   UNL     1       3.791  15.376  17.506  0.00  0.00    +0.000 C 
ATOM     22  O   UNL     1       4.806  14.618  18.167  0.00  0.00    +0.000 OA
ENDBRANCH   1  22
TORSDOF 1
ENDMDL
MODEL 6
REMARK VINA RESULT:      -6.0      8.314     10.993
REMARK  Name = 
REMARK  3 active torsions:
REMARK  status: ('A' for Active; 'I' for Inactive)
REMARK    1  A    between atoms: C_1  and  O_2
REMARK    2  A    between atoms: O_2  and  C_3
REMARK    3  A    between atoms: N_20  and  C_21
REMARK                            x       y       z     vdW  Elec       q    Type
REMARK                         _______ _______ _______ _____ _____    ______ ____
ROOT
ATOM      1  C   UNL     1      -3.113  11.095  16.314  0.00  0.00    +0.000 A 
ATOM      2  C   UNL     1      -4.462  11.131  16.702  0.00  0.00    +0.000 A 
ATOM      3  C   UNL     1      -4.800  11.618  17.949  0.00  0.00    +0.000 A 
ATOM      4  C   UNL     1      -3.772  12.019  18.789  0.00  0.00    +0.000 A 
ATOM      5  C   UNL     1      -2.408  11.881  18.485  0.00  0.00    +0.000 A 
ATOM      6  C   UNL     1      -2.077  11.407  17.225  0.00  0.00    +0.000 A 
ATOM      7  C   UNL     1      -1.564  12.241  19.728  0.00  0.00    +0.000 C 
ATOM      8  C   UNL     1      -1.287  10.933  20.569  0.00  0.00    +0.000 C 
ATOM      9  C   UNL     1      -0.417   9.814  19.998  0.00  0.00    +0.000 C 
ATOM     10  C   UNL     1       1.064  10.084  20.219  0.00  0.00    +0.000 C 
ATOM     11  C   UNL     1       1.496  11.239  19.372  0.00  0.00    +0.000 C 
ATOM     12  C   UNL     1       1.012  12.580  19.902  0.00  0.00    +0.000 A 
ATOM     13  C   UNL     1       2.059  13.439  20.267  0.00  0.00    +0.000 A 
ATOM     14  C   UNL     1       2.078  14.710  19.739  0.00  0.00    +0.000 A 
ATOM     15  C   UNL     1       1.013  15.093  18.916  0.00  0.00    +0.000 A 
ATOM     16  C   UNL     1      -0.165  14.309  18.837  0.00  0.00    +0.000 A 
ATOM     17  C   UNL     1      -0.246  13.059  19.470  0.00  0.00    +0.000 A 
ATOM     18  N   UNL     1      -2.600  13.058  20.541  0.00  0.00    +0.000 NA
ATOM     19  C   UNL     1      -2.549  13.103  22.004  0.00  0.00    +0.000 C 
ATOM     20  C   UNL     1      -3.936  12.537  20.164  0.00  0.00    +0.000 C 
ENDROOT
BRANCH   1  22
ATOM     21  C   UNL     1      -3.694  10.006  14.316  0.00  0.00    +0.000 C 
ATOM     22  O   UNL     1      -2.721  10.756  15.045  0.00  0.00    +0.000 OA
ENDBRANCH   1  22
TORSDOF 1
ENDMDL
MODEL 7
REMARK VINA RESULT:      -5.9      9.638     11.378
REMARK  Name = 
REMARK  3 active torsions:
REMARK  status: ('A' for Active; 'I' for Inactive)
REMARK    1  A    between atoms: C_1  and  O_2
REMARK    2  A    between atoms: O_2  and  C_3
REMARK    3  A    between atoms: N_20  and  C_21
REMARK                            x       y       z     vdW  Elec       q    Type
REMARK                         _______ _______ _______ _____ _____    ______ ____
ROOT
ATOM      1  C   UNL     1       9.747  11.432  18.620  0.00  0.00    +0.000 A 
ATOM      2  C   UNL     1      10.764  11.526  17.658  0.00  0.00    +0.000 A 
ATOM      3  C   UNL     1      11.198  12.771  17.246  0.00  0.00    +0.000 A 
ATOM      4  C   UNL     1      10.572  13.886  17.782  0.00  0.00    +0.000 A 
ATOM      5  C   UNL     1       9.469  13.829  18.649  0.00  0.00    +0.000 A 
ATOM      6  C   UNL     1       9.050  12.577  19.071  0.00  0.00    +0.000 A 
ATOM      7  C   UNL     1       8.915  15.254  18.873  0.00  0.00    +0.000 C 
ATOM      8  C   UNL     1       7.787  15.550  17.807  0.00  0.00    +0.000 C 
ATOM      9  C   UNL     1       6.474  14.770  17.832  0.00  0.00    +0.000 C 
ATOM     10  C   UNL     1       5.482  15.368  18.819  0.00  0.00    +0.000 C 
ATOM     11  C   UNL     1       5.970  15.146  20.217  0.00  0.00    +0.000 C 
ATOM     12  C   UNL     1       7.132  16.053  20.593  0.00  0.00    +0.000 A 
ATOM     13  C   UNL     1       6.830  16.926  21.649  0.00  0.00    +0.000 A 
ATOM     14  C   UNL     1       7.674  16.955  22.735  0.00  0.00    +0.000 A 
ATOM     15  C   UNL     1       8.821  16.155  22.695  0.00  0.00    +0.000 A 
ATOM     16  C   UNL     1       9.240  15.543  21.488  0.00  0.00    +0.000 A 
ATOM     17  C   UNL     1       8.446  15.605  20.332  0.00  0.00    +0.000 A 
ATOM     18  N   UNL     1      10.141  16.100  18.442  0.00  0.00    +0.000 NA
ATOM     19  C   UNL     1       9.974  17.441  17.879  0.00  0.00    +0.000 C 
ATOM     20  C   UNL     1      10.878  15.292  17.442  0.00  0.00    +0.000 C 
ENDROOT
BRANCH   1  22
ATOM     21  C   UNL     1       8.546   9.435  18.321  0.00  0.00    +0.000 C 
ATOM     22  O   UNL     1       9.366  10.236  19.174  0.00  0.00    +0.000 OA
ENDBRANCH   1  22
TORSDOF 1
ENDMDL
MODEL 8
REMARK VINA RESULT:      -5.7      8.532     11.088
REMARK  Name = 
REMARK  3 active torsions:
REMARK  status: ('A' for Active; 'I' for Inactive)
REMARK    1  A    between atoms: C_1  and  O_2
REMARK    2  A    between atoms: O_2  and  C_3
REMARK    3  A    between atoms: N_20  and  C_21
REMARK                            x       y       z     vdW  Elec       q    Type
REMARK                         _______ _______ _______ _____ _____    ______ ____
ROOT
ATOM      1  C   UNL     1      -3.603  11.326  17.186  0.00  0.00    +0.000 A 
ATOM      2  C   UNL     1      -2.951  10.191  16.679  0.00  0.00    +0.000 A 
ATOM      3  C   UNL     1      -1.837   9.698  17.330  0.00  0.00    +0.000 A 
ATOM      4  C   UNL     1      -1.384  10.382  18.448  0.00  0.00    +0.000 A 
ATOM      5  C   UNL     1      -1.933  11.589  18.909  0.00  0.00    +0.000 A 
ATOM      6  C   UNL     1      -3.062  12.068  18.262  0.00  0.00    +0.000 A 
ATOM      7  C   UNL     1      -1.051  12.157  20.043  0.00  0.00    +0.000 C 
ATOM      8  C   UNL     1       0.027  13.134  19.426  0.00  0.00    +0.000 C 
ATOM      9  C   UNL     1      -0.402  14.445  18.769  0.00  0.00    +0.000 C 
ATOM     10  C   UNL     1      -0.594  15.553  19.793  0.00  0.00    +0.000 C 
ATOM     11  C   UNL     1      -1.793  15.253  20.637  0.00  0.00    +0.000 C 
ATOM     12  C   UNL     1      -1.548  14.145  21.649  0.00  0.00    +0.000 A 
ATOM     13  C   UNL     1      -1.666  14.576  22.979  0.00  0.00    +0.000 A 
ATOM     14  C   UNL     1      -2.505  13.881  23.820  0.00  0.00    +0.000 A 
ATOM     15  C   UNL     1      -3.145  12.743  23.314  0.00  0.00    +0.000 A 
ATOM     16  C   UNL     1      -2.749  12.175  22.078  0.00  0.00    +0.000 A 
ATOM     17  C   UNL     1      -1.802  12.811  21.259  0.00  0.00    +0.000 A 
ATOM     18  N   UNL     1      -0.278  10.880  20.460  0.00  0.00    +0.000 NA
ATOM     19  C   UNL     1       1.071  10.962  21.025  0.00  0.00    +0.000 C 
ATOM     20  C   UNL     1      -0.197  10.023  19.254  0.00  0.00    +0.000 C 
ENDROOT
BRANCH   1  22
ATOM     21  C   UNL     1      -5.714  12.239  17.663  0.00  0.00    +0.000 C 
ATOM     22  O   UNL     1      -4.790  11.784  16.673  0.00  0.00    +0.000 OA
ENDBRANCH   1  22
TORSDOF 1
ENDMDL
MODEL 9
REMARK VINA RESULT:      -5.7     10.118     13.475
REMARK  Name = 
REMARK  3 active torsions:
REMARK  status: ('A' for Active; 'I' for Inactive)
REMARK    1  A    between atoms: C_1  and  O_2
REMARK    2  A    between atoms: O_2  and  C_3
REMARK    3  A    between atoms: N_20  and  C_21
REMARK                            x       y       z     vdW  Elec       q    Type
REMARK                         _______ _______ _______ _____ _____    ______ ____
ROOT
ATOM      1  C   UNL     1      -1.469  15.431  25.146  0.00  0.00    +0.000 A 
ATOM      2  C   UNL     1      -2.773  15.921  25.325  0.00  0.00    +0.000 A 
ATOM      3  C   UNL     1      -3.803  15.409  24.560  0.00  0.00    +0.000 A 
ATOM      4  C   UNL     1      -3.489  14.449  23.609  0.00  0.00    +0.000 A 
ATOM      5  C   UNL     1      -2.182  14.028  23.317  0.00  0.00    +0.000 A 
ATOM      6  C   UNL     1      -1.156  14.533  24.100  0.00  0.00    +0.000 A 
ATOM      7  C   UNL     1      -2.202  13.110  22.074  0.00  0.00    +0.000 C 
ATOM      8  C   UNL     1      -1.980  13.983  20.775  0.00  0.00    +0.000 C 
ATOM      9  C   UNL     1      -0.647  14.690  20.536  0.00  0.00    +0.000 C 
ATOM     10  C   UNL     1       0.376  13.762  19.900  0.00  0.00    +0.000 C 
ATOM     11  C   UNL     1       0.785  12.714  20.887  0.00  0.00    +0.000 C 
ATOM     12  C   UNL     1      -0.280  11.649  21.101  0.00  0.00    +0.000 A 
ATOM     13  C   UNL     1       0.138  10.366  20.716  0.00  0.00    +0.000 A 
ATOM     14  C   UNL     1       0.018   9.339  21.623  0.00  0.00    +0.000 A 
ATOM     15  C   UNL     1      -0.574   9.623  22.859  0.00  0.00    +0.000 A 
ATOM     16  C   UNL     1      -1.261  10.844  23.075  0.00  0.00    +0.000 A 
ATOM     17  C   UNL     1      -1.249  11.861  22.107  0.00  0.00    +0.000 A 
ATOM     18  N   UNL     1      -3.696  12.697  22.058  0.00  0.00    +0.000 NA
ATOM     19  C   UNL     1      -4.376  12.363  20.804  0.00  0.00    +0.000 C 
ATOM     20  C   UNL     1      -4.448  13.810  22.682  0.00  0.00    +0.000 C 
ENDROOT
BRANCH   1  22
ATOM     21  C   UNL     1      -0.710  16.918  26.798  0.00  0.00    +0.000 C 
ATOM     22  O   UNL     1      -0.429  15.793  25.964  0.00  0.00    +0.000 OA
ENDBRANCH   1  22
TORSDOF 1
ENDMDL
