MODEL 1
REMARK VINA RESULT:      -7.8      0.000      0.000
REMARK  Name = 
REMARK  3 active torsions:
REMARK  status: ('A' for Active; 'I' for Inactive)
REMARK    1  A    between atoms: N_1  and  C_2
REMARK    2  A    between atoms: C_2  and  C_3
REMARK    3  A    between atoms: C_14  and  C_15
REMARK                            x       y       z     vdW  Elec       q    Type
REMARK                         _______ _______ _______ _____ _____    ______ ____
ROOT
ATOM      1  C   UNL     1       2.452   4.179  19.248  0.00  0.00    +0.000 C 
ATOM      2  C   UNL     1       3.337   3.577  20.323  0.00  0.00    +0.000 C 
ATOM      3  C   UNL     1       3.789   3.523  18.889  0.00  0.00    +0.000 C 
ENDROOT
BRANCH   1   4
ATOM      4  C   UNL     1       2.296   5.695  19.213  0.00  0.00    +0.000 A 
ATOM      5  C   UNL     1       2.476   6.415  18.023  0.00  0.00    +0.000 A 
ATOM      6  C   UNL     1       2.206   7.783  17.948  0.00  0.00    +0.000 A 
ATOM      7  C   UNL     1       1.747   8.481  19.074  0.00  0.00    +0.000 A 
ATOM      8  C   UNL     1       1.383   9.835  18.996  0.00  0.00    +0.000 A 
ATOM      9  C   UNL     1       0.903  10.507  20.122  0.00  0.00    +0.000 A 
ATOM     10  C   UNL     1       0.803   9.841  21.339  0.00  0.00    +0.000 A 
ATOM     11  C   UNL     1       1.173   8.498  21.433  0.00  0.00    +0.000 A 
ATOM     12  C   UNL     1       1.632   7.801  20.302  0.00  0.00    +0.000 A 
ATOM     13  C   UNL     1       1.941   6.430  20.361  0.00  0.00    +0.000 A 
ENDBRANCH   1   4
BRANCH   3  14
ATOM     14  C   UNL     1       5.006   4.298  18.397  0.00  0.00    +0.000 A 
ATOM     15  C   UNL     1       5.854   5.051  19.232  0.00  0.00    +0.000 A 
ATOM     16  C   UNL     1       6.983   5.715  18.739  0.00  0.00    +0.000 A 
ATOM     17  C   UNL     1       7.301   5.640  17.386  0.00  0.00    +0.000 A 
ATOM     18  C   UNL     1       6.476   4.912  16.536  0.00  0.00    +0.000 A 
ATOM     19 BR   UNL     1       6.899   4.801  14.696  0.00  0.00    +0.000 Br
ATOM     20  C   UNL     1       5.347   4.255  17.030  0.00  0.00    +0.000 A 
ENDBRANCH   3  14
BRANCH   1  21
ATOM     21  N   UNL     1       1.211   3.443  18.931  0.00  0.00    +0.000 NA
ATOM     22  H   UNL     1       0.943   3.616  17.962  0.00  0.00    +0.000 HD
ATOM     23  H   UNL     1       0.433   3.791  19.490  0.00  0.00    +0.000 HD
ENDBRANCH   1  21
TORSDOF 3
ENDMDL
MODEL 2
REMARK VINA RESULT:      -7.8      1.508      2.545
REMARK  Name = 
REMARK  3 active torsions:
REMARK  status: ('A' for Active; 'I' for Inactive)
REMARK    1  A    between atoms: N_1  and  C_2
REMARK    2  A    between atoms: C_2  and  C_3
REMARK    3  A    between atoms: C_14  and  C_15
REMARK                            x       y       z     vdW  Elec       q    Type
REMARK                         _______ _______ _______ _____ _____    ______ ____
ROOT
ATOM      1  C   UNL     1       2.638   2.863  18.413  0.00  0.00    +0.000 C 
ATOM      2  C   UNL     1       3.839   2.189  19.046  0.00  0.00    +0.000 C 
ATOM      3  C   UNL     1       3.930   2.653  17.618  0.00  0.00    +0.000 C 
ENDROOT
BRANCH   1   4
ATOM      4  C   UNL     1       2.247   4.250  18.909  0.00  0.00    +0.000 A 
ATOM      5  C   UNL     1       1.932   4.476  20.257  0.00  0.00    +0.000 A 
ATOM      6  C   UNL     1       1.704   5.763  20.749  0.00  0.00    +0.000 A 
ATOM      7  C   UNL     1       1.780   6.875  19.898  0.00  0.00    +0.000 A 
ATOM      8  C   UNL     1       1.645   8.182  20.390  0.00  0.00    +0.000 A 
ATOM      9  C   UNL     1       1.750   9.279  19.532  0.00  0.00    +0.000 A 
ATOM     10  C   UNL     1       1.969   9.079  18.172  0.00  0.00    +0.000 A 
ATOM     11  C   UNL     1       2.094   7.783  17.668  0.00  0.00    +0.000 A 
ATOM     12  C   UNL     1       2.018   6.671  18.524  0.00  0.00    +0.000 A 
ATOM     13  C   UNL     1       2.212   5.363  18.046  0.00  0.00    +0.000 A 
ENDBRANCH   1   4
BRANCH   3  14
ATOM     14  C   UNL     1       4.856   3.788  17.196  0.00  0.00    +0.000 A 
ATOM     15  C   UNL     1       4.823   4.406  15.930  0.00  0.00    +0.000 A 
ATOM     16  C   UNL     1       5.668   5.472  15.602  0.00  0.00    +0.000 A 
ATOM     17  C   UNL     1       6.575   5.957  16.538  0.00  0.00    +0.000 A 
ATOM     18  C   UNL     1       6.638   5.361  17.792  0.00  0.00    +0.000 A 
ATOM     19 BR   UNL     1       7.864   6.013  19.075  0.00  0.00    +0.000 Br
ATOM     20  C   UNL     1       5.796   4.294  18.116  0.00  0.00    +0.000 A 
ENDBRANCH   3  14
BRANCH   1  21
ATOM     21  N   UNL     1       1.484   1.992  18.102  0.00  0.00    +0.000 NA
ATOM     22  H   UNL     1       0.928   1.842  18.943  0.00  0.00    +0.000 HD
ATOM     23  H   UNL     1       1.800   1.065  17.821  0.00  0.00    +0.000 HD
ENDBRANCH   1  21
TORSDOF 3
ENDMDL
MODEL 3
REMARK VINA RESULT:      -7.8      2.599      5.957
REMARK  Name = 
REMARK  3 active torsions:
REMARK  status: ('A' for Active; 'I' for Inactive)
REMARK    1  A    between atoms: N_1  and  C_2
REMARK    2  A    between atoms: C_2  and  C_3
REMARK    3  A    between atoms: C_14  and  C_15
REMARK                            x       y       z     vdW  Elec       q    Type
REMARK                         _______ _______ _______ _____ _____    ______ ____
ROOT
ATOM      1  C   UNL     1       2.535   3.567  20.497  0.00  0.00    +0.000 C 
ATOM      2  C   UNL     1       1.026   3.652  20.370  0.00  0.00    +0.000 C 
ATOM      3  C   UNL     1       1.777   4.818  20.951  0.00  0.00    +0.000 C 
ENDROOT
BRANCH   1   4
ATOM      4  C   UNL     1       3.364   3.583  19.218  0.00  0.00    +0.000 A 
ATOM      5  C   UNL     1       2.804   3.219  17.985  0.00  0.00    +0.000 A 
ATOM      6  C   UNL     1       3.514   3.357  16.790  0.00  0.00    +0.000 A 
ATOM      7  C   UNL     1       4.821   3.864  16.793  0.00  0.00    +0.000 A 
ATOM      8  C   UNL     1       5.517   4.097  15.596  0.00  0.00    +0.000 A 
ATOM      9  C   UNL     1       6.808   4.627  15.617  0.00  0.00    +0.000 A 
ATOM     10  C   UNL     1       7.424   4.910  16.832  0.00  0.00    +0.000 A 
ATOM     11  C   UNL     1       6.748   4.673  18.029  0.00  0.00    +0.000 A 
ATOM     12  C   UNL     1       5.437   4.165  18.024  0.00  0.00    +0.000 A 
ATOM     13  C   UNL     1       4.714   3.987  19.217  0.00  0.00    +0.000 A 
ENDBRANCH   1   4
BRANCH   3  14
ATOM     14  C   UNL     1       1.859   6.163  20.237  0.00  0.00    +0.000 A 
ATOM     15  C   UNL     1       2.372   6.336  18.936  0.00  0.00    +0.000 A 
ATOM     16  C   UNL     1       2.390   7.586  18.306  0.00  0.00    +0.000 A 
ATOM     17  C   UNL     1       1.889   8.705  18.963  0.00  0.00    +0.000 A 
ATOM     18  C   UNL     1       1.386   8.566  20.251  0.00  0.00    +0.000 A 
ATOM     19 BR   UNL     1       0.699  10.079  21.153  0.00  0.00    +0.000 Br
ATOM     20  C   UNL     1       1.373   7.318  20.879  0.00  0.00    +0.000 A 
ENDBRANCH   3  14
BRANCH   1  21
ATOM     21  N   UNL     1       3.056   2.656  21.537  0.00  0.00    +0.000 NA
ATOM     22  H   UNL     1       2.293   2.343  22.137  0.00  0.00    +0.000 HD
ATOM     23  H   UNL     1       3.699   3.148  22.156  0.00  0.00    +0.000 HD
ENDBRANCH   1  21
TORSDOF 3
ENDMDL
MODEL 4
REMARK VINA RESULT:      -7.7      3.064      4.790
REMARK  Name = 
REMARK  3 active torsions:
REMARK  status: ('A' for Active; 'I' for Inactive)
REMARK    1  A    between atoms: N_1  and  C_2
REMARK    2  A    between atoms: C_2  and  C_3
REMARK    3  A    between atoms: C_14  and  C_15
REMARK                            x       y       z     vdW  Elec       q    Type
REMARK                         _______ _______ _______ _____ _____    ______ ____
ROOT
ATOM      1  C   UNL     1       6.786   5.650  18.740  0.00  0.00    +0.000 C 
ATOM      2  C   UNL     1       7.219   6.851  17.920  0.00  0.00    +0.000 C 
ATOM      3  C   UNL     1       7.616   5.474  17.465  0.00  0.00    +0.000 C 
ENDROOT
BRANCH   1   4
ATOM      4  C   UNL     1       5.306   5.289  18.759  0.00  0.00    +0.000 A 
ATOM      5  C   UNL     1       4.342   6.149  18.212  0.00  0.00    +0.000 A 
ATOM      6  C   UNL     1       3.002   5.771  18.104  0.00  0.00    +0.000 A 
ATOM      7  C   UNL     1       2.579   4.511  18.548  0.00  0.00    +0.000 A 
ATOM      8  C   UNL     1       1.257   4.077  18.365  0.00  0.00    +0.000 A 
ATOM      9  C   UNL     1       0.861   2.808  18.791  0.00  0.00    +0.000 A 
ATOM     10  C   UNL     1       1.774   1.969  19.423  0.00  0.00    +0.000 A 
ATOM     11  C   UNL     1       3.089   2.393  19.621  0.00  0.00    +0.000 A 
ATOM     12  C   UNL     1       3.510   3.657  19.173  0.00  0.00    +0.000 A 
ATOM     13  C   UNL     1       4.848   4.072  19.301  0.00  0.00    +0.000 A 
ENDBRANCH   1   4
BRANCH   3  14
ATOM     14  C   UNL     1       7.072   4.860  16.179  0.00  0.00    +0.000 A 
ATOM     15  C   UNL     1       6.069   3.872  16.139  0.00  0.00    +0.000 A 
ATOM     16  C   UNL     1       5.573   3.367  14.932  0.00  0.00    +0.000 A 
ATOM     17  C   UNL     1       6.066   3.843  13.721  0.00  0.00    +0.000 A 
ATOM     18  C   UNL     1       7.063   4.811  13.730  0.00  0.00    +0.000 A 
ATOM     19 BR   UNL     1       7.741   5.468  12.092  0.00  0.00    +0.000 Br
ATOM     20  C   UNL     1       7.560   5.310  14.937  0.00  0.00    +0.000 A 
ENDBRANCH   3  14
BRANCH   1  21
ATOM     21  N   UNL     1       7.465   5.464  20.040  0.00  0.00    +0.000 NA
ATOM     22  H   UNL     1       7.099   6.129  20.720  0.00  0.00    +0.000 HD
ATOM     23  H   UNL     1       8.458   5.680  19.961  0.00  0.00    +0.000 HD
ENDBRANCH   1  21
TORSDOF 3
ENDMDL
MODEL 5
REMARK VINA RESULT:      -7.7      2.221      5.288
REMARK  Name = 
REMARK  3 active torsions:
REMARK  status: ('A' for Active; 'I' for Inactive)
REMARK    1  A    between atoms: N_1  and  C_2
REMARK    2  A    between atoms: C_2  and  C_3
REMARK    3  A    between atoms: C_14  and  C_15
REMARK                            x       y       z     vdW  Elec       q    Type
REMARK                         _______ _______ _______ _____ _____    ______ ____
ROOT
ATOM      1  C   UNL     1       3.559   2.801  18.027  0.00  0.00    +0.000 C 
ATOM      2  C   UNL     1       2.205   2.888  17.350  0.00  0.00    +0.000 C 
ATOM      3  C   UNL     1       2.311   3.210  18.815  0.00  0.00    +0.000 C 
ENDROOT
BRANCH   1   4
ATOM      4  C   UNL     1       4.616   3.833  17.653  0.00  0.00    +0.000 A 
ATOM      5  C   UNL     1       4.619   4.445  16.391  0.00  0.00    +0.000 A 
ATOM      6  C   UNL     1       5.498   5.486  16.085  0.00  0.00    +0.000 A 
ATOM      7  C   UNL     1       6.414   5.949  17.040  0.00  0.00    +0.000 A 
ATOM      8  C   UNL     1       7.241   7.053  16.784  0.00  0.00    +0.000 A 
ATOM      9  C   UNL     1       8.129   7.517  17.757  0.00  0.00    +0.000 A 
ATOM     10  C   UNL     1       8.214   6.869  18.986  0.00  0.00    +0.000 A 
ATOM     11  C   UNL     1       7.405   5.763  19.249  0.00  0.00    +0.000 A 
ATOM     12  C   UNL     1       6.487   5.302  18.290  0.00  0.00    +0.000 A 
ATOM     13  C   UNL     1       5.613   4.234  18.564  0.00  0.00    +0.000 A 
ENDBRANCH   1   4
BRANCH   3  14
ATOM     14  C   UNL     1       2.074   4.618  19.350  0.00  0.00    +0.000 A 
ATOM     15  C   UNL     1       1.692   4.905  20.675  0.00  0.00    +0.000 A 
ATOM     16  C   UNL     1       1.524   6.218  21.131  0.00  0.00    +0.000 A 
ATOM     17  C   UNL     1       1.740   7.289  20.270  0.00  0.00    +0.000 A 
ATOM     18  C   UNL     1       2.109   7.036  18.954  0.00  0.00    +0.000 A 
ATOM     19 BR   UNL     1       2.409   8.482  17.774  0.00  0.00    +0.000 Br
ATOM     20  C   UNL     1       2.271   5.724  18.500  0.00  0.00    +0.000 A 
ENDBRANCH   3  14
BRANCH   1  21
ATOM     21  N   UNL     1       4.099   1.442  18.242  0.00  0.00    +0.000 NA
ATOM     22  H   UNL     1       3.877   0.850  17.442  0.00  0.00    +0.000 HD
ATOM     23  H   UNL     1       3.646   0.997  19.039  0.00  0.00    +0.000 HD
ENDBRANCH   1  21
TORSDOF 3
ENDMDL
MODEL 6
REMARK VINA RESULT:      -7.6      2.611      6.278
REMARK  Name = 
REMARK  3 active torsions:
REMARK  status: ('A' for Active; 'I' for Inactive)
REMARK    1  A    between atoms: N_1  and  C_2
REMARK    2  A    between atoms: C_2  and  C_3
REMARK    3  A    between atoms: C_14  and  C_15
REMARK                            x       y       z     vdW  Elec       q    Type
REMARK                         _______ _______ _______ _____ _____    ______ ____
ROOT
ATOM      1  C   UNL     1       3.311   3.521  19.539  0.00  0.00    +0.000 C 
ATOM      2  C   UNL     1       1.880   3.363  19.064  0.00  0.00    +0.000 C 
ATOM      3  C   UNL     1       2.202   4.434  20.070  0.00  0.00    +0.000 C 
ENDROOT
BRANCH   1   4
ATOM      4  C   UNL     1       4.343   4.049  18.548  0.00  0.00    +0.000 A 
ATOM      5  C   UNL     1       5.513   4.682  18.987  0.00  0.00    +0.000 A 
ATOM      6  C   UNL     1       6.525   5.049  18.097  0.00  0.00    +0.000 A 
ATOM      7  C   UNL     1       6.393   4.793  16.725  0.00  0.00    +0.000 A 
ATOM      8  C   UNL     1       7.435   5.070  15.826  0.00  0.00    +0.000 A 
ATOM      9  C   UNL     1       7.296   4.785  14.467  0.00  0.00    +0.000 A 
ATOM     10  C   UNL     1       6.107   4.242  13.989  0.00  0.00    +0.000 A 
ATOM     11  C   UNL     1       5.059   3.973  14.869  0.00  0.00    +0.000 A 
ATOM     12  C   UNL     1       5.195   4.229  16.245  0.00  0.00    +0.000 A 
ATOM     13  C   UNL     1       4.176   3.898  17.157  0.00  0.00    +0.000 A 
ENDBRANCH   1   4
BRANCH   3  14
ATOM     14  C   UNL     1       2.093   5.917  19.733  0.00  0.00    +0.000 A 
ATOM     15  C   UNL     1       2.344   6.458  18.458  0.00  0.00    +0.000 A 
ATOM     16  C   UNL     1       2.192   7.822  18.187  0.00  0.00    +0.000 A 
ATOM     17  C   UNL     1       1.778   8.691  19.191  0.00  0.00    +0.000 A 
ATOM     18  C   UNL     1       1.532   8.187  20.463  0.00  0.00    +0.000 A 
ATOM     19 BR   UNL     1       0.965   9.357  21.837  0.00  0.00    +0.000 Br
ATOM     20  C   UNL     1       1.689   6.825  20.732  0.00  0.00    +0.000 A 
ENDBRANCH   3  14
BRANCH   1  21
ATOM     21  N   UNL     1       3.827   2.464  20.434  0.00  0.00    +0.000 NA
ATOM     22  H   UNL     1       4.156   1.673  19.881  0.00  0.00    +0.000 HD
ATOM     23  H   UNL     1       3.080   2.091  21.017  0.00  0.00    +0.000 HD
ENDBRANCH   1  21
TORSDOF 3
ENDMDL
MODEL 7
REMARK VINA RESULT:      -7.5      3.283      4.836
REMARK  Name = 
REMARK  3 active torsions:
REMARK  status: ('A' for Active; 'I' for Inactive)
REMARK    1  A    between atoms: N_1  and  C_2
REMARK    2  A    between atoms: C_2  and  C_3
REMARK    3  A    between atoms: C_14  and  C_15
REMARK                            x       y       z     vdW  Elec       q    Type
REMARK                         _______ _______ _______ _____ _____    ______ ____
ROOT
ATOM      1  C   UNL     1       5.432   4.600  15.504  0.00  0.00    +0.000 C 
ATOM      2  C   UNL     1       6.649   3.697  15.546  0.00  0.00    +0.000 C 
ATOM      3  C   UNL     1       6.838   5.183  15.672  0.00  0.00    +0.000 C 
ENDROOT
BRANCH   1   4
ATOM      4  C   UNL     1       4.463   4.555  16.681  0.00  0.00    +0.000 A 
ATOM      5  C   UNL     1       3.935   5.731  17.231  0.00  0.00    +0.000 A 
ATOM      6  C   UNL     1       2.947   5.698  18.218  0.00  0.00    +0.000 A 
ATOM      7  C   UNL     1       2.457   4.473  18.693  0.00  0.00    +0.000 A 
ATOM      8  C   UNL     1       1.402   4.418  19.617  0.00  0.00    +0.000 A 
ATOM      9  C   UNL     1       0.909   3.189  20.060  0.00  0.00    +0.000 A 
ATOM     10  C   UNL     1       1.478   2.005  19.601  0.00  0.00    +0.000 A 
ATOM     11  C   UNL     1       2.536   2.047  18.691  0.00  0.00    +0.000 A 
ATOM     12  C   UNL     1       3.025   3.276  18.215  0.00  0.00    +0.000 A 
ATOM     13  C   UNL     1       4.041   3.335  17.245  0.00  0.00    +0.000 A 
ENDBRANCH   1   4
BRANCH   3  14
ATOM     14  C   UNL     1       7.338   5.826  16.961  0.00  0.00    +0.000 A 
ATOM     15  C   UNL     1       7.601   5.116  18.148  0.00  0.00    +0.000 A 
ATOM     16  C   UNL     1       8.097   5.745  19.296  0.00  0.00    +0.000 A 
ATOM     17  C   UNL     1       8.350   7.112  19.287  0.00  0.00    +0.000 A 
ATOM     18  C   UNL     1       8.092   7.842  18.132  0.00  0.00    +0.000 A 
ATOM     19 BR   UNL     1       8.435   9.701  18.106  0.00  0.00    +0.000 Br
ATOM     20  C   UNL     1       7.592   7.212  16.990  0.00  0.00    +0.000 A 
ENDBRANCH   3  14
BRANCH   1  21
ATOM     21  N   UNL     1       4.771   4.752  14.191  0.00  0.00    +0.000 NA
ATOM     22  H   UNL     1       3.758   4.748  14.311  0.00  0.00    +0.000 HD
ATOM     23  H   UNL     1       4.973   3.952  13.592  0.00  0.00    +0.000 HD
ENDBRANCH   1  21
TORSDOF 3
ENDMDL
MODEL 8
REMARK VINA RESULT:      -7.5      0.917      1.909
REMARK  Name = 
REMARK  3 active torsions:
REMARK  status: ('A' for Active; 'I' for Inactive)
REMARK    1  A    between atoms: N_1  and  C_2
REMARK    2  A    between atoms: C_2  and  C_3
REMARK    3  A    between atoms: C_14  and  C_15
REMARK                            x       y       z     vdW  Elec       q    Type
REMARK                         _______ _______ _______ _____ _____    ______ ____
ROOT
ATOM      1  C   UNL     1       2.694   3.058  18.979  0.00  0.00    +0.000 C 
ATOM      2  C   UNL     1       3.762   2.447  19.864  0.00  0.00    +0.000 C 
ATOM      3  C   UNL     1       4.090   2.753  18.429  0.00  0.00    +0.000 C 
ENDROOT
BRANCH   1   4
ATOM      4  C   UNL     1       2.264   4.494  19.256  0.00  0.00    +0.000 A 
ATOM      5  C   UNL     1       1.848   4.892  20.535  0.00  0.00    +0.000 A 
ATOM      6  C   UNL     1       1.581   6.230  20.833  0.00  0.00    +0.000 A 
ATOM      7  C   UNL     1       1.719   7.220  19.851  0.00  0.00    +0.000 A 
ATOM      8  C   UNL     1       1.544   8.579  20.153  0.00  0.00    +0.000 A 
ATOM      9  C   UNL     1       1.711   9.554  19.168  0.00  0.00    +0.000 A 
ATOM     10  C   UNL     1       2.032   9.179  17.867  0.00  0.00    +0.000 A 
ATOM     11  C   UNL     1       2.197   7.830  17.550  0.00  0.00    +0.000 A 
ATOM     12  C   UNL     1       2.060   6.839  18.538  0.00  0.00    +0.000 A 
ATOM     13  C   UNL     1       2.292   5.481  18.253  0.00  0.00    +0.000 A 
ENDBRANCH   1   4
BRANCH   3  14
ATOM     14  C   UNL     1       5.100   3.828  18.043  0.00  0.00    +0.000 A 
ATOM     15  C   UNL     1       5.716   4.700  18.962  0.00  0.00    +0.000 A 
ATOM     16  C   UNL     1       6.668   5.646  18.564  0.00  0.00    +0.000 A 
ATOM     17  C   UNL     1       7.036   5.745  17.226  0.00  0.00    +0.000 A 
ATOM     18  C   UNL     1       6.437   4.905  16.295  0.00  0.00    +0.000 A 
ATOM     19 BR   UNL     1       6.931   5.027  14.474  0.00  0.00    +0.000 Br
ATOM     20  C   UNL     1       5.484   3.964  16.694  0.00  0.00    +0.000 A 
ENDBRANCH   3  14
BRANCH   1  21
ATOM     21  N   UNL     1       1.583   2.167  18.581  0.00  0.00    +0.000 NA
ATOM     22  H   UNL     1       1.454   1.440  19.284  0.00  0.00    +0.000 HD
ATOM     23  H   UNL     1       1.811   1.670  17.720  0.00  0.00    +0.000 HD
ENDBRANCH   1  21
TORSDOF 3
ENDMDL
MODEL 9
REMARK VINA RESULT:      -7.4      1.196      1.628
REMARK  Name = 
REMARK  3 active torsions:
REMARK  status: ('A' for Active; 'I' for Inactive)
REMARK    1  A    between atoms: N_1  and  C_2
REMARK    2  A    between atoms: C_2  and  C_3
REMARK    3  A    between atoms: C_14  and  C_15
REMARK                            x       y       z     vdW  Elec       q    Type
REMARK                         _______ _______ _______ _____ _____    ______ ____
ROOT
ATOM      1  C   UNL     1       2.052   3.871  19.717  0.00  0.00    +0.000 C 
ATOM      2  C   UNL     1       3.109   3.280  20.629  0.00  0.00    +0.000 C 
ATOM      3  C   UNL     1       3.197   3.026  19.149  0.00  0.00    +0.000 C 
ENDROOT
BRANCH   1   4
ATOM      4  C   UNL     1       2.032   5.383  19.525  0.00  0.00    +0.000 A 
ATOM      5  C   UNL     1       2.284   5.958  18.271  0.00  0.00    +0.000 A 
ATOM      6  C   UNL     1       2.138   7.330  18.053  0.00  0.00    +0.000 A 
ATOM      7  C   UNL     1       1.736   8.177  19.095  0.00  0.00    +0.000 A 
ATOM      8  C   UNL     1       1.495   9.542  18.875  0.00  0.00    +0.000 A 
ATOM      9  C   UNL     1       1.070  10.366  19.918  0.00  0.00    +0.000 A 
ATOM     10  C   UNL     1       0.903   9.840  21.196  0.00  0.00    +0.000 A 
ATOM     11  C   UNL     1       1.150   8.487  21.431  0.00  0.00    +0.000 A 
ATOM     12  C   UNL     1       1.552   7.639  20.384  0.00  0.00    +0.000 A 
ATOM     13  C   UNL     1       1.737   6.260  20.587  0.00  0.00    +0.000 A 
ENDBRANCH   1   4
BRANCH   3  14
ATOM     14  C   UNL     1       4.326   3.596  18.298  0.00  0.00    +0.000 A 
ATOM     15  C   UNL     1       4.379   3.506  16.893  0.00  0.00    +0.000 A 
ATOM     16  C   UNL     1       5.418   4.079  16.151  0.00  0.00    +0.000 A 
ATOM     17  C   UNL     1       6.439   4.768  16.798  0.00  0.00    +0.000 A 
ATOM     18  C   UNL     1       6.418   4.865  18.184  0.00  0.00    +0.000 A 
ATOM     19 BR   UNL     1       7.799   5.801  19.075  0.00  0.00    +0.000 Br
ATOM     20  C   UNL     1       5.383   4.287  18.923  0.00  0.00    +0.000 A 
ENDBRANCH   3  14
BRANCH   1  21
ATOM     21  N   UNL     1       0.708   3.259  19.787  0.00  0.00    +0.000 NA
ATOM     22  H   UNL     1       0.150   3.730  20.498  0.00  0.00    +0.000 HD
ATOM     23  H   UNL     1       0.770   2.289  20.094  0.00  0.00    +0.000 HD
ENDBRANCH   1  21
TORSDOF 3
ENDMDL
