MODEL 1
REMARK VINA RESULT:      -7.7      0.000      0.000
REMARK  Name = 
REMARK  7 active torsions:
REMARK  status: ('A' for Active; 'I' for Inactive)
REMARK    1  A    between atoms: C_1  and  N_2
REMARK    2  A    between atoms: N_2  and  C_3
REMARK    3  A    between atoms: C_3  and  C_4
REMARK    4  A    between atoms: C_10  and  C_12
REMARK    5  A    between atoms: C_12  and  C_13
REMARK    6  A    between atoms: N_19  and  C_20
REMARK    7  A    between atoms: C_20  and  C_21
REMARK                            x       y       z     vdW  Elec       q    Type
REMARK                         _______ _______ _______ _____ _____    ______ ____
ROOT
ATOM      1  C   UNL     1       2.640   4.711  18.909  0.00  0.00    +0.000 C 
ATOM      2  C   UNL     1       1.616   3.724  19.538  0.00  0.00    +0.000 C 
ATOM      3  O   UNL     1       0.546   4.117  20.010  0.00  0.00    +0.000 OA
ATOM      4  N   UNL     1       1.864   2.384  19.496  0.00  0.00    +0.000 N 
ATOM      5  C   UNL     1       3.157   1.877  19.130  0.00  0.00    +0.000 C 
ATOM      6  C   UNL     1       3.737   2.705  17.983  0.00  0.00    +0.000 C 
ATOM      7  N   UNL     1       3.908   4.129  18.337  0.00  0.00    +0.000 NA
ATOM      8  H   UNL     1       1.218   1.819  20.033  0.00  0.00    +0.000 HD
ENDROOT
BRANCH   1   9
ATOM      9  C   UNL     1       2.713   5.962  19.817  0.00  0.00    +0.000 C 
BRANCH   9  12
ATOM     10  C   UNL     1       1.123   7.941  21.202  0.00  0.00    +0.000 C 
ATOM     11  N   UNL     1       1.647   8.219  19.873  0.00  0.00    +0.000 N 
ATOM     12  C   UNL     1       2.317   7.263  19.111  0.00  0.00    +0.000 C 
ATOM     13  O   UNL     1       2.568   7.455  17.920  0.00  0.00    +0.000 OA
BRANCH  11  14
ATOM     14  C   UNL     1       1.375   9.540  19.291  0.00  0.00    +0.000 C 
BRANCH  14  15
ATOM     15  C   UNL     1      -0.084  10.023  19.459  0.00  0.00    +0.000 C 
ATOM     16  C   UNL     1      -0.817  10.210  18.122  0.00  0.00    +0.000 C 
ATOM     17  C   UNL     1      -2.200  10.813  18.342  0.00  0.00    +0.000 C 
ATOM     18  O   UNL     1      -2.097  12.065  19.017  0.00  0.00    +0.000 OA
ATOM     19  C   UNL     1      -1.533  11.919  20.320  0.00  0.00    +0.000 C 
ATOM     20  C   UNL     1      -0.118  11.353  20.236  0.00  0.00    +0.000 C 
ENDBRANCH  14  15
ENDBRANCH  11  14
ENDBRANCH   9  12
ENDBRANCH   1   9
BRANCH   7  21
ATOM     21  C   UNL     1       5.146   4.367  19.097  0.00  0.00    +0.000 C 
BRANCH  21  22
ATOM     22  C   UNL     1       6.012   5.467  18.499  0.00  0.00    +0.000 A 
ATOM     23  C   UNL     1       5.640   6.130  17.320  0.00  0.00    +0.000 A 
ATOM     24  C   UNL     1       6.448   7.143  16.778  0.00  0.00    +0.000 A 
ATOM     25  C   UNL     1       7.636   7.504  17.412  0.00  0.00    +0.000 A 
ATOM     26  C   UNL     1       8.015   6.854  18.584  0.00  0.00    +0.000 A 
ATOM     27  C   UNL     1       7.207   5.850  19.118  0.00  0.00    +0.000 A 
ATOM     28  F   UNL     1       7.609   5.237  20.240  0.00  0.00    +0.000 F 
ENDBRANCH  21  22
ENDBRANCH   7  21
TORSDOF 6
ENDMDL
MODEL 2
REMARK VINA RESULT:      -7.7      1.424      1.607
REMARK  Name = 
REMARK  7 active torsions:
REMARK  status: ('A' for Active; 'I' for Inactive)
REMARK    1  A    between atoms: C_1  and  N_2
REMARK    2  A    between atoms: N_2  and  C_3
REMARK    3  A    between atoms: C_3  and  C_4
REMARK    4  A    between atoms: C_10  and  C_12
REMARK    5  A    between atoms: C_12  and  C_13
REMARK    6  A    between atoms: N_19  and  C_20
REMARK    7  A    between atoms: C_20  and  C_21
REMARK                            x       y       z     vdW  Elec       q    Type
REMARK                         _______ _______ _______ _____ _____    ______ ____
ROOT
ATOM      1  C   UNL     1       2.238   4.828  18.801  0.00  0.00    +0.000 C 
ATOM      2  C   UNL     1       1.369   4.060  19.837  0.00  0.00    +0.000 C 
ATOM      3  O   UNL     1       0.601   4.652  20.601  0.00  0.00    +0.000 OA
ATOM      4  N   UNL     1       1.389   2.697  19.851  0.00  0.00    +0.000 N 
ATOM      5  C   UNL     1       2.384   1.960  19.122  0.00  0.00    +0.000 C 
ATOM      6  C   UNL     1       2.638   2.623  17.768  0.00  0.00    +0.000 C 
ATOM      7  N   UNL     1       3.126   4.012  17.896  0.00  0.00    +0.000 NA
ATOM      8  H   UNL     1       0.899   2.275  20.629  0.00  0.00    +0.000 HD
ENDROOT
BRANCH   1   9
ATOM      9  C   UNL     1       2.805   6.087  19.498  0.00  0.00    +0.000 C 
BRANCH   9  12
ATOM     10  C   UNL     1       1.260   8.001  21.019  0.00  0.00    +0.000 C 
ATOM     11  N   UNL     1       1.717   8.328  19.676  0.00  0.00    +0.000 N 
ATOM     12  C   UNL     1       2.361   7.404  18.853  0.00  0.00    +0.000 C 
ATOM     13  O   UNL     1       2.552   7.637  17.659  0.00  0.00    +0.000 OA
BRANCH  11  14
ATOM     14  C   UNL     1       1.401   9.662  19.150  0.00  0.00    +0.000 C 
BRANCH  14  15
ATOM     15  C   UNL     1      -0.101  10.022  19.182  0.00  0.00    +0.000 C 
ATOM     16  C   UNL     1      -0.780   9.904  17.808  0.00  0.00    +0.000 C 
ATOM     17  C   UNL     1      -2.222  10.398  17.873  0.00  0.00    +0.000 C 
ATOM     18  O   UNL     1      -2.266  11.752  18.321  0.00  0.00    +0.000 OA
ATOM     19  C   UNL     1      -1.758  11.887  19.647  0.00  0.00    +0.000 C 
ATOM     20  C   UNL     1      -0.295  11.456  19.712  0.00  0.00    +0.000 C 
ENDBRANCH  14  15
ENDBRANCH  11  14
ENDBRANCH   9  12
ENDBRANCH   1   9
BRANCH   7  21
ATOM     21  C   UNL     1       4.573   4.068  18.163  0.00  0.00    +0.000 C 
BRANCH  21  22
ATOM     22  C   UNL     1       5.402   4.328  16.913  0.00  0.00    +0.000 A 
ATOM     23  C   UNL     1       4.822   4.310  15.635  0.00  0.00    +0.000 A 
ATOM     24  C   UNL     1       5.598   4.550  14.488  0.00  0.00    +0.000 A 
ATOM     25  C   UNL     1       6.961   4.814  14.610  0.00  0.00    +0.000 A 
ATOM     26  C   UNL     1       7.547   4.837  15.873  0.00  0.00    +0.000 A 
ATOM     27  C   UNL     1       6.771   4.599  17.008  0.00  0.00    +0.000 A 
ATOM     28  F   UNL     1       7.370   4.617  18.206  0.00  0.00    +0.000 F 
ENDBRANCH  21  22
ENDBRANCH   7  21
TORSDOF 6
ENDMDL
MODEL 3
REMARK VINA RESULT:      -7.6      2.196      4.563
REMARK  Name = 
REMARK  7 active torsions:
REMARK  status: ('A' for Active; 'I' for Inactive)
REMARK    1  A    between atoms: C_1  and  N_2
REMARK    2  A    between atoms: N_2  and  C_3
REMARK    3  A    between atoms: C_3  and  C_4
REMARK    4  A    between atoms: C_10  and  C_12
REMARK    5  A    between atoms: C_12  and  C_13
REMARK    6  A    between atoms: N_19  and  C_20
REMARK    7  A    between atoms: C_20  and  C_21
REMARK                            x       y       z     vdW  Elec       q    Type
REMARK                         _______ _______ _______ _____ _____    ______ ____
ROOT
ATOM      1  C   UNL     1       4.719   6.027  17.939  0.00  0.00    +0.000 C 
ATOM      2  C   UNL     1       5.553   6.614  16.765  0.00  0.00    +0.000 C 
ATOM      3  O   UNL     1       5.372   7.763  16.354  0.00  0.00    +0.000 OA
ATOM      4  N   UNL     1       6.567   5.876  16.228  0.00  0.00    +0.000 N 
ATOM      5  C   UNL     1       6.712   4.480  16.532  0.00  0.00    +0.000 C 
ATOM      6  C   UNL     1       6.410   4.233  18.010  0.00  0.00    +0.000 C 
ATOM      7  N   UNL     1       5.035   4.622  18.384  0.00  0.00    +0.000 NA
ATOM      8  H   UNL     1       6.978   6.270  15.392  0.00  0.00    +0.000 HD
ENDROOT
BRANCH   1   9
ATOM      9  C   UNL     1       3.246   6.454  17.732  0.00  0.00    +0.000 C 
BRANCH   9  12
ATOM     10  C   UNL     1       2.186   9.143  17.668  0.00  0.00    +0.000 C 
ATOM     11  N   UNL     1       2.006   8.311  18.849  0.00  0.00    +0.000 N 
ATOM     12  C   UNL     1       2.595   7.055  18.983  0.00  0.00    +0.000 C 
ATOM     13  O   UNL     1       2.599   6.462  20.063  0.00  0.00    +0.000 OA
BRANCH  11  14
ATOM     14  C   UNL     1       1.241   8.870  19.971  0.00  0.00    +0.000 C 
BRANCH  14  15
ATOM     15  C   UNL     1       0.668  10.282  19.713  0.00  0.00    +0.000 C 
ATOM     16  C   UNL     1       0.900  11.252  20.882  0.00  0.00    +0.000 C 
ATOM     17  C   UNL     1       0.200  12.583  20.629  0.00  0.00    +0.000 C 
ATOM     18  O   UNL     1      -1.198  12.383  20.435  0.00  0.00    +0.000 OA
ATOM     19  C   UNL     1      -1.465  11.587  19.282  0.00  0.00    +0.000 C 
ATOM     20  C   UNL     1      -0.844  10.200  19.427  0.00  0.00    +0.000 C 
ENDBRANCH  14  15
ENDBRANCH  11  14
ENDBRANCH   9  12
ENDBRANCH   1   9
BRANCH   7  21
ATOM     21  C   UNL     1       4.051   3.583  18.038  0.00  0.00    +0.000 C 
BRANCH  21  22
ATOM     22  C   UNL     1       3.071   3.288  19.165  0.00  0.00    +0.000 A 
ATOM     23  C   UNL     1       3.518   2.903  20.439  0.00  0.00    +0.000 A 
ATOM     24  C   UNL     1       2.604   2.633  21.471  0.00  0.00    +0.000 A 
ATOM     25  C   UNL     1       1.234   2.749  21.240  0.00  0.00    +0.000 A 
ATOM     26  C   UNL     1       0.779   3.132  19.980  0.00  0.00    +0.000 A 
ATOM     27  C   UNL     1       1.692   3.400  18.960  0.00  0.00    +0.000 A 
ATOM     28  F   UNL     1       1.219   3.755  17.758  0.00  0.00    +0.000 F 
ENDBRANCH  21  22
ENDBRANCH   7  21
TORSDOF 6
ENDMDL
MODEL 4
REMARK VINA RESULT:      -7.3      1.157      1.448
REMARK  Name = 
REMARK  7 active torsions:
REMARK  status: ('A' for Active; 'I' for Inactive)
REMARK    1  A    between atoms: C_1  and  N_2
REMARK    2  A    between atoms: N_2  and  C_3
REMARK    3  A    between atoms: C_3  and  C_4
REMARK    4  A    between atoms: C_10  and  C_12
REMARK    5  A    between atoms: C_12  and  C_13
REMARK    6  A    between atoms: N_19  and  C_20
REMARK    7  A    between atoms: C_20  and  C_21
REMARK                            x       y       z     vdW  Elec       q    Type
REMARK                         _______ _______ _______ _____ _____    ______ ____
ROOT
ATOM      1  C   UNL     1       2.471   4.547  18.963  0.00  0.00    +0.000 C 
ATOM      2  C   UNL     1       1.358   3.879  19.820  0.00  0.00    +0.000 C 
ATOM      3  O   UNL     1       0.471   4.545  20.359  0.00  0.00    +0.000 OA
ATOM      4  N   UNL     1       1.309   2.519  19.913  0.00  0.00    +0.000 N 
ATOM      5  C   UNL     1       2.404   1.703  19.467  0.00  0.00    +0.000 C 
ATOM      6  C   UNL     1       2.982   2.268  18.169  0.00  0.00    +0.000 C 
ATOM      7  N   UNL     1       3.496   3.644  18.326  0.00  0.00    +0.000 NA
ATOM      8  H   UNL     1       0.640   2.166  20.585  0.00  0.00    +0.000 HD
ENDROOT
BRANCH   1   9
ATOM      9  C   UNL     1       2.930   5.829  19.698  0.00  0.00    +0.000 C 
BRANCH   9  12
ATOM     10  C   UNL     1       1.270   7.795  21.017  0.00  0.00    +0.000 C 
ATOM     11  N   UNL     1       1.844   8.077  19.709  0.00  0.00    +0.000 N 
ATOM     12  C   UNL     1       2.552   7.126  18.975  0.00  0.00    +0.000 C 
ATOM     13  O   UNL     1       2.848   7.319  17.796  0.00  0.00    +0.000 OA
BRANCH  11  14
ATOM     14  C   UNL     1       1.584   9.396  19.116  0.00  0.00    +0.000 C 
BRANCH  14  15
ATOM     15  C   UNL     1       0.158   9.937  19.363  0.00  0.00    +0.000 C 
ATOM     16  C   UNL     1      -0.654  10.115  18.071  0.00  0.00    +0.000 C 
ATOM     17  C   UNL     1      -1.998  10.775  18.363  0.00  0.00    +0.000 C 
ATOM     18  O   UNL     1      -1.806  12.040  18.994  0.00  0.00    +0.000 OA
ATOM     19  C   UNL     1      -1.164  11.908  20.260  0.00  0.00    +0.000 C 
ATOM     20  C   UNL     1       0.221  11.287  20.102  0.00  0.00    +0.000 C 
ENDBRANCH  14  15
ENDBRANCH  11  14
ENDBRANCH   9  12
ENDBRANCH   1   9
BRANCH   7  21
ATOM     21  C   UNL     1       4.849   3.668  18.905  0.00  0.00    +0.000 C 
BRANCH  21  22
ATOM     22  C   UNL     1       5.755   4.712  18.267  0.00  0.00    +0.000 A 
ATOM     23  C   UNL     1       6.626   5.493  19.041  0.00  0.00    +0.000 A 
ATOM     24  C   UNL     1       7.456   6.455  18.442  0.00  0.00    +0.000 A 
ATOM     25  C   UNL     1       7.425   6.642  17.060  0.00  0.00    +0.000 A 
ATOM     26  C   UNL     1       6.565   5.871  16.281  0.00  0.00    +0.000 A 
ATOM     27  C   UNL     1       5.744   4.917  16.883  0.00  0.00    +0.000 A 
ATOM     28  F   UNL     1       4.921   4.202  16.105  0.00  0.00    +0.000 F 
ENDBRANCH  21  22
ENDBRANCH   7  21
TORSDOF 6
ENDMDL
MODEL 5
REMARK VINA RESULT:      -7.3      1.809      2.025
REMARK  Name = 
REMARK  7 active torsions:
REMARK  status: ('A' for Active; 'I' for Inactive)
REMARK    1  A    between atoms: C_1  and  N_2
REMARK    2  A    between atoms: N_2  and  C_3
REMARK    3  A    between atoms: C_3  and  C_4
REMARK    4  A    between atoms: C_10  and  C_12
REMARK    5  A    between atoms: C_12  and  C_13
REMARK    6  A    between atoms: N_19  and  C_20
REMARK    7  A    between atoms: C_20  and  C_21
REMARK                            x       y       z     vdW  Elec       q    Type
REMARK                         _______ _______ _______ _____ _____    ______ ____
ROOT
ATOM      1  C   UNL     1       3.063   4.701  19.265  0.00  0.00    +0.000 C 
ATOM      2  C   UNL     1       2.543   4.133  20.616  0.00  0.00    +0.000 C 
ATOM      3  O   UNL     1       1.835   4.806  21.370  0.00  0.00    +0.000 OA
ATOM      4  N   UNL     1       2.804   2.835  20.943  0.00  0.00    +0.000 N 
ATOM      5  C   UNL     1       3.765   2.061  20.207  0.00  0.00    +0.000 C 
ATOM      6  C   UNL     1       3.649   2.368  18.714  0.00  0.00    +0.000 C 
ATOM      7  N   UNL     1       3.902   3.791  18.404  0.00  0.00    +0.000 NA
ATOM      8  H   UNL     1       2.544   2.577  21.887  0.00  0.00    +0.000 HD
ENDROOT
BRANCH   1   9
ATOM      9  C   UNL     1       3.516   6.160  19.507  0.00  0.00    +0.000 C 
BRANCH   9  12
ATOM     10  C   UNL     1       1.528   8.113  20.277  0.00  0.00    +0.000 C 
ATOM     11  N   UNL     1       2.104   8.139  18.940  0.00  0.00    +0.000 N 
ATOM     12  C   UNL     1       2.975   7.155  18.475  0.00  0.00    +0.000 C 
ATOM     13  O   UNL     1       3.285   7.086  17.285  0.00  0.00    +0.000 OA
BRANCH  11  14
ATOM     14  C   UNL     1       1.671   9.206  18.028  0.00  0.00    +0.000 C 
BRANCH  14  15
ATOM     15  C   UNL     1       0.905  10.360  18.713  0.00  0.00    +0.000 C 
ATOM     16  C   UNL     1      -0.558  10.471  18.257  0.00  0.00    +0.000 C 
ATOM     17  C   UNL     1      -1.223  11.703  18.861  0.00  0.00    +0.000 C 
ATOM     18  O   UNL     1      -0.510  12.884  18.497  0.00  0.00    +0.000 OA
ATOM     19  C   UNL     1       0.821  12.879  19.010  0.00  0.00    +0.000 C 
ATOM     20  C   UNL     1       1.613  11.702  18.446  0.00  0.00    +0.000 C 
ENDBRANCH  14  15
ENDBRANCH  11  14
ENDBRANCH   9  12
ENDBRANCH   1   9
BRANCH   7  21
ATOM     21  C   UNL     1       5.339   4.094  18.326  0.00  0.00    +0.000 C 
BRANCH  21  22
ATOM     22  C   UNL     1       5.820   4.356  16.905  0.00  0.00    +0.000 A 
ATOM     23  C   UNL     1       4.937   4.305  15.815  0.00  0.00    +0.000 A 
ATOM     24  C   UNL     1       5.393   4.547  14.508  0.00  0.00    +0.000 A 
ATOM     25  C   UNL     1       6.735   4.846  14.280  0.00  0.00    +0.000 A 
ATOM     26  C   UNL     1       7.620   4.900  15.354  0.00  0.00    +0.000 A 
ATOM     27  C   UNL     1       7.161   4.660  16.650  0.00  0.00    +0.000 A 
ATOM     28  F   UNL     1       8.042   4.710  17.658  0.00  0.00    +0.000 F 
ENDBRANCH  21  22
ENDBRANCH   7  21
TORSDOF 6
ENDMDL
MODEL 6
REMARK VINA RESULT:      -7.3      1.921      4.319
REMARK  Name = 
REMARK  7 active torsions:
REMARK  status: ('A' for Active; 'I' for Inactive)
REMARK    1  A    between atoms: C_1  and  N_2
REMARK    2  A    between atoms: N_2  and  C_3
REMARK    3  A    between atoms: C_3  and  C_4
REMARK    4  A    between atoms: C_10  and  C_12
REMARK    5  A    between atoms: C_12  and  C_13
REMARK    6  A    between atoms: N_19  and  C_20
REMARK    7  A    between atoms: C_20  and  C_21
REMARK                            x       y       z     vdW  Elec       q    Type
REMARK                         _______ _______ _______ _____ _____    ______ ____
ROOT
ATOM      1  C   UNL     1       4.618   5.940  17.832  0.00  0.00    +0.000 C 
ATOM      2  C   UNL     1       5.393   6.519  16.615  0.00  0.00    +0.000 C 
ATOM      3  O   UNL     1       5.200   7.670  16.214  0.00  0.00    +0.000 OA
ATOM      4  N   UNL     1       6.370   5.772  16.025  0.00  0.00    +0.000 N 
ATOM      5  C   UNL     1       6.519   4.375  16.321  0.00  0.00    +0.000 C 
ATOM      6  C   UNL     1       6.294   4.130  17.814  0.00  0.00    +0.000 C 
ATOM      7  N   UNL     1       4.944   4.531  18.260  0.00  0.00    +0.000 NA
ATOM      8  H   UNL     1       6.740   6.163  15.168  0.00  0.00    +0.000 HD
ENDROOT
BRANCH   1   9
ATOM      9  C   UNL     1       3.139   6.379  17.705  0.00  0.00    +0.000 C 
BRANCH   9  12
ATOM     10  C   UNL     1       2.133   9.089  17.649  0.00  0.00    +0.000 C 
ATOM     11  N   UNL     1       2.002   8.282  18.854  0.00  0.00    +0.000 N 
ATOM     12  C   UNL     1       2.571   7.016  18.978  0.00  0.00    +0.000 C 
ATOM     13  O   UNL     1       2.623   6.442  20.066  0.00  0.00    +0.000 OA
BRANCH  11  14
ATOM     14  C   UNL     1       1.312   8.877  20.006  0.00  0.00    +0.000 C 
BRANCH  14  15
ATOM     15  C   UNL     1       0.701  10.271  19.735  0.00  0.00    +0.000 C 
ATOM     16  C   UNL     1       0.906  11.257  20.895  0.00  0.00    +0.000 C 
ATOM     17  C   UNL     1       0.170  12.566  20.629  0.00  0.00    +0.000 C 
ATOM     18  O   UNL     1      -1.223  12.326  20.436  0.00  0.00    +0.000 OA
ATOM     19  C   UNL     1      -1.466  11.512  19.290  0.00  0.00    +0.000 C 
ATOM     20  C   UNL     1      -0.807  10.145  19.447  0.00  0.00    +0.000 C 
ENDBRANCH  14  15
ENDBRANCH  11  14
ENDBRANCH   9  12
ENDBRANCH   1   9
BRANCH   7  21
ATOM     21  C   UNL     1       3.934   3.501  17.968  0.00  0.00    +0.000 C 
BRANCH  21  22
ATOM     22  C   UNL     1       2.996   3.235  19.137  0.00  0.00    +0.000 A 
ATOM     23  C   UNL     1       1.616   3.464  19.032  0.00  0.00    +0.000 A 
ATOM     24  C   UNL     1       0.760   3.215  20.119  0.00  0.00    +0.000 A 
ATOM     25  C   UNL     1       1.278   2.731  21.319  0.00  0.00    +0.000 A 
ATOM     26  C   UNL     1       2.646   2.497  21.434  0.00  0.00    +0.000 A 
ATOM     27  C   UNL     1       3.490   2.745  20.351  0.00  0.00    +0.000 A 
ATOM     28  F   UNL     1       4.802   2.520  20.500  0.00  0.00    +0.000 F 
ENDBRANCH  21  22
ENDBRANCH   7  21
TORSDOF 6
ENDMDL
MODEL 7
REMARK VINA RESULT:      -7.2      1.692      2.029
REMARK  Name = 
REMARK  7 active torsions:
REMARK  status: ('A' for Active; 'I' for Inactive)
REMARK    1  A    between atoms: C_1  and  N_2
REMARK    2  A    between atoms: N_2  and  C_3
REMARK    3  A    between atoms: C_3  and  C_4
REMARK    4  A    between atoms: C_10  and  C_12
REMARK    5  A    between atoms: C_12  and  C_13
REMARK    6  A    between atoms: N_19  and  C_20
REMARK    7  A    between atoms: C_20  and  C_21
REMARK                            x       y       z     vdW  Elec       q    Type
REMARK                         _______ _______ _______ _____ _____    ______ ____
ROOT
ATOM      1  C   UNL     1       2.236   5.938  18.921  0.00  0.00    +0.000 C 
ATOM      2  C   UNL     1       1.985   4.867  20.021  0.00  0.00    +0.000 C 
ATOM      3  O   UNL     1       1.236   5.084  20.976  0.00  0.00    +0.000 OA
ATOM      4  N   UNL     1       2.539   3.628  19.887  0.00  0.00    +0.000 N 
ATOM      5  C   UNL     1       3.556   3.368  18.907  0.00  0.00    +0.000 C 
ATOM      6  C   UNL     1       3.227   4.101  17.606  0.00  0.00    +0.000 C 
ATOM      7  N   UNL     1       3.150   5.566  17.782  0.00  0.00    +0.000 NA
ATOM      8  H   UNL     1       2.436   3.030  20.698  0.00  0.00    +0.000 HD
ENDROOT
BRANCH   1   9
ATOM      9  C   UNL     1       2.404   7.307  19.624  0.00  0.00    +0.000 C 
BRANCH   9  12
ATOM     10  C   UNL     1       0.526   8.973  21.058  0.00  0.00    +0.000 C 
ATOM     11  N   UNL     1       0.890   9.291  19.685  0.00  0.00    +0.000 N 
ATOM     12  C   UNL     1       1.695   8.461  18.907  0.00  0.00    +0.000 C 
ATOM     13  O   UNL     1       1.819   8.644  17.695  0.00  0.00    +0.000 OA
BRANCH  11  14
ATOM     14  C   UNL     1       0.305  10.497  19.083  0.00  0.00    +0.000 C 
BRANCH  14  15
ATOM     15  C   UNL     1      -1.208  10.392  18.784  0.00  0.00    +0.000 C 
ATOM     16  C   UNL     1      -1.511   9.939  17.348  0.00  0.00    +0.000 C 
ATOM     17  C   UNL     1      -3.010   9.983  17.070  0.00  0.00    +0.000 C 
ATOM     18  O   UNL     1      -3.518  11.299  17.281  0.00  0.00    +0.000 OA
ATOM     19  C   UNL     1      -3.369  11.712  18.638  0.00  0.00    +0.000 C 
ATOM     20  C   UNL     1      -1.896  11.747  19.034  0.00  0.00    +0.000 C 
ENDBRANCH  14  15
ENDBRANCH  11  14
ENDBRANCH   9  12
ENDBRANCH   1   9
BRANCH   7  21
ATOM     21  C   UNL     1       4.480   6.197  17.768  0.00  0.00    +0.000 C 
BRANCH  21  22
ATOM     22  C   UNL     1       5.408   5.613  16.712  0.00  0.00    +0.000 A 
ATOM     23  C   UNL     1       5.172   5.809  15.343  0.00  0.00    +0.000 A 
ATOM     24  C   UNL     1       6.036   5.263  14.378  0.00  0.00    +0.000 A 
ATOM     25  C   UNL     1       7.146   4.519  14.775  0.00  0.00    +0.000 A 
ATOM     26  C   UNL     1       7.391   4.320  16.131  0.00  0.00    +0.000 A 
ATOM     27  C   UNL     1       6.530   4.865  17.084  0.00  0.00    +0.000 A 
ATOM     28  F   UNL     1       6.790   4.643  18.379  0.00  0.00    +0.000 F 
ENDBRANCH  21  22
ENDBRANCH   7  21
TORSDOF 6
ENDMDL
MODEL 8
REMARK VINA RESULT:      -7.2      2.459      4.609
REMARK  Name = 
REMARK  7 active torsions:
REMARK  status: ('A' for Active; 'I' for Inactive)
REMARK    1  A    between atoms: C_1  and  N_2
REMARK    2  A    between atoms: N_2  and  C_3
REMARK    3  A    between atoms: C_3  and  C_4
REMARK    4  A    between atoms: C_10  and  C_12
REMARK    5  A    between atoms: C_12  and  C_13
REMARK    6  A    between atoms: N_19  and  C_20
REMARK    7  A    between atoms: C_20  and  C_21
REMARK                            x       y       z     vdW  Elec       q    Type
REMARK                         _______ _______ _______ _____ _____    ______ ____
ROOT
ATOM      1  C   UNL     1       5.695   5.363  17.631  0.00  0.00    +0.000 C 
ATOM      2  C   UNL     1       6.487   6.292  16.667  0.00  0.00    +0.000 C 
ATOM      3  O   UNL     1       6.959   7.367  17.047  0.00  0.00    +0.000 OA
ATOM      4  N   UNL     1       6.739   5.877  15.393  0.00  0.00    +0.000 N 
ATOM      5  C   UNL     1       6.071   4.733  14.837  0.00  0.00    +0.000 C 
ATOM      6  C   UNL     1       5.953   3.633  15.892  0.00  0.00    +0.000 C 
ATOM      7  N   UNL     1       5.180   4.060  17.076  0.00  0.00    +0.000 NA
ATOM      8  H   UNL     1       7.146   6.582  14.792  0.00  0.00    +0.000 HD
ENDROOT
BRANCH   1   9
ATOM      9  C   UNL     1       4.763   6.254  18.488  0.00  0.00    +0.000 C 
BRANCH   9  12
ATOM     10  C   UNL     1       2.343   7.265  19.704  0.00  0.00    +0.000 C 
ATOM     11  N   UNL     1       2.692   7.640  18.341  0.00  0.00    +0.000 N 
ATOM     12  C   UNL     1       3.780   7.092  17.664  0.00  0.00    +0.000 C 
ATOM     13  O   UNL     1       3.934   7.267  16.454  0.00  0.00    +0.000 OA
BRANCH  11  14
ATOM     14  C   UNL     1       1.800   8.570  17.636  0.00  0.00    +0.000 C 
BRANCH  14  15
ATOM     15  C   UNL     1       1.272   9.732  18.508  0.00  0.00    +0.000 C 
ATOM     16  C   UNL     1      -0.225  10.010  18.303  0.00  0.00    +0.000 C 
ATOM     17  C   UNL     1      -0.658  11.247  19.084  0.00  0.00    +0.000 C 
ATOM     18  O   UNL     1       0.105  12.383  18.683  0.00  0.00    +0.000 OA
ATOM     19  C   UNL     1       1.492  12.217  18.971  0.00  0.00    +0.000 C 
ATOM     20  C   UNL     1       2.063  11.021  18.214  0.00  0.00    +0.000 C 
ENDBRANCH  14  15
ENDBRANCH  11  14
ENDBRANCH   9  12
ENDBRANCH   1   9
BRANCH   7  21
ATOM     21  C   UNL     1       3.728   3.964  16.854  0.00  0.00    +0.000 C 
BRANCH  21  22
ATOM     22  C   UNL     1       2.957   3.566  18.105  0.00  0.00    +0.000 A 
ATOM     23  C   UNL     1       3.553   2.797  19.116  0.00  0.00    +0.000 A 
ATOM     24  C   UNL     1       2.830   2.434  20.266  0.00  0.00    +0.000 A 
ATOM     25  C   UNL     1       1.505   2.842  20.416  0.00  0.00    +0.000 A 
ATOM     26  C   UNL     1       0.904   3.608  19.420  0.00  0.00    +0.000 A 
ATOM     27  C   UNL     1       1.627   3.964  18.281  0.00  0.00    +0.000 A 
ATOM     28  F   UNL     1       1.014   4.691  17.338  0.00  0.00    +0.000 F 
ENDBRANCH  21  22
ENDBRANCH   7  21
TORSDOF 6
ENDMDL
MODEL 9
REMARK VINA RESULT:      -7.0      2.695      4.673
REMARK  Name = 
REMARK  7 active torsions:
REMARK  status: ('A' for Active; 'I' for Inactive)
REMARK    1  A    between atoms: C_1  and  N_2
REMARK    2  A    between atoms: N_2  and  C_3
REMARK    3  A    between atoms: C_3  and  C_4
REMARK    4  A    between atoms: C_10  and  C_12
REMARK    5  A    between atoms: C_12  and  C_13
REMARK    6  A    between atoms: N_19  and  C_20
REMARK    7  A    between atoms: C_20  and  C_21
REMARK                            x       y       z     vdW  Elec       q    Type
REMARK                         _______ _______ _______ _____ _____    ______ ____
ROOT
ATOM      1  C   UNL     1       4.593   5.733  17.255  0.00  0.00    +0.000 C 
ATOM      2  C   UNL     1       5.177   6.312  15.935  0.00  0.00    +0.000 C 
ATOM      3  O   UNL     1       5.110   7.516  15.672  0.00  0.00    +0.000 OA
ATOM      4  N   UNL     1       5.852   5.489  15.082  0.00  0.00    +0.000 N 
ATOM      5  C   UNL     1       5.809   4.061  15.236  0.00  0.00    +0.000 C 
ATOM      6  C   UNL     1       5.873   3.693  16.719  0.00  0.00    +0.000 C 
ATOM      7  N   UNL     1       4.747   4.252  17.494  0.00  0.00    +0.000 NA
ATOM      8  H   UNL     1       6.090   5.908  14.192  0.00  0.00    +0.000 HD
ENDROOT
BRANCH   1   9
ATOM      9  C   UNL     1       3.226   6.412  17.507  0.00  0.00    +0.000 C 
BRANCH   9  12
ATOM     10  C   UNL     1       1.588   8.691  18.201  0.00  0.00    +0.000 C 
ATOM     11  N   UNL     1       2.079   7.797  19.239  0.00  0.00    +0.000 N 
ATOM     12  C   UNL     1       2.967   6.755  18.978  0.00  0.00    +0.000 C 
ATOM     13  O   UNL     1       3.524   6.145  19.892  0.00  0.00    +0.000 OA
BRANCH  11  14
ATOM     14  C   UNL     1       1.680   8.072  20.625  0.00  0.00    +0.000 C 
BRANCH  14  15
ATOM     15  C   UNL     1       0.714   9.267  20.787  0.00  0.00    +0.000 C 
ATOM     16  C   UNL     1       1.404  10.630  20.622  0.00  0.00    +0.000 C 
ATOM     17  C   UNL     1       0.436  11.768  20.923  0.00  0.00    +0.000 C 
ATOM     18  O   UNL     1      -0.083  11.645  22.246  0.00  0.00    +0.000 OA
ATOM     19  C   UNL     1      -0.841  10.448  22.408  0.00  0.00    +0.000 C 
ATOM     20  C   UNL     1       0.032   9.219  22.168  0.00  0.00    +0.000 C 
ENDBRANCH  14  15
ENDBRANCH  11  14
ENDBRANCH   9  12
ENDBRANCH   1   9
BRANCH   7  21
ATOM     21  C   UNL     1       3.530   3.433  17.373  0.00  0.00    +0.000 C 
BRANCH  21  22
ATOM     22  C   UNL     1       2.829   3.202  18.705  0.00  0.00    +0.000 A 
ATOM     23  C   UNL     1       3.533   2.743  19.829  0.00  0.00    +0.000 A 
ATOM     24  C   UNL     1       2.875   2.532  21.053  0.00  0.00    +0.000 A 
ATOM     25  C   UNL     1       1.508   2.781  21.164  0.00  0.00    +0.000 A 
ATOM     26  C   UNL     1       0.800   3.239  20.055  0.00  0.00    +0.000 A 
ATOM     27  C   UNL     1       1.459   3.447  18.843  0.00  0.00    +0.000 A 
ATOM     28  F   UNL     1       0.745   3.876  17.794  0.00  0.00    +0.000 F 
ENDBRANCH  21  22
ENDBRANCH   7  21
TORSDOF 6
ENDMDL
