MODEL 1
REMARK VINA RESULT:      -7.9      0.000      0.000
REMARK  Name = 
REMARK  7 active torsions:
REMARK  status: ('A' for Active; 'I' for Inactive)
REMARK    1  A    between atoms: C_1  and  C_2
REMARK    2  A    between atoms: C_2  and  C_3
REMARK    3  A    between atoms: C_6  and  C_7
REMARK    4  A    between atoms: C_8  and  C_9
REMARK    5  A    between atoms: N_11  and  C_12
REMARK    6  A    between atoms: C_12  and  C_13
REMARK    7  A    between atoms: C_13  and  C_14
REMARK                            x       y       z     vdW  Elec       q    Type
REMARK                         _______ _______ _______ _____ _____    ______ ____
ROOT
ATOM      1  C   UNL     1       5.527   4.041  17.761  0.00  0.00    +0.000 C 
ATOM      2  O   UNL     1       5.644   4.068  18.981  0.00  0.00    +0.000 OA
ATOM      3  N   UNL     1       4.581   3.240  17.154  0.00  0.00    +0.000 N 
ATOM      4  H   UNL     1       4.501   3.202  16.153  0.00  0.00    +0.000 HD
ENDROOT
BRANCH   1  10
ATOM      5  C   UNL     1       6.534   4.698  15.475  0.00  0.00    +0.000 A 
ATOM      6  N   UNL     1       7.383   5.604  14.976  0.00  0.00    +0.000 NA
ATOM      7  O   UNL     1       7.815   6.343  16.049  0.00  0.00    +0.000 OA
ATOM      8  C   UNL     1       7.232   5.892  17.191  0.00  0.00    +0.000 A 
ATOM      9  C   UNL     1       7.657   6.609  18.408  0.00  0.00    +0.000 C 
ATOM     10  C   UNL     1       6.378   4.844  16.892  0.00  0.00    +0.000 A 
BRANCH   5  12
ATOM     11  C   UNL     1       6.399   3.895  13.115  0.00  0.00    +0.000 C 
ATOM     12  C   UNL     1       5.926   3.697  14.548  0.00  0.00    +0.000 C 
ENDBRANCH   5  12
ENDBRANCH   1  10
BRANCH   3  13
ATOM     13  C   UNL     1       3.706   2.403  17.955  0.00  0.00    +0.000 C 
BRANCH  13  14
ATOM     14  C   UNL     1       2.255   2.881  17.922  0.00  0.00    +0.000 C 
BRANCH  14  15
ATOM     15  C   UNL     1       2.084   4.180  18.669  0.00  0.00    +0.000 A 
ATOM     16  C   UNL     1       2.287   5.405  18.018  0.00  0.00    +0.000 A 
ATOM     17  C   UNL     1       2.172   6.606  18.722  0.00  0.00    +0.000 A 
ATOM     18  C   UNL     1       1.858   6.587  20.079  0.00  0.00    +0.000 A 
ATOM     19 CL   UNL     1       1.729   8.066  20.947  0.00  0.00    +0.000 Cl
ATOM     20  C   UNL     1       1.654   5.376  20.737  0.00  0.00    +0.000 A 
ATOM     21  C   UNL     1       1.769   4.175  20.035  0.00  0.00    +0.000 A 
ENDBRANCH  14  15
ENDBRANCH  13  14
ENDBRANCH   3  13
TORSDOF 5
ENDMDL
MODEL 2
REMARK VINA RESULT:      -7.8      0.159      1.092
REMARK  Name = 
REMARK  7 active torsions:
REMARK  status: ('A' for Active; 'I' for Inactive)
REMARK    1  A    between atoms: C_1  and  C_2
REMARK    2  A    between atoms: C_2  and  C_3
REMARK    3  A    between atoms: C_6  and  C_7
REMARK    4  A    between atoms: C_8  and  C_9
REMARK    5  A    between atoms: N_11  and  C_12
REMARK    6  A    between atoms: C_12  and  C_13
REMARK    7  A    between atoms: C_13  and  C_14
REMARK                            x       y       z     vdW  Elec       q    Type
REMARK                         _______ _______ _______ _____ _____    ______ ____
ROOT
ATOM      1  C   UNL     1       5.501   3.961  17.868  0.00  0.00    +0.000 C 
ATOM      2  O   UNL     1       5.623   3.923  19.087  0.00  0.00    +0.000 OA
ATOM      3  N   UNL     1       4.540   3.207  17.225  0.00  0.00    +0.000 N 
ATOM      4  H   UNL     1       4.455   3.223  16.223  0.00  0.00    +0.000 HD
ENDROOT
BRANCH   1  10
ATOM      5  C   UNL     1       6.471   4.755  15.610  0.00  0.00    +0.000 A 
ATOM      6  N   UNL     1       7.343   5.662  15.156  0.00  0.00    +0.000 NA
ATOM      7  O   UNL     1       7.836   6.297  16.270  0.00  0.00    +0.000 OA
ATOM      8  C   UNL     1       7.266   5.782  17.391  0.00  0.00    +0.000 A 
ATOM      9  C   UNL     1       7.753   6.384  18.646  0.00  0.00    +0.000 C 
ATOM     10  C   UNL     1       6.361   4.795  17.038  0.00  0.00    +0.000 A 
BRANCH   5  12
ATOM     11  C   UNL     1       6.459   3.916  13.258  0.00  0.00    +0.000 C 
ATOM     12  C   UNL     1       5.797   3.854  14.627  0.00  0.00    +0.000 C 
ENDBRANCH   5  12
ENDBRANCH   1  10
BRANCH   3  13
ATOM     13  C   UNL     1       3.655   2.344  17.985  0.00  0.00    +0.000 C 
BRANCH  13  14
ATOM     14  C   UNL     1       2.218   2.862  18.011  0.00  0.00    +0.000 C 
BRANCH  14  15
ATOM     15  C   UNL     1       2.117   4.175  18.744  0.00  0.00    +0.000 A 
ATOM     16  C   UNL     1       1.848   4.201  20.120  0.00  0.00    +0.000 A 
ATOM     17  C   UNL     1       1.711   5.419  20.789  0.00  0.00    +0.000 A 
ATOM     18  C   UNL     1       1.837   6.615  20.086  0.00  0.00    +0.000 A 
ATOM     19 CL   UNL     1       1.656   8.114  20.909  0.00  0.00    +0.000 Cl
ATOM     20  C   UNL     1       2.105   6.603  18.718  0.00  0.00    +0.000 A 
ATOM     21  C   UNL     1       2.242   5.386  18.048  0.00  0.00    +0.000 A 
ENDBRANCH  14  15
ENDBRANCH  13  14
ENDBRANCH   3  13
TORSDOF 5
ENDMDL
MODEL 3
REMARK VINA RESULT:      -7.6      2.114      3.687
REMARK  Name = 
REMARK  7 active torsions:
REMARK  status: ('A' for Active; 'I' for Inactive)
REMARK    1  A    between atoms: C_1  and  C_2
REMARK    2  A    between atoms: C_2  and  C_3
REMARK    3  A    between atoms: C_6  and  C_7
REMARK    4  A    between atoms: C_8  and  C_9
REMARK    5  A    between atoms: N_11  and  C_12
REMARK    6  A    between atoms: C_12  and  C_13
REMARK    7  A    between atoms: C_13  and  C_14
REMARK                            x       y       z     vdW  Elec       q    Type
REMARK                         _______ _______ _______ _____ _____    ______ ____
ROOT
ATOM      1  C   UNL     1       5.224   6.500  16.474  0.00  0.00    +0.000 C 
ATOM      2  O   UNL     1       4.954   7.148  15.469  0.00  0.00    +0.000 OA
ATOM      3  N   UNL     1       4.522   6.684  17.648  0.00  0.00    +0.000 N 
ATOM      4  H   UNL     1       4.758   6.168  18.478  0.00  0.00    +0.000 HD
ENDROOT
BRANCH   1  10
ATOM      5  C   UNL     1       7.333   5.387  17.464  0.00  0.00    +0.000 A 
ATOM      6  N   UNL     1       8.153   4.367  17.186  0.00  0.00    +0.000 NA
ATOM      7  O   UNL     1       7.688   3.820  16.016  0.00  0.00    +0.000 OA
ATOM      8  C   UNL     1       6.591   4.500  15.588  0.00  0.00    +0.000 A 
ATOM      9  C   UNL     1       6.032   4.002  14.317  0.00  0.00    +0.000 C 
ATOM     10  C   UNL     1       6.295   5.513  16.484  0.00  0.00    +0.000 A 
BRANCH   5  12
ATOM     11  C   UNL     1       8.121   7.610  18.285  0.00  0.00    +0.000 C 
ATOM     12  C   UNL     1       7.615   6.226  18.667  0.00  0.00    +0.000 C 
ENDBRANCH   5  12
ENDBRANCH   1  10
BRANCH   3  13
ATOM     13  C   UNL     1       3.449   7.659  17.717  0.00  0.00    +0.000 C 
BRANCH  13  14
ATOM     14  C   UNL     1       2.068   7.008  17.670  0.00  0.00    +0.000 C 
BRANCH  14  15
ATOM     15  C   UNL     1       1.961   5.869  18.651  0.00  0.00    +0.000 A 
ATOM     16  C   UNL     1       2.107   6.100  20.027  0.00  0.00    +0.000 A 
ATOM     17  C   UNL     1       2.053   5.037  20.930  0.00  0.00    +0.000 A 
ATOM     18  C   UNL     1       1.855   3.739  20.464  0.00  0.00    +0.000 A 
ATOM     19 CL   UNL     1       1.800   2.430  21.578  0.00  0.00    +0.000 Cl
ATOM     20  C   UNL     1       1.708   3.496  19.100  0.00  0.00    +0.000 A 
ATOM     21  C   UNL     1       1.763   4.557  18.196  0.00  0.00    +0.000 A 
ENDBRANCH  14  15
ENDBRANCH  13  14
ENDBRANCH   3  13
TORSDOF 5
ENDMDL
MODEL 4
REMARK VINA RESULT:      -7.6      0.543      2.603
REMARK  Name = 
REMARK  7 active torsions:
REMARK  status: ('A' for Active; 'I' for Inactive)
REMARK    1  A    between atoms: C_1  and  C_2
REMARK    2  A    between atoms: C_2  and  C_3
REMARK    3  A    between atoms: C_6  and  C_7
REMARK    4  A    between atoms: C_8  and  C_9
REMARK    5  A    between atoms: N_11  and  C_12
REMARK    6  A    between atoms: C_12  and  C_13
REMARK    7  A    between atoms: C_13  and  C_14
REMARK                            x       y       z     vdW  Elec       q    Type
REMARK                         _______ _______ _______ _____ _____    ______ ____
ROOT
ATOM      1  C   UNL     1       5.533   3.935  17.700  0.00  0.00    +0.000 C 
ATOM      2  O   UNL     1       5.767   3.902  18.903  0.00  0.00    +0.000 OA
ATOM      3  N   UNL     1       4.501   3.198  17.155  0.00  0.00    +0.000 N 
ATOM      4  H   UNL     1       4.324   3.209  16.165  0.00  0.00    +0.000 HD
ENDROOT
BRANCH   1  10
ATOM      5  C   UNL     1       7.123   5.888  17.130  0.00  0.00    +0.000 A 
ATOM      6  N   UNL     1       7.742   6.398  16.058  0.00  0.00    +0.000 NA
ATOM      7  O   UNL     1       7.353   5.620  14.996  0.00  0.00    +0.000 OA
ATOM      8  C   UNL     1       6.507   4.643  15.419  0.00  0.00    +0.000 A 
ATOM      9  C   UNL     1       6.010   3.768  14.340  0.00  0.00    +0.000 C 
ATOM     10  C   UNL     1       6.329   4.745  16.788  0.00  0.00    +0.000 A 
BRANCH   5  12
ATOM     11  C   UNL     1       8.179   7.803  18.337  0.00  0.00    +0.000 C 
ATOM     12  C   UNL     1       7.307   6.560  18.451  0.00  0.00    +0.000 C 
ENDBRANCH   5  12
ENDBRANCH   1  10
BRANCH   3  13
ATOM     13  C   UNL     1       3.673   2.358  18.001  0.00  0.00    +0.000 C 
BRANCH  13  14
ATOM     14  C   UNL     1       2.227   2.849  18.070  0.00  0.00    +0.000 C 
BRANCH  14  15
ATOM     15  C   UNL     1       2.124   4.161  18.805  0.00  0.00    +0.000 A 
ATOM     16  C   UNL     1       1.798   4.187  20.169  0.00  0.00    +0.000 A 
ATOM     17  C   UNL     1       1.659   5.404  20.839  0.00  0.00    +0.000 A 
ATOM     18  C   UNL     1       1.841   6.600  20.148  0.00  0.00    +0.000 A 
ATOM     19 CL   UNL     1       1.658   8.099  20.971  0.00  0.00    +0.000 Cl
ATOM     20  C   UNL     1       2.166   6.589  18.793  0.00  0.00    +0.000 A 
ATOM     21  C   UNL     1       2.305   5.372  18.123  0.00  0.00    +0.000 A 
ENDBRANCH  14  15
ENDBRANCH  13  14
ENDBRANCH   3  13
TORSDOF 5
ENDMDL
MODEL 5
REMARK VINA RESULT:      -7.5      1.978      2.858
REMARK  Name = 
REMARK  7 active torsions:
REMARK  status: ('A' for Active; 'I' for Inactive)
REMARK    1  A    between atoms: C_1  and  C_2
REMARK    2  A    between atoms: C_2  and  C_3
REMARK    3  A    between atoms: C_6  and  C_7
REMARK    4  A    between atoms: C_8  and  C_9
REMARK    5  A    between atoms: N_11  and  C_12
REMARK    6  A    between atoms: C_12  and  C_13
REMARK    7  A    between atoms: C_13  and  C_14
REMARK                            x       y       z     vdW  Elec       q    Type
REMARK                         _______ _______ _______ _____ _____    ______ ____
ROOT
ATOM      1  C   UNL     1       4.638   4.899  17.025  0.00  0.00    +0.000 C 
ATOM      2  O   UNL     1       4.335   3.743  17.299  0.00  0.00    +0.000 OA
ATOM      3  N   UNL     1       3.843   5.956  17.419  0.00  0.00    +0.000 N 
ATOM      4  H   UNL     1       4.081   6.902  17.175  0.00  0.00    +0.000 HD
ENDROOT
BRANCH   1  10
ATOM      5  C   UNL     1       6.182   4.737  14.961  0.00  0.00    +0.000 A 
ATOM      6  N   UNL     1       7.356   5.228  14.545  0.00  0.00    +0.000 NA
ATOM      7  O   UNL     1       7.817   6.016  15.571  0.00  0.00    +0.000 OA
ATOM      8  C   UNL     1       6.930   6.006  16.601  0.00  0.00    +0.000 A 
ATOM      9  C   UNL     1       7.352   6.805  17.767  0.00  0.00    +0.000 C 
ATOM     10  C   UNL     1       5.843   5.216  16.268  0.00  0.00    +0.000 A 
BRANCH   5  12
ATOM     11  C   UNL     1       6.141   3.618  12.729  0.00  0.00    +0.000 C 
ATOM     12  C   UNL     1       5.448   3.787  14.074  0.00  0.00    +0.000 C 
ENDBRANCH   5  12
ENDBRANCH   1  10
BRANCH   3  13
ATOM     13  C   UNL     1       2.621   5.716  18.165  0.00  0.00    +0.000 C 
BRANCH  13  14
ATOM     14  C   UNL     1       2.679   6.297  19.577  0.00  0.00    +0.000 C 
BRANCH  14  15
ATOM     15  C   UNL     1       2.001   7.642  19.649  0.00  0.00    +0.000 A 
ATOM     16  C   UNL     1       1.391   8.068  20.838  0.00  0.00    +0.000 A 
ATOM     17  C   UNL     1       0.724   9.293  20.889  0.00  0.00    +0.000 A 
ATOM     18  C   UNL     1       0.661  10.097  19.753  0.00  0.00    +0.000 A 
ATOM     19 CL   UNL     1      -0.170  11.602  19.816  0.00  0.00    +0.000 Cl
ATOM     20  C   UNL     1       1.263   9.687  18.566  0.00  0.00    +0.000 A 
ATOM     21  C   UNL     1       1.929   8.461  18.513  0.00  0.00    +0.000 A 
ENDBRANCH  14  15
ENDBRANCH  13  14
ENDBRANCH   3  13
TORSDOF 5
ENDMDL
MODEL 6
REMARK VINA RESULT:      -7.5      1.392      2.779
REMARK  Name = 
REMARK  7 active torsions:
REMARK  status: ('A' for Active; 'I' for Inactive)
REMARK    1  A    between atoms: C_1  and  C_2
REMARK    2  A    between atoms: C_2  and  C_3
REMARK    3  A    between atoms: C_6  and  C_7
REMARK    4  A    between atoms: C_8  and  C_9
REMARK    5  A    between atoms: N_11  and  C_12
REMARK    6  A    between atoms: C_12  and  C_13
REMARK    7  A    between atoms: C_13  and  C_14
REMARK                            x       y       z     vdW  Elec       q    Type
REMARK                         _______ _______ _______ _____ _____    ______ ____
ROOT
ATOM      1  C   UNL     1       4.536   3.930  16.605  0.00  0.00    +0.000 C 
ATOM      2  O   UNL     1       3.439   4.476  16.567  0.00  0.00    +0.000 OA
ATOM      3  N   UNL     1       4.693   2.686  17.181  0.00  0.00    +0.000 N 
ATOM      4  H   UNL     1       5.597   2.248  17.232  0.00  0.00    +0.000 HD
ENDROOT
BRANCH   1  10
ATOM      5  C   UNL     1       6.585   5.498  16.722  0.00  0.00    +0.000 A 
ATOM      6  N   UNL     1       7.600   5.882  15.939  0.00  0.00    +0.000 NA
ATOM      7  O   UNL     1       7.417   5.233  14.743  0.00  0.00    +0.000 OA
ATOM      8  C   UNL     1       6.302   4.457  14.800  0.00  0.00    +0.000 A 
ATOM      9  C   UNL     1       6.005   3.736  13.547  0.00  0.00    +0.000 C 
ATOM     10  C   UNL     1       5.726   4.565  16.054  0.00  0.00    +0.000 A 
BRANCH   5  12
ATOM     11  C   UNL     1       7.815   6.091  18.813  0.00  0.00    +0.000 C 
ATOM     12  C   UNL     1       6.474   6.084  18.091  0.00  0.00    +0.000 C 
ENDBRANCH   5  12
ENDBRANCH   1  10
BRANCH   3  13
ATOM     13  C   UNL     1       3.554   1.998  17.762  0.00  0.00    +0.000 C 
BRANCH  13  14
ATOM     14  C   UNL     1       3.540   2.083  19.288  0.00  0.00    +0.000 C 
BRANCH  14  15
ATOM     15  C   UNL     1       2.930   3.377  19.763  0.00  0.00    +0.000 A 
ATOM     16  C   UNL     1       1.568   3.441  20.092  0.00  0.00    +0.000 A 
ATOM     17  C   UNL     1       0.994   4.651  20.489  0.00  0.00    +0.000 A 
ATOM     18  C   UNL     1       1.777   5.801  20.555  0.00  0.00    +0.000 A 
ATOM     19 CL   UNL     1       1.066   7.292  21.033  0.00  0.00    +0.000 Cl
ATOM     20  C   UNL     1       3.131   5.751  20.231  0.00  0.00    +0.000 A 
ATOM     21  C   UNL     1       3.706   4.543  19.833  0.00  0.00    +0.000 A 
ENDBRANCH  14  15
ENDBRANCH  13  14
ENDBRANCH   3  13
TORSDOF 5
ENDMDL
MODEL 7
REMARK VINA RESULT:      -7.4      1.395      2.637
REMARK  Name = 
REMARK  7 active torsions:
REMARK  status: ('A' for Active; 'I' for Inactive)
REMARK    1  A    between atoms: C_1  and  C_2
REMARK    2  A    between atoms: C_2  and  C_3
REMARK    3  A    between atoms: C_6  and  C_7
REMARK    4  A    between atoms: C_8  and  C_9
REMARK    5  A    between atoms: N_11  and  C_12
REMARK    6  A    between atoms: C_12  and  C_13
REMARK    7  A    between atoms: C_13  and  C_14
REMARK                            x       y       z     vdW  Elec       q    Type
REMARK                         _______ _______ _______ _____ _____    ______ ____
ROOT
ATOM      1  C   UNL     1       4.644   3.935  16.505  0.00  0.00    +0.000 C 
ATOM      2  O   UNL     1       3.498   4.286  16.246  0.00  0.00    +0.000 OA
ATOM      3  N   UNL     1       4.888   2.886  17.369  0.00  0.00    +0.000 N 
ATOM      4  H   UNL     1       5.828   2.612  17.598  0.00  0.00    +0.000 HD
ENDROOT
BRANCH   1  10
ATOM      5  C   UNL     1       6.625   5.589  16.557  0.00  0.00    +0.000 A 
ATOM      6  N   UNL     1       7.615   5.995  15.753  0.00  0.00    +0.000 NA
ATOM      7  O   UNL     1       7.447   5.307  14.576  0.00  0.00    +0.000 OA
ATOM      8  C   UNL     1       6.367   4.487  14.666  0.00  0.00    +0.000 A 
ATOM      9  C   UNL     1       6.088   3.721  13.437  0.00  0.00    +0.000 C 
ATOM     10  C   UNL     1       5.800   4.604  15.924  0.00  0.00    +0.000 A 
BRANCH   5  12
ATOM     11  C   UNL     1       7.339   5.465  18.947  0.00  0.00    +0.000 C 
ATOM     12  C   UNL     1       6.504   6.206  17.912  0.00  0.00    +0.000 C 
ENDBRANCH   5  12
ENDBRANCH   1  10
BRANCH   3  13
ATOM     13  C   UNL     1       3.785   2.180  17.995  0.00  0.00    +0.000 C 
BRANCH  13  14
ATOM     14  C   UNL     1       3.719   2.427  19.502  0.00  0.00    +0.000 C 
BRANCH  14  15
ATOM     15  C   UNL     1       3.036   3.733  19.817  0.00  0.00    +0.000 A 
ATOM     16  C   UNL     1       3.727   4.947  19.681  0.00  0.00    +0.000 A 
ATOM     17  C   UNL     1       3.108   6.152  20.016  0.00  0.00    +0.000 A 
ATOM     18  C   UNL     1       1.799   6.152  20.492  0.00  0.00    +0.000 A 
ATOM     19 CL   UNL     1       1.042   7.637  20.916  0.00  0.00    +0.000 Cl
ATOM     20  C   UNL     1       1.101   4.953  20.633  0.00  0.00    +0.000 A 
ATOM     21  C   UNL     1       1.719   3.747  20.298  0.00  0.00    +0.000 A 
ENDBRANCH  14  15
ENDBRANCH  13  14
ENDBRANCH   3  13
TORSDOF 5
ENDMDL
MODEL 8
REMARK VINA RESULT:      -7.4      2.304      3.290
REMARK  Name = 
REMARK  7 active torsions:
REMARK  status: ('A' for Active; 'I' for Inactive)
REMARK    1  A    between atoms: C_1  and  C_2
REMARK    2  A    between atoms: C_2  and  C_3
REMARK    3  A    between atoms: C_6  and  C_7
REMARK    4  A    between atoms: C_8  and  C_9
REMARK    5  A    between atoms: N_11  and  C_12
REMARK    6  A    between atoms: C_12  and  C_13
REMARK    7  A    between atoms: C_13  and  C_14
REMARK                            x       y       z     vdW  Elec       q    Type
REMARK                         _______ _______ _______ _____ _____    ______ ____
ROOT
ATOM      1  C   UNL     1       4.629   5.341  18.356  0.00  0.00    +0.000 C 
ATOM      2  O   UNL     1       4.198   4.778  19.355  0.00  0.00    +0.000 OA
ATOM      3  N   UNL     1       3.879   6.293  17.696  0.00  0.00    +0.000 N 
ATOM      4  H   UNL     1       4.224   6.739  16.863  0.00  0.00    +0.000 HD
ENDROOT
BRANCH   1  10
ATOM      5  C   UNL     1       6.228   4.458  16.531  0.00  0.00    +0.000 A 
ATOM      6  N   UNL     1       7.544   4.317  16.333  0.00  0.00    +0.000 NA
ATOM      7  O   UNL     1       8.147   4.772  17.479  0.00  0.00    +0.000 OA
ATOM      8  C   UNL     1       7.205   5.190  18.366  0.00  0.00    +0.000 A 
ATOM      9  C   UNL     1       7.755   5.675  19.646  0.00  0.00    +0.000 C 
ATOM     10  C   UNL     1       5.946   5.034  17.812  0.00  0.00    +0.000 A 
BRANCH   5  12
ATOM     11  C   UNL     1       5.903   4.116  14.079  0.00  0.00    +0.000 C 
ATOM     12  C   UNL     1       5.289   3.994  15.466  0.00  0.00    +0.000 C 
ENDBRANCH   5  12
ENDBRANCH   1  10
BRANCH   3  13
ATOM     13  C   UNL     1       2.553   6.642  18.173  0.00  0.00    +0.000 C 
BRANCH  13  14
ATOM     14  C   UNL     1       2.257   8.134  18.028  0.00  0.00    +0.000 C 
BRANCH  14  15
ATOM     15  C   UNL     1       1.570   8.682  19.253  0.00  0.00    +0.000 A 
ATOM     16  C   UNL     1       1.653   8.004  20.477  0.00  0.00    +0.000 A 
ATOM     17  C   UNL     1       0.979   8.488  21.600  0.00  0.00    +0.000 A 
ATOM     18  C   UNL     1       0.216   9.650  21.503  0.00  0.00    +0.000 A 
ATOM     19 CL   UNL     1      -0.624  10.239  22.884  0.00  0.00    +0.000 Cl
ATOM     20  C   UNL     1       0.125  10.334  20.292  0.00  0.00    +0.000 A 
ATOM     21  C   UNL     1       0.798   9.850  19.169  0.00  0.00    +0.000 A 
ENDBRANCH  14  15
ENDBRANCH  13  14
ENDBRANCH   3  13
TORSDOF 5
ENDMDL
MODEL 9
REMARK VINA RESULT:      -7.4      3.088      5.607
REMARK  Name = 
REMARK  7 active torsions:
REMARK  status: ('A' for Active; 'I' for Inactive)
REMARK    1  A    between atoms: C_1  and  C_2
REMARK    2  A    between atoms: C_2  and  C_3
REMARK    3  A    between atoms: C_6  and  C_7
REMARK    4  A    between atoms: C_8  and  C_9
REMARK    5  A    between atoms: N_11  and  C_12
REMARK    6  A    between atoms: C_12  and  C_13
REMARK    7  A    between atoms: C_13  and  C_14
REMARK                            x       y       z     vdW  Elec       q    Type
REMARK                         _______ _______ _______ _____ _____    ______ ____
ROOT
ATOM      1  C   UNL     1       2.952   5.724  18.796  0.00  0.00    +0.000 C 
ATOM      2  O   UNL     1       3.397   6.026  19.897  0.00  0.00    +0.000 OA
ATOM      3  N   UNL     1       2.626   6.694  17.869  0.00  0.00    +0.000 N 
ATOM      4  H   UNL     1       2.241   6.447  16.974  0.00  0.00    +0.000 HD
ENDROOT
BRANCH   1  10
ATOM      5  C   UNL     1       1.806   3.418  18.994  0.00  0.00    +0.000 A 
ATOM      6  N   UNL     1       1.852   2.221  18.400  0.00  0.00    +0.000 NA
ATOM      7  O   UNL     1       2.824   2.319  17.435  0.00  0.00    +0.000 OA
ATOM      8  C   UNL     1       3.362   3.567  17.441  0.00  0.00    +0.000 A 
ATOM      9  C   UNL     1       4.440   3.764  16.452  0.00  0.00    +0.000 C 
ATOM     10  C   UNL     1       2.739   4.335  18.410  0.00  0.00    +0.000 A 
BRANCH   5  12
ATOM     11  C   UNL     1       1.390   2.967  21.415  0.00  0.00    +0.000 C 
ATOM     12  C   UNL     1       0.868   3.614  20.140  0.00  0.00    +0.000 C 
ENDBRANCH   5  12
ENDBRANCH   1  10
BRANCH   3  13
ATOM     13  C   UNL     1       2.799   8.100  18.188  0.00  0.00    +0.000 C 
BRANCH  13  14
ATOM     14  C   UNL     1       1.518   8.906  17.976  0.00  0.00    +0.000 C 
BRANCH  14  15
ATOM     15  C   UNL     1       0.920   9.347  19.287  0.00  0.00    +0.000 A 
ATOM     16  C   UNL     1       1.202   8.646  20.469  0.00  0.00    +0.000 A 
ATOM     17  C   UNL     1       0.612   9.029  21.675  0.00  0.00    +0.000 A 
ATOM     18  C   UNL     1      -0.265  10.111  21.705  0.00  0.00    +0.000 A 
ATOM     19 CL   UNL     1      -1.000  10.574  23.189  0.00  0.00    +0.000 Cl
ATOM     20  C   UNL     1      -0.554  10.816  20.539  0.00  0.00    +0.000 A 
ATOM     21  C   UNL     1       0.035  10.434  19.332  0.00  0.00    +0.000 A 
ENDBRANCH  14  15
ENDBRANCH  13  14
ENDBRANCH   3  13
TORSDOF 5
ENDMDL
