MODEL 1
REMARK VINA RESULT:      -7.1      0.000      0.000
REMARK  Name = 
REMARK  5 active torsions:
REMARK  status: ('A' for Active; 'I' for Inactive)
REMARK    1  A    between atoms: C_1  and  C_2
REMARK    2  A    between atoms: C_6  and  N_7
REMARK    3  A    between atoms: C_8  and  O_10
REMARK    4  A    between atoms: O_10  and  C_11
REMARK    5  A    between atoms: C_11  and  C_12
REMARK                            x       y       z     vdW  Elec       q    Type
REMARK                         _______ _______ _______ _____ _____    ______ ____
ROOT
ATOM      1  N   UNL     1       5.024   4.520  17.391  0.00  0.00    +0.000 N 
ATOM      2  C   UNL     1       4.541   4.589  18.664  0.00  0.00    +0.000 C 
ATOM      3  O   UNL     1       5.026   5.286  19.542  0.00  0.00    +0.000 OA
ATOM      4  H   UNL     1       4.514   3.921  16.756  0.00  0.00    +0.000 HD
ENDROOT
BRANCH   1  10
ATOM      5  C   UNL     1       5.990   4.160  14.557  0.00  0.00    +0.000 C 
ATOM      6  C   UNL     1       6.728   5.064  15.525  0.00  0.00    +0.000 C 
ATOM      7  O   UNL     1       7.915   4.403  16.055  0.00  0.00    +0.000 OA
ATOM      8  C   UNL     1       7.590   4.709  17.339  0.00  0.00    +0.000 C 
ATOM      9  O   UNL     1       8.221   4.487  18.348  0.00  0.00    +0.000 OA
ATOM     10  C   UNL     1       6.206   5.301  16.959  0.00  0.00    +0.000 C 
ENDBRANCH   1  10
BRANCH   2  11
ATOM     11  O   UNL     1       3.445   3.809  18.776  0.00  0.00    +0.000 OA
BRANCH  11  12
ATOM     12  C   UNL     1       2.139   4.382  19.090  0.00  0.00    +0.000 C 
ATOM     13  C   UNL     1       1.812   5.529  18.120  0.00  0.00    +0.000 C 
ATOM     14  C   UNL     1       1.141   3.230  18.857  0.00  0.00    +0.000 C 
ATOM     15  C   UNL     1       1.297   2.157  19.926  0.00  0.00    +0.000 C 
ATOM     16  O   UNL     1       1.074   2.722  21.216  0.00  0.00    +0.000 OA
ATOM     17  C   UNL     1       2.055   3.705  21.542  0.00  0.00    +0.000 C 
ATOM     18  C   UNL     1       2.027   4.858  20.549  0.00  0.00    +0.000 C 
ENDBRANCH  11  12
ENDBRANCH   2  11
TORSDOF 3
ENDMDL
MODEL 2
REMARK VINA RESULT:      -6.9      1.129      1.789
REMARK  Name = 
REMARK  5 active torsions:
REMARK  status: ('A' for Active; 'I' for Inactive)
REMARK    1  A    between atoms: C_1  and  C_2
REMARK    2  A    between atoms: C_6  and  N_7
REMARK    3  A    between atoms: C_8  and  O_10
REMARK    4  A    between atoms: O_10  and  C_11
REMARK    5  A    between atoms: C_11  and  C_12
REMARK                            x       y       z     vdW  Elec       q    Type
REMARK                         _______ _______ _______ _____ _____    ______ ____
ROOT
ATOM      1  N   UNL     1       5.163   3.904  17.077  0.00  0.00    +0.000 N 
ATOM      2  C   UNL     1       4.884   3.811  18.408  0.00  0.00    +0.000 C 
ATOM      3  O   UNL     1       5.687   4.060  19.293  0.00  0.00    +0.000 OA
ATOM      4  H   UNL     1       4.399   3.691  16.448  0.00  0.00    +0.000 HD
ENDROOT
BRANCH   1  10
ATOM      5  C   UNL     1       5.821   6.846  17.122  0.00  0.00    +0.000 C 
ATOM      6  C   UNL     1       6.799   5.836  16.556  0.00  0.00    +0.000 C 
ATOM      7  O   UNL     1       6.756   5.827  15.098  0.00  0.00    +0.000 OA
ATOM      8  C   UNL     1       6.636   4.475  15.045  0.00  0.00    +0.000 C 
ATOM      9  O   UNL     1       6.602   3.760  14.069  0.00  0.00    +0.000 OA
ATOM     10  C   UNL     1       6.495   4.322  16.584  0.00  0.00    +0.000 C 
ENDBRANCH   1  10
BRANCH   2  11
ATOM     11  O   UNL     1       3.595   3.444  18.576  0.00  0.00    +0.000 OA
BRANCH  11  12
ATOM     12  C   UNL     1       2.585   4.409  19.001  0.00  0.00    +0.000 C 
ATOM     13  C   UNL     1       2.698   5.700  18.174  0.00  0.00    +0.000 C 
ATOM     14  C   UNL     1       1.238   3.729  18.684  0.00  0.00    +0.000 C 
ATOM     15  C   UNL     1       0.992   2.558  19.625  0.00  0.00    +0.000 C 
ATOM     16  O   UNL     1       0.986   3.013  20.976  0.00  0.00    +0.000 OA
ATOM     17  C   UNL     1       2.255   3.531  21.368  0.00  0.00    +0.000 C 
ATOM     18  C   UNL     1       2.650   4.723  20.506  0.00  0.00    +0.000 C 
ENDBRANCH  11  12
ENDBRANCH   2  11
TORSDOF 3
ENDMDL
MODEL 3
REMARK VINA RESULT:      -6.8      1.407      2.314
REMARK  Name = 
REMARK  5 active torsions:
REMARK  status: ('A' for Active; 'I' for Inactive)
REMARK    1  A    between atoms: C_1  and  C_2
REMARK    2  A    between atoms: C_6  and  N_7
REMARK    3  A    between atoms: C_8  and  O_10
REMARK    4  A    between atoms: O_10  and  C_11
REMARK    5  A    between atoms: C_11  and  C_12
REMARK                            x       y       z     vdW  Elec       q    Type
REMARK                         _______ _______ _______ _____ _____    ______ ____
ROOT
ATOM      1  N   UNL     1       5.211   4.432  17.371  0.00  0.00    +0.000 N 
ATOM      2  C   UNL     1       4.921   4.115  18.665  0.00  0.00    +0.000 C 
ATOM      3  O   UNL     1       5.765   3.884  19.517  0.00  0.00    +0.000 OA
ATOM      4  H   UNL     1       4.417   4.623  16.774  0.00  0.00    +0.000 HD
ENDROOT
BRANCH   1  10
ATOM      5  C   UNL     1       6.519   7.148  17.327  0.00  0.00    +0.000 C 
ATOM      6  C   UNL     1       7.245   5.923  16.805  0.00  0.00    +0.000 C 
ATOM      7  O   UNL     1       7.206   5.875  15.348  0.00  0.00    +0.000 OA
ATOM      8  C   UNL     1       6.782   4.584  15.339  0.00  0.00    +0.000 C 
ATOM      9  O   UNL     1       6.590   3.862  14.386  0.00  0.00    +0.000 OA
ATOM     10  C   UNL     1       6.605   4.520  16.880  0.00  0.00    +0.000 C 
ENDBRANCH   1  10
BRANCH   2  11
ATOM     11  O   UNL     1       3.584   4.139  18.849  0.00  0.00    +0.000 OA
BRANCH  11  12
ATOM     12  C   UNL     1       2.816   2.903  18.966  0.00  0.00    +0.000 C 
ATOM     13  C   UNL     1       3.294   1.876  17.928  0.00  0.00    +0.000 C 
ATOM     14  C   UNL     1       3.140   2.374  20.378  0.00  0.00    +0.000 C 
ATOM     15  C   UNL     1       2.507   3.259  21.443  0.00  0.00    +0.000 C 
ATOM     16  O   UNL     1       1.093   3.296  21.266  0.00  0.00    +0.000 OA
ATOM     17  C   UNL     1       0.728   3.902  20.027  0.00  0.00    +0.000 C 
ATOM     18  C   UNL     1       1.297   3.125  18.848  0.00  0.00    +0.000 C 
ENDBRANCH  11  12
ENDBRANCH   2  11
TORSDOF 3
ENDMDL
MODEL 4
REMARK VINA RESULT:      -6.8      1.742      6.014
REMARK  Name = 
REMARK  5 active torsions:
REMARK  status: ('A' for Active; 'I' for Inactive)
REMARK    1  A    between atoms: C_1  and  C_2
REMARK    2  A    between atoms: C_6  and  N_7
REMARK    3  A    between atoms: C_8  and  O_10
REMARK    4  A    between atoms: O_10  and  C_11
REMARK    5  A    between atoms: C_11  and  C_12
REMARK                            x       y       z     vdW  Elec       q    Type
REMARK                         _______ _______ _______ _____ _____    ______ ____
ROOT
ATOM      1  N   UNL     1       3.564   4.274  19.257  0.00  0.00    +0.000 N 
ATOM      2  C   UNL     1       4.728   3.588  19.080  0.00  0.00    +0.000 C 
ATOM      3  O   UNL     1       5.145   2.738  19.851  0.00  0.00    +0.000 OA
ATOM      4  H   UNL     1       3.324   4.934  18.530  0.00  0.00    +0.000 HD
ENDROOT
BRANCH   1  10
ATOM      5  C   UNL     1       1.288   2.319  18.948  0.00  0.00    +0.000 C 
ATOM      6  C   UNL     1       1.491   3.083  20.242  0.00  0.00    +0.000 C 
ATOM      7  O   UNL     1       0.566   4.207  20.336  0.00  0.00    +0.000 OA
ATOM      8  C   UNL     1       1.558   5.079  20.653  0.00  0.00    +0.000 C 
ATOM      9  O   UNL     1       1.465   6.253  20.934  0.00  0.00    +0.000 OA
ATOM     10  C   UNL     1       2.689   4.040  20.429  0.00  0.00    +0.000 C 
ENDBRANCH   1  10
BRANCH   2  11
ATOM     11  O   UNL     1       5.307   3.969  17.920  0.00  0.00    +0.000 OA
BRANCH  11  12
ATOM     12  C   UNL     1       6.208   5.117  17.868  0.00  0.00    +0.000 C 
ATOM     13  C   UNL     1       6.741   5.442  19.273  0.00  0.00    +0.000 C 
ATOM     14  C   UNL     1       7.382   4.651  16.983  0.00  0.00    +0.000 C 
ATOM     15  C   UNL     1       6.940   4.512  15.533  0.00  0.00    +0.000 C 
ATOM     16  O   UNL     1       6.452   5.762  15.052  0.00  0.00    +0.000 OA
ATOM     17  C   UNL     1       5.279   6.179  15.749  0.00  0.00    +0.000 C 
ATOM     18  C   UNL     1       5.561   6.361  17.234  0.00  0.00    +0.000 C 
ENDBRANCH  11  12
ENDBRANCH   2  11
TORSDOF 3
ENDMDL
MODEL 5
REMARK VINA RESULT:      -6.8      1.367      1.563
REMARK  Name = 
REMARK  5 active torsions:
REMARK  status: ('A' for Active; 'I' for Inactive)
REMARK    1  A    between atoms: C_1  and  C_2
REMARK    2  A    between atoms: C_6  and  N_7
REMARK    3  A    between atoms: C_8  and  O_10
REMARK    4  A    between atoms: O_10  and  C_11
REMARK    5  A    between atoms: C_11  and  C_12
REMARK                            x       y       z     vdW  Elec       q    Type
REMARK                         _______ _______ _______ _____ _____    ______ ____
ROOT
ATOM      1  N   UNL     1       4.864   4.972  17.270  0.00  0.00    +0.000 N 
ATOM      2  C   UNL     1       3.827   5.752  17.688  0.00  0.00    +0.000 C 
ATOM      3  O   UNL     1       3.882   6.968  17.783  0.00  0.00    +0.000 OA
ATOM      4  H   UNL     1       4.676   3.979  17.214  0.00  0.00    +0.000 HD
ENDROOT
BRANCH   1  10
ATOM      5  C   UNL     1       6.133   4.020  14.706  0.00  0.00    +0.000 C 
ATOM      6  C   UNL     1       6.843   5.010  15.607  0.00  0.00    +0.000 C 
ATOM      7  O   UNL     1       7.867   4.348  16.407  0.00  0.00    +0.000 OA
ATOM      8  C   UNL     1       7.420   4.909  17.561  0.00  0.00    +0.000 C 
ATOM      9  O   UNL     1       7.887   4.814  18.674  0.00  0.00    +0.000 OA
ATOM     10  C   UNL     1       6.174   5.549  16.891  0.00  0.00    +0.000 C 
ENDBRANCH   1  10
BRANCH   2  11
ATOM     11  O   UNL     1       2.748   4.978  17.934  0.00  0.00    +0.000 OA
BRANCH  11  12
ATOM     12  C   UNL     1       2.421   4.549  19.290  0.00  0.00    +0.000 C 
ATOM     13  C   UNL     1       2.128   5.766  20.181  0.00  0.00    +0.000 C 
ATOM     14  C   UNL     1       1.130   3.719  19.136  0.00  0.00    +0.000 C 
ATOM     15  C   UNL     1       1.417   2.400  18.432  0.00  0.00    +0.000 C 
ATOM     16  O   UNL     1       2.374   1.651  19.176  0.00  0.00    +0.000 OA
ATOM     17  C   UNL     1       3.637   2.312  19.237  0.00  0.00    +0.000 C 
ATOM     18  C   UNL     1       3.513   3.667  19.921  0.00  0.00    +0.000 C 
ENDBRANCH  11  12
ENDBRANCH   2  11
TORSDOF 3
ENDMDL
MODEL 6
REMARK VINA RESULT:      -6.8      1.625      1.981
REMARK  Name = 
REMARK  5 active torsions:
REMARK  status: ('A' for Active; 'I' for Inactive)
REMARK    1  A    between atoms: C_1  and  C_2
REMARK    2  A    between atoms: C_6  and  N_7
REMARK    3  A    between atoms: C_8  and  O_10
REMARK    4  A    between atoms: O_10  and  C_11
REMARK    5  A    between atoms: C_11  and  C_12
REMARK                            x       y       z     vdW  Elec       q    Type
REMARK                         _______ _______ _______ _____ _____    ______ ____
ROOT
ATOM      1  N   UNL     1       5.171   5.600  18.231  0.00  0.00    +0.000 N 
ATOM      2  C   UNL     1       3.833   5.488  18.467  0.00  0.00    +0.000 C 
ATOM      3  O   UNL     1       2.977   6.109  17.857  0.00  0.00    +0.000 OA
ATOM      4  H   UNL     1       5.771   5.010  18.792  0.00  0.00    +0.000 HD
ENDROOT
BRANCH   1  10
ATOM      5  C   UNL     1       5.946   4.400  15.575  0.00  0.00    +0.000 C 
ATOM      6  C   UNL     1       6.158   5.874  15.857  0.00  0.00    +0.000 C 
ATOM      7  O   UNL     1       7.553   6.147  16.185  0.00  0.00    +0.000 OA
ATOM      8  C   UNL     1       7.219   6.849  17.300  0.00  0.00    +0.000 C 
ATOM      9  O   UNL     1       7.950   7.440  18.064  0.00  0.00    +0.000 OA
ATOM     10  C   UNL     1       5.709   6.508  17.192  0.00  0.00    +0.000 C 
ENDBRANCH   1  10
BRANCH   2  11
ATOM     11  O   UNL     1       3.620   4.571  19.436  0.00  0.00    +0.000 OA
BRANCH  11  12
ATOM     12  C   UNL     1       2.978   3.294  19.138  0.00  0.00    +0.000 C 
ATOM     13  C   UNL     1       3.613   2.654  17.893  0.00  0.00    +0.000 C 
ATOM     14  C   UNL     1       3.280   2.410  20.365  0.00  0.00    +0.000 C 
ATOM     15  C   UNL     1       2.504   2.894  21.582  0.00  0.00    +0.000 C 
ATOM     16  O   UNL     1       1.105   2.862  21.310  0.00  0.00    +0.000 OA
ATOM     17  C   UNL     1       0.746   3.768  20.268  0.00  0.00    +0.000 C 
ATOM     18  C   UNL     1       1.453   3.414  18.967  0.00  0.00    +0.000 C 
ENDBRANCH  11  12
ENDBRANCH   2  11
TORSDOF 3
ENDMDL
MODEL 7
REMARK VINA RESULT:      -6.6      1.644      5.940
REMARK  Name = 
REMARK  5 active torsions:
REMARK  status: ('A' for Active; 'I' for Inactive)
REMARK    1  A    between atoms: C_1  and  C_2
REMARK    2  A    between atoms: C_6  and  N_7
REMARK    3  A    between atoms: C_8  and  O_10
REMARK    4  A    between atoms: O_10  and  C_11
REMARK    5  A    between atoms: C_11  and  C_12
REMARK                            x       y       z     vdW  Elec       q    Type
REMARK                         _______ _______ _______ _____ _____    ______ ____
ROOT
ATOM      1  N   UNL     1       3.454   3.466  18.994  0.00  0.00    +0.000 N 
ATOM      2  C   UNL     1       3.345   3.559  17.639  0.00  0.00    +0.000 C 
ATOM      3  O   UNL     1       2.290   3.472  17.030  0.00  0.00    +0.000 OA
ATOM      4  H   UNL     1       4.385   3.579  19.373  0.00  0.00    +0.000 HD
ENDROOT
BRANCH   1  10
ATOM      5  C   UNL     1       2.063   5.889  20.128  0.00  0.00    +0.000 C 
ATOM      6  C   UNL     1       1.605   4.488  20.484  0.00  0.00    +0.000 C 
ATOM      7  O   UNL     1       2.090   4.100  21.804  0.00  0.00    +0.000 OA
ATOM      8  C   UNL     1       2.571   2.914  21.348  0.00  0.00    +0.000 C 
ATOM      9  O   UNL     1       3.088   2.020  21.980  0.00  0.00    +0.000 OA
ATOM     10  C   UNL     1       2.274   3.243  19.860  0.00  0.00    +0.000 C 
ENDBRANCH   1  10
BRANCH   2  11
ATOM     11  O   UNL     1       4.562   3.796  17.101  0.00  0.00    +0.000 OA
BRANCH  11  12
ATOM     12  C   UNL     1       5.014   5.156  16.827  0.00  0.00    +0.000 C 
ATOM     13  C   UNL     1       3.935   6.171  17.238  0.00  0.00    +0.000 C 
ATOM     14  C   UNL     1       6.250   5.346  17.730  0.00  0.00    +0.000 C 
ATOM     15  C   UNL     1       7.415   4.503  17.231  0.00  0.00    +0.000 C 
ATOM     16  O   UNL     1       7.745   4.873  15.895  0.00  0.00    +0.000 OA
ATOM     17  C   UNL     1       6.681   4.593  14.988  0.00  0.00    +0.000 C 
ATOM     18  C   UNL     1       5.425   5.368  15.359  0.00  0.00    +0.000 C 
ENDBRANCH  11  12
ENDBRANCH   2  11
TORSDOF 3
ENDMDL
MODEL 8
REMARK VINA RESULT:      -6.6      1.497      2.237
REMARK  Name = 
REMARK  5 active torsions:
REMARK  status: ('A' for Active; 'I' for Inactive)
REMARK    1  A    between atoms: C_1  and  C_2
REMARK    2  A    between atoms: C_6  and  N_7
REMARK    3  A    between atoms: C_8  and  O_10
REMARK    4  A    between atoms: O_10  and  C_11
REMARK    5  A    between atoms: C_11  and  C_12
REMARK                            x       y       z     vdW  Elec       q    Type
REMARK                         _______ _______ _______ _____ _____    ______ ____
ROOT
ATOM      1  N   UNL     1       5.398   4.673  18.086  0.00  0.00    +0.000 N 
ATOM      2  C   UNL     1       4.269   3.966  17.796  0.00  0.00    +0.000 C 
ATOM      3  O   UNL     1       3.955   3.610  16.670  0.00  0.00    +0.000 OA
ATOM      4  H   UNL     1       5.550   4.883  19.063  0.00  0.00    +0.000 HD
ENDROOT
BRANCH   1  10
ATOM      5  C   UNL     1       7.848   6.212  18.935  0.00  0.00    +0.000 C 
ATOM      6  C   UNL     1       7.578   5.919  17.472  0.00  0.00    +0.000 C 
ATOM      7  O   UNL     1       7.028   7.089  16.798  0.00  0.00    +0.000 OA
ATOM      8  C   UNL     1       6.007   6.376  16.255  0.00  0.00    +0.000 C 
ATOM      9  O   UNL     1       5.149   6.754  15.489  0.00  0.00    +0.000 OA
ATOM     10  C   UNL     1       6.357   5.080  17.034  0.00  0.00    +0.000 C 
ENDBRANCH   1  10
BRANCH   2  11
ATOM     11  O   UNL     1       3.596   3.700  18.936  0.00  0.00    +0.000 OA
BRANCH  11  12
ATOM     12  C   UNL     1       2.405   4.460  19.305  0.00  0.00    +0.000 C 
ATOM     13  C   UNL     1       2.331   5.764  18.494  0.00  0.00    +0.000 C 
ATOM     14  C   UNL     1       1.224   3.554  18.905  0.00  0.00    +0.000 C 
ATOM     15  C   UNL     1       1.139   2.342  19.822  0.00  0.00    +0.000 C 
ATOM     16  O   UNL     1       0.973   2.767  21.173  0.00  0.00    +0.000 OA
ATOM     17  C   UNL     1       2.103   3.499  21.643  0.00  0.00    +0.000 C 
ATOM     18  C   UNL     1       2.325   4.756  20.813  0.00  0.00    +0.000 C 
ENDBRANCH  11  12
ENDBRANCH   2  11
TORSDOF 3
ENDMDL
MODEL 9
REMARK VINA RESULT:      -6.6      1.549      2.608
REMARK  Name = 
REMARK  5 active torsions:
REMARK  status: ('A' for Active; 'I' for Inactive)
REMARK    1  A    between atoms: C_1  and  C_2
REMARK    2  A    between atoms: C_6  and  N_7
REMARK    3  A    between atoms: C_8  and  O_10
REMARK    4  A    between atoms: O_10  and  C_11
REMARK    5  A    between atoms: C_11  and  C_12
REMARK                            x       y       z     vdW  Elec       q    Type
REMARK                         _______ _______ _______ _____ _____    ______ ____
ROOT
ATOM      1  N   UNL     1       5.286   4.144  17.479  0.00  0.00    +0.000 N 
ATOM      2  C   UNL     1       5.179   4.192  18.837  0.00  0.00    +0.000 C 
ATOM      3  O   UNL     1       6.119   4.387  19.591  0.00  0.00    +0.000 OA
ATOM      4  H   UNL     1       4.424   3.998  16.971  0.00  0.00    +0.000 HD
ENDROOT
BRANCH   1  10
ATOM      5  C   UNL     1       6.356   6.950  17.208  0.00  0.00    +0.000 C 
ATOM      6  C   UNL     1       7.094   5.772  16.604  0.00  0.00    +0.000 C 
ATOM      7  O   UNL     1       6.851   5.683  15.169  0.00  0.00    +0.000 OA
ATOM      8  C   UNL     1       6.535   4.363  15.239  0.00  0.00    +0.000 C 
ATOM      9  O   UNL     1       6.266   3.605  14.334  0.00  0.00    +0.000 OA
ATOM     10  C   UNL     1       6.585   4.325  16.791  0.00  0.00    +0.000 C 
ENDBRANCH   1  10
BRANCH   2  11
ATOM     11  O   UNL     1       3.886   4.031  19.195  0.00  0.00    +0.000 OA
BRANCH  11  12
ATOM     12  C   UNL     1       3.414   2.776  19.772  0.00  0.00    +0.000 C 
ATOM     13  C   UNL     1       4.603   1.912  20.220  0.00  0.00    +0.000 C 
ATOM     14  C   UNL     1       2.606   3.199  21.016  0.00  0.00    +0.000 C 
ATOM     15  C   UNL     1       1.309   3.884  20.609  0.00  0.00    +0.000 C 
ATOM     16  O   UNL     1       0.523   3.002  19.812  0.00  0.00    +0.000 OA
ATOM     17  C   UNL     1       1.166   2.682  18.580  0.00  0.00    +0.000 C 
ATOM     18  C   UNL     1       2.497   1.985  18.822  0.00  0.00    +0.000 C 
ENDBRANCH  11  12
ENDBRANCH   2  11
TORSDOF 3
ENDMDL
