MODEL 1
REMARK VINA RESULT:      -8.8      0.000      0.000
REMARK  Name = 
REMARK  9 active torsions:
REMARK  status: ('A' for Active; 'I' for Inactive)
REMARK    1  A    between atoms: C_1  and  C_2
REMARK    2  A    between atoms: C_5  and  S_6
REMARK    3  A    between atoms: S_6  and  N_9
REMARK    4  A    between atoms: N_9  and  C_10
REMARK    5  A    between atoms: N_9  and  C_11
REMARK    6  A    between atoms: C_14  and  O_15
REMARK    7  A    between atoms: O_15  and  C_16
REMARK    8  A    between atoms: C_16  and  C_18
REMARK    9  A    between atoms: C_18  and  N_19
REMARK                            x       y       z     vdW  Elec       q    Type
REMARK                         _______ _______ _______ _____ _____    ______ ____
ROOT
ATOM      1  C   UNL     1       0.566   9.881  19.654  0.00  0.00    +0.000 A 
ATOM      2  C   UNL     1       0.354   9.181  20.843  0.00  0.00    +0.000 A 
ATOM      3  C   UNL     1       0.983   7.958  21.057  0.00  0.00    +0.000 A 
ATOM      4  C   UNL     1       1.793   7.411  20.064  0.00  0.00    +0.000 A 
ATOM      5  C   UNL     1       2.061   8.128  18.897  0.00  0.00    +0.000 A 
ATOM      6  C   UNL     1       1.449   9.372  18.697  0.00  0.00    +0.000 A 
ENDROOT
BRANCH   1   7
ATOM      7  N   UNL     1      -0.078  11.143  19.430  0.00  0.00    +0.000 N 
ATOM      8  C   UNL     1      -1.493  11.087  19.012  0.00  0.00    +0.000 C 
BRANCH   7   9
ATOM      9  S   UNL     1       0.382  12.433  20.449  0.00  0.00    +0.000 S 
ATOM     10  O   UNL     1       0.379  13.653  19.664  0.00  0.00    +0.000 OA
ATOM     11  O   UNL     1       1.576  12.046  21.179  0.00  0.00    +0.000 OA
BRANCH   9  16
ATOM     12  C   UNL     1      -4.395  12.688  24.218  0.00  0.00    +0.000 C 
ATOM     13  C   UNL     1      -3.177  12.677  23.339  0.00  0.00    +0.000 A 
ATOM     14  C   UNL     1      -2.997  13.652  22.349  0.00  0.00    +0.000 A 
ATOM     15  C   UNL     1      -1.886  13.604  21.502  0.00  0.00    +0.000 A 
ATOM     16  C   UNL     1      -0.935  12.587  21.650  0.00  0.00    +0.000 A 
ATOM     17  C   UNL     1      -1.109  11.605  22.629  0.00  0.00    +0.000 A 
ATOM     18  C   UNL     1      -2.227  11.654  23.469  0.00  0.00    +0.000 A 
ENDBRANCH   9  16
ENDBRANCH   7   9
ENDBRANCH   1   7
BRANCH   4  19
ATOM     19  O   UNL     1       2.422   6.160  20.211  0.00  0.00    +0.000 OA
BRANCH  19  20
ATOM     20  C   UNL     1       1.695   4.982  20.001  0.00  0.00    +0.000 C 
ATOM     21  O   UNL     1       0.966   4.425  20.813  0.00  0.00    +0.000 OA
BRANCH  20  22
ATOM     22  C   UNL     1       2.026   4.414  18.636  0.00  0.00    +0.000 C 
BRANCH  22  23
ATOM     23  N   UNL     1       3.455   4.230  18.565  0.00  0.00    +0.000 N 
ATOM     24  C   UNL     1       4.149   3.231  19.172  0.00  0.00    +0.000 C 
ATOM     25  O   UNL     1       3.703   2.313  19.834  0.00  0.00    +0.000 OA
ATOM     26  N   UNL     1       5.490   3.410  18.908  0.00  0.00    +0.000 N 
ATOM     27  C   UNL     1       5.745   4.624  18.176  0.00  0.00    +0.000 C 
ATOM     28  C   UNL     1       6.503   5.673  18.999  0.00  0.00    +0.000 C 
ATOM     29  C   UNL     1       7.791   5.928  18.221  0.00  0.00    +0.000 C 
ATOM     30  C   UNL     1       7.416   5.639  16.777  0.00  0.00    +0.000 C 
ATOM     31  C   UNL     1       6.533   4.402  16.887  0.00  0.00    +0.000 C 
ATOM     32  C   UNL     1       4.303   5.075  17.909  0.00  0.00    +0.000 C 
ATOM     33  O   UNL     1       3.971   6.053  17.254  0.00  0.00    +0.000 OA
ATOM     34  H   UNL     1       6.184   2.795  19.314  0.00  0.00    +0.000 HD
ENDBRANCH  22  23
ENDBRANCH  20  22
ENDBRANCH  19  20
ENDBRANCH   4  19
TORSDOF 7
ENDMDL
MODEL 2
REMARK VINA RESULT:      -8.6      1.196      1.594
REMARK  Name = 
REMARK  9 active torsions:
REMARK  status: ('A' for Active; 'I' for Inactive)
REMARK    1  A    between atoms: C_1  and  C_2
REMARK    2  A    between atoms: C_5  and  S_6
REMARK    3  A    between atoms: S_6  and  N_9
REMARK    4  A    between atoms: N_9  and  C_10
REMARK    5  A    between atoms: N_9  and  C_11
REMARK    6  A    between atoms: C_14  and  O_15
REMARK    7  A    between atoms: O_15  and  C_16
REMARK    8  A    between atoms: C_16  and  C_18
REMARK    9  A    between atoms: C_18  and  N_19
REMARK                            x       y       z     vdW  Elec       q    Type
REMARK                         _______ _______ _______ _____ _____    ______ ____
ROOT
ATOM      1  C   UNL     1       1.043   9.855  19.653  0.00  0.00    +0.000 A 
ATOM      2  C   UNL     1       0.848   9.189  20.863  0.00  0.00    +0.000 A 
ATOM      3  C   UNL     1       1.326   7.893  21.033  0.00  0.00    +0.000 A 
ATOM      4  C   UNL     1       1.963   7.244  19.978  0.00  0.00    +0.000 A 
ATOM      5  C   UNL     1       2.218   7.920  18.784  0.00  0.00    +0.000 A 
ATOM      6  C   UNL     1       1.760   9.235  18.625  0.00  0.00    +0.000 A 
ENDROOT
BRANCH   1   7
ATOM      7  N   UNL     1       0.554  11.192  19.473  0.00  0.00    +0.000 N 
ATOM      8  C   UNL     1       1.486  12.149  18.845  0.00  0.00    +0.000 C 
BRANCH   7   9
ATOM      9  S   UNL     1      -1.104  11.360  19.098  0.00  0.00    +0.000 S 
ATOM     10  O   UNL     1      -1.650  10.036  18.865  0.00  0.00    +0.000 OA
ATOM     11  O   UNL     1      -1.249  12.391  18.086  0.00  0.00    +0.000 OA
BRANCH   9  16
ATOM     12  C   UNL     1      -3.341  13.824  24.198  0.00  0.00    +0.000 C 
ATOM     13  C   UNL     1      -2.847  13.156  22.946  0.00  0.00    +0.000 A 
ATOM     14  C   UNL     1      -1.899  12.127  23.008  0.00  0.00    +0.000 A 
ATOM     15  C   UNL     1      -1.406  11.546  21.836  0.00  0.00    +0.000 A 
ATOM     16  C   UNL     1      -1.871  11.982  20.589  0.00  0.00    +0.000 A 
ATOM     17  C   UNL     1      -2.810  13.015  20.515  0.00  0.00    +0.000 A 
ATOM     18  C   UNL     1      -3.295  13.596  21.692  0.00  0.00    +0.000 A 
ENDBRANCH   9  16
ENDBRANCH   7   9
ENDBRANCH   1   7
BRANCH   4  19
ATOM     19  O   UNL     1       2.432   5.919  20.081  0.00  0.00    +0.000 OA
BRANCH  19  20
ATOM     20  C   UNL     1       1.586   4.851  19.762  0.00  0.00    +0.000 C 
ATOM     21  O   UNL     1       0.700   4.390  20.472  0.00  0.00    +0.000 OA
BRANCH  20  22
ATOM     22  C   UNL     1       1.997   4.254  18.432  0.00  0.00    +0.000 C 
BRANCH  22  23
ATOM     23  N   UNL     1       3.430   4.086  18.443  0.00  0.00    +0.000 N 
ATOM     24  C   UNL     1       4.100   3.099  19.095  0.00  0.00    +0.000 C 
ATOM     25  O   UNL     1       3.628   2.179  19.736  0.00  0.00    +0.000 OA
ATOM     26  N   UNL     1       5.451   3.293  18.907  0.00  0.00    +0.000 N 
ATOM     27  C   UNL     1       5.734   4.505  18.182  0.00  0.00    +0.000 C 
ATOM     28  C   UNL     1       6.432   5.568  19.040  0.00  0.00    +0.000 C 
ATOM     29  C   UNL     1       7.759   5.833  18.335  0.00  0.00    +0.000 C 
ATOM     30  C   UNL     1       7.470   5.533  16.874  0.00  0.00    +0.000 C 
ATOM     31  C   UNL     1       6.596   4.286  16.941  0.00  0.00    +0.000 C 
ATOM     32  C   UNL     1       4.304   4.938  17.831  0.00  0.00    +0.000 C 
ATOM     33  O   UNL     1       3.998   5.908  17.152  0.00  0.00    +0.000 OA
ATOM     34  H   UNL     1       6.128   2.688  19.354  0.00  0.00    +0.000 HD
ENDBRANCH  22  23
ENDBRANCH  20  22
ENDBRANCH  19  20
ENDBRANCH   4  19
TORSDOF 7
ENDMDL
MODEL 3
REMARK VINA RESULT:      -8.6      2.442      2.905
REMARK  Name = 
REMARK  9 active torsions:
REMARK  status: ('A' for Active; 'I' for Inactive)
REMARK    1  A    between atoms: C_1  and  C_2
REMARK    2  A    between atoms: C_5  and  S_6
REMARK    3  A    between atoms: S_6  and  N_9
REMARK    4  A    between atoms: N_9  and  C_10
REMARK    5  A    between atoms: N_9  and  C_11
REMARK    6  A    between atoms: C_14  and  O_15
REMARK    7  A    between atoms: O_15  and  C_16
REMARK    8  A    between atoms: C_16  and  C_18
REMARK    9  A    between atoms: C_18  and  N_19
REMARK                            x       y       z     vdW  Elec       q    Type
REMARK                         _______ _______ _______ _____ _____    ______ ____
ROOT
ATOM      1  C   UNL     1      -0.170  10.318  18.993  0.00  0.00    +0.000 A 
ATOM      2  C   UNL     1      -0.144   9.780  20.280  0.00  0.00    +0.000 A 
ATOM      3  C   UNL     1       0.773   8.785  20.605  0.00  0.00    +0.000 A 
ATOM      4  C   UNL     1       1.639   8.294  19.630  0.00  0.00    +0.000 A 
ATOM      5  C   UNL     1       1.664   8.866  18.356  0.00  0.00    +0.000 A 
ATOM      6  C   UNL     1       0.759   9.887  18.041  0.00  0.00    +0.000 A 
ENDROOT
BRANCH   1   7
ATOM      7  N   UNL     1      -1.113  11.346  18.655  0.00  0.00    +0.000 N 
ATOM      8  C   UNL     1      -0.548  12.679  18.365  0.00  0.00    +0.000 C 
BRANCH   7   9
ATOM      9  S   UNL     1      -2.480  10.867  17.751  0.00  0.00    +0.000 S 
ATOM     10  O   UNL     1      -2.628   9.430  17.884  0.00  0.00    +0.000 OA
ATOM     11  O   UNL     1      -2.400  11.468  16.432  0.00  0.00    +0.000 OA
BRANCH   9  16
ATOM     12  C   UNL     1      -7.162  13.819  20.291  0.00  0.00    +0.000 C 
ATOM     13  C   UNL     1      -6.021  13.029  19.718  0.00  0.00    +0.000 A 
ATOM     14  C   UNL     1      -4.739  13.110  20.277  0.00  0.00    +0.000 A 
ATOM     15  C   UNL     1      -3.671  12.411  19.706  0.00  0.00    +0.000 A 
ATOM     16  C   UNL     1      -3.882  11.610  18.577  0.00  0.00    +0.000 A 
ATOM     17  C   UNL     1      -5.156  11.528  18.006  0.00  0.00    +0.000 A 
ATOM     18  C   UNL     1      -6.219  12.236  18.578  0.00  0.00    +0.000 A 
ENDBRANCH   9  16
ENDBRANCH   7   9
ENDBRANCH   1   7
BRANCH   4  19
ATOM     19  O   UNL     1       2.560   7.262  19.892  0.00  0.00    +0.000 OA
BRANCH  19  20
ATOM     20  C   UNL     1       2.121   5.933  19.959  0.00  0.00    +0.000 C 
ATOM     21  O   UNL     1       2.034   5.250  20.972  0.00  0.00    +0.000 OA
BRANCH  20  22
ATOM     22  C   UNL     1       1.869   5.408  18.561  0.00  0.00    +0.000 C 
BRANCH  22  23
ATOM     23  N   UNL     1       3.050   4.699  18.132  0.00  0.00    +0.000 N 
ATOM     24  C   UNL     1       3.305   3.384  18.367  0.00  0.00    +0.000 C 
ATOM     25  O   UNL     1       2.590   2.578  18.930  0.00  0.00    +0.000 OA
ATOM     26  N   UNL     1       4.543   3.081  17.842  0.00  0.00    +0.000 N 
ATOM     27  C   UNL     1       5.210   4.242  17.309  0.00  0.00    +0.000 C 
ATOM     28  C   UNL     1       6.450   4.645  18.118  0.00  0.00    +0.000 C 
ATOM     29  C   UNL     1       7.608   4.566  17.127  0.00  0.00    +0.000 C 
ATOM     30  C   UNL     1       6.964   4.845  15.780  0.00  0.00    +0.000 C 
ATOM     31  C   UNL     1       5.649   4.079  15.856  0.00  0.00    +0.000 C 
ATOM     32  C   UNL     1       4.092   5.281  17.468  0.00  0.00    +0.000 C 
ATOM     33  O   UNL     1       4.143   6.446  17.101  0.00  0.00    +0.000 OA
ATOM     34  H   UNL     1       4.942   2.158  17.955  0.00  0.00    +0.000 HD
ENDBRANCH  22  23
ENDBRANCH  20  22
ENDBRANCH  19  20
ENDBRANCH   4  19
TORSDOF 7
ENDMDL
MODEL 4
REMARK VINA RESULT:      -8.6      2.327      3.318
REMARK  Name = 
REMARK  9 active torsions:
REMARK  status: ('A' for Active; 'I' for Inactive)
REMARK    1  A    between atoms: C_1  and  C_2
REMARK    2  A    between atoms: C_5  and  S_6
REMARK    3  A    between atoms: S_6  and  N_9
REMARK    4  A    between atoms: N_9  and  C_10
REMARK    5  A    between atoms: N_9  and  C_11
REMARK    6  A    between atoms: C_14  and  O_15
REMARK    7  A    between atoms: O_15  and  C_16
REMARK    8  A    between atoms: C_16  and  C_18
REMARK    9  A    between atoms: C_18  and  N_19
REMARK                            x       y       z     vdW  Elec       q    Type
REMARK                         _______ _______ _______ _____ _____    ______ ____
ROOT
ATOM      1  C   UNL     1       0.803  10.378  19.278  0.00  0.00    +0.000 A 
ATOM      2  C   UNL     1       1.582   9.871  18.238  0.00  0.00    +0.000 A 
ATOM      3  C   UNL     1       2.182   8.621  18.357  0.00  0.00    +0.000 A 
ATOM      4  C   UNL     1       2.040   7.893  19.536  0.00  0.00    +0.000 A 
ATOM      5  C   UNL     1       1.215   8.361  20.560  0.00  0.00    +0.000 A 
ATOM      6  C   UNL     1       0.589   9.607  20.425  0.00  0.00    +0.000 A 
ENDROOT
BRANCH   1   7
ATOM      7  N   UNL     1       0.181  11.666  19.159  0.00  0.00    +0.000 N 
ATOM      8  C   UNL     1      -1.126  11.697  18.472  0.00  0.00    +0.000 C 
BRANCH   7   9
ATOM      9  S   UNL     1       0.403  12.750  20.459  0.00  0.00    +0.000 S 
ATOM     10  O   UNL     1       1.672  12.444  21.090  0.00  0.00    +0.000 OA
ATOM     11  O   UNL     1      -0.812  12.779  21.253  0.00  0.00    +0.000 OA
BRANCH   9  16
ATOM     12  C   UNL     1       0.888  18.028  17.460  0.00  0.00    +0.000 C 
ATOM     13  C   UNL     1       0.794  16.766  18.269  0.00  0.00    +0.000 A 
ATOM     14  C   UNL     1       1.911  15.940  18.445  0.00  0.00    +0.000 A 
ATOM     15  C   UNL     1       1.802  14.741  19.155  0.00  0.00    +0.000 A 
ATOM     16  C   UNL     1       0.573  14.366  19.711  0.00  0.00    +0.000 A 
ATOM     17  C   UNL     1      -0.552  15.178  19.534  0.00  0.00    +0.000 A 
ATOM     18  C   UNL     1      -0.437  16.374  18.816  0.00  0.00    +0.000 A 
ENDBRANCH   9  16
ENDBRANCH   7   9
ENDBRANCH   1   7
BRANCH   4  19
ATOM     19  O   UNL     1       2.657   6.641  19.727  0.00  0.00    +0.000 OA
BRANCH  19  20
ATOM     20  C   UNL     1       1.893   5.469  19.671  0.00  0.00    +0.000 C 
ATOM     21  O   UNL     1       1.441   4.852  20.629  0.00  0.00    +0.000 OA
BRANCH  20  22
ATOM     22  C   UNL     1       1.792   4.993  18.237  0.00  0.00    +0.000 C 
BRANCH  22  23
ATOM     23  N   UNL     1       3.044   4.368  17.886  0.00  0.00    +0.000 N 
ATOM     24  C   UNL     1       3.376   3.075  18.147  0.00  0.00    +0.000 C 
ATOM     25  O   UNL     1       2.686   2.222  18.672  0.00  0.00    +0.000 OA
ATOM     26  N   UNL     1       4.662   2.858  17.700  0.00  0.00    +0.000 N 
ATOM     27  C   UNL     1       5.277   4.061  17.200  0.00  0.00    +0.000 C 
ATOM     28  C   UNL     1       6.434   4.554  18.080  0.00  0.00    +0.000 C 
ATOM     29  C   UNL     1       7.653   4.552  17.162  0.00  0.00    +0.000 C 
ATOM     30  C   UNL     1       7.075   4.781  15.776  0.00  0.00    +0.000 C 
ATOM     31  C   UNL     1       5.815   3.924  15.778  0.00  0.00    +0.000 C 
ATOM     32  C   UNL     1       4.081   5.019  17.283  0.00  0.00    +0.000 C 
ATOM     33  O   UNL     1       4.073   6.184  16.910  0.00  0.00    +0.000 OA
ATOM     34  H   UNL     1       5.116   1.966  17.845  0.00  0.00    +0.000 HD
ENDBRANCH  22  23
ENDBRANCH  20  22
ENDBRANCH  19  20
ENDBRANCH   4  19
TORSDOF 7
ENDMDL
MODEL 5
REMARK VINA RESULT:      -8.5      2.411      3.524
REMARK  Name = 
REMARK  9 active torsions:
REMARK  status: ('A' for Active; 'I' for Inactive)
REMARK    1  A    between atoms: C_1  and  C_2
REMARK    2  A    between atoms: C_5  and  S_6
REMARK    3  A    between atoms: S_6  and  N_9
REMARK    4  A    between atoms: N_9  and  C_10
REMARK    5  A    between atoms: N_9  and  C_11
REMARK    6  A    between atoms: C_14  and  O_15
REMARK    7  A    between atoms: O_15  and  C_16
REMARK    8  A    between atoms: C_16  and  C_18
REMARK    9  A    between atoms: C_18  and  N_19
REMARK                            x       y       z     vdW  Elec       q    Type
REMARK                         _______ _______ _______ _____ _____    ______ ____
ROOT
ATOM      1  C   UNL     1       0.490   9.994  19.642  0.00  0.00    +0.000 A 
ATOM      2  C   UNL     1       0.342   9.228  20.799  0.00  0.00    +0.000 A 
ATOM      3  C   UNL     1       1.058   8.045  20.951  0.00  0.00    +0.000 A 
ATOM      4  C   UNL     1       1.892   7.602  19.926  0.00  0.00    +0.000 A 
ATOM      5  C   UNL     1       2.094   8.388  18.791  0.00  0.00    +0.000 A 
ATOM      6  C   UNL     1       1.393   9.593  18.653  0.00  0.00    +0.000 A 
ENDROOT
BRANCH   1   7
ATOM      7  N   UNL     1      -0.245  11.217  19.482  0.00  0.00    +0.000 N 
ATOM      8  C   UNL     1      -1.669  11.078  19.118  0.00  0.00    +0.000 C 
BRANCH   7   9
ATOM      9  S   UNL     1       0.170  12.505  20.522  0.00  0.00    +0.000 S 
ATOM     10  O   UNL     1       0.507  11.948  21.818  0.00  0.00    +0.000 OA
ATOM     11  O   UNL     1      -0.850  13.533  20.419  0.00  0.00    +0.000 OA
BRANCH   9  16
ATOM     12  C   UNL     1       5.045  15.300  18.173  0.00  0.00    +0.000 C 
ATOM     13  C   UNL     1       3.885  14.539  18.750  0.00  0.00    +0.000 A 
ATOM     14  C   UNL     1       2.957  13.902  17.916  0.00  0.00    +0.000 A 
ATOM     15  C   UNL     1       1.852  13.240  18.460  0.00  0.00    +0.000 A 
ATOM     16  C   UNL     1       1.676  13.197  19.849  0.00  0.00    +0.000 A 
ATOM     17  C   UNL     1       2.591  13.836  20.690  0.00  0.00    +0.000 A 
ATOM     18  C   UNL     1       3.691  14.502  20.139  0.00  0.00    +0.000 A 
ENDBRANCH   9  16
ENDBRANCH   7   9
ENDBRANCH   1   7
BRANCH   4  19
ATOM     19  O   UNL     1       2.609   6.393  20.009  0.00  0.00    +0.000 OA
BRANCH  19  20
ATOM     20  C   UNL     1       1.937   5.170  19.891  0.00  0.00    +0.000 C 
ATOM     21  O   UNL     1       1.599   4.437  20.812  0.00  0.00    +0.000 OA
BRANCH  20  22
ATOM     22  C   UNL     1       1.778   4.815  18.427  0.00  0.00    +0.000 C 
BRANCH  22  23
ATOM     23  N   UNL     1       3.020   4.239  17.972  0.00  0.00    +0.000 N 
ATOM     24  C   UNL     1       3.388   2.939  18.132  0.00  0.00    +0.000 C 
ATOM     25  O   UNL     1       2.742   2.041  18.637  0.00  0.00    +0.000 OA
ATOM     26  N   UNL     1       4.651   2.778  17.605  0.00  0.00    +0.000 N 
ATOM     27  C   UNL     1       5.218   4.022  17.151  0.00  0.00    +0.000 C 
ATOM     28  C   UNL     1       6.412   4.482  17.998  0.00  0.00    +0.000 C 
ATOM     29  C   UNL     1       7.580   4.563  17.019  0.00  0.00    +0.000 C 
ATOM     30  C   UNL     1       6.924   4.866  15.683  0.00  0.00    +0.000 C 
ATOM     31  C   UNL     1       5.681   3.985  15.697  0.00  0.00    +0.000 C 
ATOM     32  C   UNL     1       4.012   4.948  17.357  0.00  0.00    +0.000 C 
ATOM     33  O   UNL     1       3.963   6.133  17.061  0.00  0.00    +0.000 OA
ATOM     34  H   UNL     1       5.128   1.887  17.668  0.00  0.00    +0.000 HD
ENDBRANCH  22  23
ENDBRANCH  20  22
ENDBRANCH  19  20
ENDBRANCH   4  19
TORSDOF 7
ENDMDL
MODEL 6
REMARK VINA RESULT:      -8.5      1.185      1.830
REMARK  Name = 
REMARK  9 active torsions:
REMARK  status: ('A' for Active; 'I' for Inactive)
REMARK    1  A    between atoms: C_1  and  C_2
REMARK    2  A    between atoms: C_5  and  S_6
REMARK    3  A    between atoms: S_6  and  N_9
REMARK    4  A    between atoms: N_9  and  C_10
REMARK    5  A    between atoms: N_9  and  C_11
REMARK    6  A    between atoms: C_14  and  O_15
REMARK    7  A    between atoms: O_15  and  C_16
REMARK    8  A    between atoms: C_16  and  C_18
REMARK    9  A    between atoms: C_18  and  N_19
REMARK                            x       y       z     vdW  Elec       q    Type
REMARK                         _______ _______ _______ _____ _____    ______ ____
ROOT
ATOM      1  C   UNL     1       0.872   9.429  19.567  0.00  0.00    +0.000 A 
ATOM      2  C   UNL     1       1.779   8.739  18.762  0.00  0.00    +0.000 A 
ATOM      3  C   UNL     1       2.281   7.507  19.171  0.00  0.00    +0.000 A 
ATOM      4  C   UNL     1       1.911   6.983  20.408  0.00  0.00    +0.000 A 
ATOM      5  C   UNL     1       0.960   7.634  21.194  0.00  0.00    +0.000 A 
ATOM      6  C   UNL     1       0.434   8.860  20.766  0.00  0.00    +0.000 A 
ENDROOT
BRANCH   1   7
ATOM      7  N   UNL     1       0.350  10.699  19.148  0.00  0.00    +0.000 N 
ATOM      8  C   UNL     1      -0.920  10.665  18.396  0.00  0.00    +0.000 C 
BRANCH   7   9
ATOM      9  S   UNL     1       0.595  12.017  20.205  0.00  0.00    +0.000 S 
ATOM     10  O   UNL     1       0.710  13.222  19.405  0.00  0.00    +0.000 OA
ATOM     11  O   UNL     1       1.644  11.670  21.146  0.00  0.00    +0.000 OA
BRANCH   9  16
ATOM     12  C   UNL     1      -4.339  12.890  23.667  0.00  0.00    +0.000 C 
ATOM     13  C   UNL     1      -3.160  12.608  22.780  0.00  0.00    +0.000 A 
ATOM     14  C   UNL     1      -2.150  11.727  23.187  0.00  0.00    +0.000 A 
ATOM     15  C   UNL     1      -1.031  11.510  22.378  0.00  0.00    +0.000 A 
ATOM     16  C   UNL     1      -0.920  12.163  21.145  0.00  0.00    +0.000 A 
ATOM     17  C   UNL     1      -1.917  13.051  20.732  0.00  0.00    +0.000 A 
ATOM     18  C   UNL     1      -3.033  13.269  21.550  0.00  0.00    +0.000 A 
ENDBRANCH   9  16
ENDBRANCH   7   9
ENDBRANCH   1   7
BRANCH   4  19
ATOM     19  O   UNL     1       2.418   5.760  20.889  0.00  0.00    +0.000 OA
BRANCH  19  20
ATOM     20  C   UNL     1       1.887   4.551  20.426  0.00  0.00    +0.000 C 
ATOM     21  O   UNL     1       0.706   4.227  20.435  0.00  0.00    +0.000 OA
BRANCH  20  22
ATOM     22  C   UNL     1       3.012   3.629  20.002  0.00  0.00    +0.000 C 
BRANCH  22  23
ATOM     23  N   UNL     1       3.605   4.171  18.805  0.00  0.00    +0.000 N 
ATOM     24  C   UNL     1       3.120   4.007  17.545  0.00  0.00    +0.000 C 
ATOM     25  O   UNL     1       2.106   3.425  17.208  0.00  0.00    +0.000 OA
ATOM     26  N   UNL     1       3.977   4.633  16.664  0.00  0.00    +0.000 N 
ATOM     27  C   UNL     1       5.142   5.166  17.322  0.00  0.00    +0.000 C 
ATOM     28  C   UNL     1       6.435   4.435  16.938  0.00  0.00    +0.000 C 
ATOM     29  C   UNL     1       7.326   5.510  16.322  0.00  0.00    +0.000 C 
ATOM     30  C   UNL     1       6.881   6.795  16.999  0.00  0.00    +0.000 C 
ATOM     31  C   UNL     1       5.365   6.653  17.054  0.00  0.00    +0.000 C 
ATOM     32  C   UNL     1       4.768   4.885  18.783  0.00  0.00    +0.000 C 
ATOM     33  O   UNL     1       5.425   5.209  19.763  0.00  0.00    +0.000 OA
ATOM     34  H   UNL     1       3.818   4.585  15.666  0.00  0.00    +0.000 HD
ENDBRANCH  22  23
ENDBRANCH  20  22
ENDBRANCH  19  20
ENDBRANCH   4  19
TORSDOF 7
ENDMDL
MODEL 7
REMARK VINA RESULT:      -8.4      2.547      3.632
REMARK  Name = 
REMARK  9 active torsions:
REMARK  status: ('A' for Active; 'I' for Inactive)
REMARK    1  A    between atoms: C_1  and  C_2
REMARK    2  A    between atoms: C_5  and  S_6
REMARK    3  A    between atoms: S_6  and  N_9
REMARK    4  A    between atoms: N_9  and  C_10
REMARK    5  A    between atoms: N_9  and  C_11
REMARK    6  A    between atoms: C_14  and  O_15
REMARK    7  A    between atoms: O_15  and  C_16
REMARK    8  A    between atoms: C_16  and  C_18
REMARK    9  A    between atoms: C_18  and  N_19
REMARK                            x       y       z     vdW  Elec       q    Type
REMARK                         _______ _______ _______ _____ _____    ______ ____
ROOT
ATOM      1  C   UNL     1       0.897   9.409  19.638  0.00  0.00    +0.000 A 
ATOM      2  C   UNL     1       1.782   8.683  18.840  0.00  0.00    +0.000 A 
ATOM      3  C   UNL     1       2.233   7.433  19.253  0.00  0.00    +0.000 A 
ATOM      4  C   UNL     1       1.835   6.924  20.488  0.00  0.00    +0.000 A 
ATOM      5  C   UNL     1       0.904   7.613  21.267  0.00  0.00    +0.000 A 
ATOM      6  C   UNL     1       0.429   8.858  20.835  0.00  0.00    +0.000 A 
ENDROOT
BRANCH   1   7
ATOM      7  N   UNL     1       0.427  10.697  19.215  0.00  0.00    +0.000 N 
ATOM      8  C   UNL     1      -0.762  10.702  18.340  0.00  0.00    +0.000 C 
BRANCH   7   9
ATOM      9  S   UNL     1       0.573  11.975  20.338  0.00  0.00    +0.000 S 
ATOM     10  O   UNL     1       1.560  11.594  21.330  0.00  0.00    +0.000 OA
ATOM     11  O   UNL     1      -0.757  12.379  20.758  0.00  0.00    +0.000 OA
BRANCH   9  16
ATOM     12  C   UNL     1       3.235  16.722  17.605  0.00  0.00    +0.000 C 
ATOM     13  C   UNL     1       2.525  15.547  18.215  0.00  0.00    +0.000 A 
ATOM     14  C   UNL     1       1.399  15.732  19.028  0.00  0.00    +0.000 A 
ATOM     15  C   UNL     1       0.775  14.637  19.634  0.00  0.00    +0.000 A 
ATOM     16  C   UNL     1       1.266  13.343  19.418  0.00  0.00    +0.000 A 
ATOM     17  C   UNL     1       2.394  13.148  18.616  0.00  0.00    +0.000 A 
ATOM     18  C   UNL     1       3.018  14.249  18.018  0.00  0.00    +0.000 A 
ENDBRANCH   9  16
ENDBRANCH   7   9
ENDBRANCH   1   7
BRANCH   4  19
ATOM     19  O   UNL     1       2.291   5.684  20.973  0.00  0.00    +0.000 OA
BRANCH  19  20
ATOM     20  C   UNL     1       1.812   4.493  20.413  0.00  0.00    +0.000 C 
ATOM     21  O   UNL     1       0.638   4.160  20.314  0.00  0.00    +0.000 OA
BRANCH  20  22
ATOM     22  C   UNL     1       2.977   3.602  20.037  0.00  0.00    +0.000 C 
BRANCH  22  23
ATOM     23  N   UNL     1       3.564   4.122  18.826  0.00  0.00    +0.000 N 
ATOM     24  C   UNL     1       3.095   3.902  17.569  0.00  0.00    +0.000 C 
ATOM     25  O   UNL     1       2.102   3.279  17.244  0.00  0.00    +0.000 OA
ATOM     26  N   UNL     1       3.939   4.525  16.675  0.00  0.00    +0.000 N 
ATOM     27  C   UNL     1       5.082   5.115  17.322  0.00  0.00    +0.000 C 
ATOM     28  C   UNL     1       6.400   4.412  16.972  0.00  0.00    +0.000 C 
ATOM     29  C   UNL     1       7.263   5.493  16.328  0.00  0.00    +0.000 C 
ATOM     30  C   UNL     1       6.774   6.785  16.959  0.00  0.00    +0.000 C 
ATOM     31  C   UNL     1       5.262   6.598  17.007  0.00  0.00    +0.000 C 
ATOM     32  C   UNL     1       4.705   4.871  18.790  0.00  0.00    +0.000 C 
ATOM     33  O   UNL     1       5.344   5.247  19.763  0.00  0.00    +0.000 OA
ATOM     34  H   UNL     1       3.791   4.439  15.677  0.00  0.00    +0.000 HD
ENDBRANCH  22  23
ENDBRANCH  20  22
ENDBRANCH  19  20
ENDBRANCH   4  19
TORSDOF 7
ENDMDL
MODEL 8
REMARK VINA RESULT:      -8.4      1.699      2.661
REMARK  Name = 
REMARK  9 active torsions:
REMARK  status: ('A' for Active; 'I' for Inactive)
REMARK    1  A    between atoms: C_1  and  C_2
REMARK    2  A    between atoms: C_5  and  S_6
REMARK    3  A    between atoms: S_6  and  N_9
REMARK    4  A    between atoms: N_9  and  C_10
REMARK    5  A    between atoms: N_9  and  C_11
REMARK    6  A    between atoms: C_14  and  O_15
REMARK    7  A    between atoms: O_15  and  C_16
REMARK    8  A    between atoms: C_16  and  C_18
REMARK    9  A    between atoms: C_18  and  N_19
REMARK                            x       y       z     vdW  Elec       q    Type
REMARK                         _______ _______ _______ _____ _____    ______ ____
ROOT
ATOM      1  C   UNL     1       0.522  10.104  19.954  0.00  0.00    +0.000 A 
ATOM      2  C   UNL     1       1.275   9.635  18.877  0.00  0.00    +0.000 A 
ATOM      3  C   UNL     1       1.874   8.380  18.936  0.00  0.00    +0.000 A 
ATOM      4  C   UNL     1       1.757   7.608  20.090  0.00  0.00    +0.000 A 
ATOM      5  C   UNL     1       0.956   8.040  21.149  0.00  0.00    +0.000 A 
ATOM      6  C   UNL     1       0.332   9.291  21.075  0.00  0.00    +0.000 A 
ENDROOT
BRANCH   1   7
ATOM      7  N   UNL     1      -0.099  11.397  19.897  0.00  0.00    +0.000 N 
ATOM      8  C   UNL     1      -1.510  11.423  19.462  0.00  0.00    +0.000 C 
BRANCH   7   9
ATOM      9  S   UNL     1       0.370  12.528  21.087  0.00  0.00    +0.000 S 
ATOM     10  O   UNL     1       1.812  12.466  21.224  0.00  0.00    +0.000 OA
ATOM     11  O   UNL     1      -0.477  12.352  22.254  0.00  0.00    +0.000 OA
BRANCH   9  16
ATOM     12  C   UNL     1      -1.281  17.759  18.442  0.00  0.00    +0.000 C 
ATOM     13  C   UNL     1      -0.814  16.510  19.135  0.00  0.00    +0.000 A 
ATOM     14  C   UNL     1       0.221  15.735  18.597  0.00  0.00    +0.000 A 
ATOM     15  C   UNL     1       0.614  14.547  19.221  0.00  0.00    +0.000 A 
ATOM     16  C   UNL     1      -0.017  14.133  20.400  0.00  0.00    +0.000 A 
ATOM     17  C   UNL     1      -1.057  14.894  20.941  0.00  0.00    +0.000 A 
ATOM     18  C   UNL     1      -1.450  16.079  20.308  0.00  0.00    +0.000 A 
ENDBRANCH   9  16
ENDBRANCH   7   9
ENDBRANCH   1   7
BRANCH   4  19
ATOM     19  O   UNL     1       2.374   6.349  20.219  0.00  0.00    +0.000 OA
BRANCH  19  20
ATOM     20  C   UNL     1       1.653   5.183  19.932  0.00  0.00    +0.000 C 
ATOM     21  O   UNL     1       0.911   4.583  20.700  0.00  0.00    +0.000 OA
BRANCH  20  22
ATOM     22  C   UNL     1       2.010   4.690  18.546  0.00  0.00    +0.000 C 
BRANCH  22  23
ATOM     23  N   UNL     1       3.424   4.402  18.525  0.00  0.00    +0.000 N 
ATOM     24  C   UNL     1       4.005   3.288  19.045  0.00  0.00    +0.000 C 
ATOM     25  O   UNL     1       3.455   2.339  19.571  0.00  0.00    +0.000 OA
ATOM     26  N   UNL     1       5.369   3.389  18.872  0.00  0.00    +0.000 N 
ATOM     27  C   UNL     1       5.756   4.653  18.302  0.00  0.00    +0.000 C 
ATOM     28  C   UNL     1       6.538   5.539  19.281  0.00  0.00    +0.000 C 
ATOM     29  C   UNL     1       7.886   5.776  18.604  0.00  0.00    +0.000 C 
ATOM     30  C   UNL     1       7.577   5.685  17.120  0.00  0.00    +0.000 C 
ATOM     31  C   UNL     1       6.601   4.518  17.038  0.00  0.00    +0.000 C 
ATOM     32  C   UNL     1       4.369   5.246  18.018  0.00  0.00    +0.000 C 
ATOM     33  O   UNL     1       4.149   6.316  17.467  0.00  0.00    +0.000 OA
ATOM     34  H   UNL     1       5.990   2.678  19.237  0.00  0.00    +0.000 HD
ENDBRANCH  22  23
ENDBRANCH  20  22
ENDBRANCH  19  20
ENDBRANCH   4  19
TORSDOF 7
ENDMDL
MODEL 9
REMARK VINA RESULT:      -8.4      2.333      3.268
REMARK  Name = 
REMARK  9 active torsions:
REMARK  status: ('A' for Active; 'I' for Inactive)
REMARK    1  A    between atoms: C_1  and  C_2
REMARK    2  A    between atoms: C_5  and  S_6
REMARK    3  A    between atoms: S_6  and  N_9
REMARK    4  A    between atoms: N_9  and  C_10
REMARK    5  A    between atoms: N_9  and  C_11
REMARK    6  A    between atoms: C_14  and  O_15
REMARK    7  A    between atoms: O_15  and  C_16
REMARK    8  A    between atoms: C_16  and  C_18
REMARK    9  A    between atoms: C_18  and  N_19
REMARK                            x       y       z     vdW  Elec       q    Type
REMARK                         _______ _______ _______ _____ _____    ______ ____
ROOT
ATOM      1  C   UNL     1       1.756   8.215  19.369  0.00  0.00    +0.000 A 
ATOM      2  C   UNL     1       1.676   7.539  20.587  0.00  0.00    +0.000 A 
ATOM      3  C   UNL     1       1.856   6.160  20.634  0.00  0.00    +0.000 A 
ATOM      4  C   UNL     1       2.074   5.447  19.457  0.00  0.00    +0.000 A 
ATOM      5  C   UNL     1       2.216   6.119  18.242  0.00  0.00    +0.000 A 
ATOM      6  C   UNL     1       2.062   7.510  18.201  0.00  0.00    +0.000 A 
ENDROOT
BRANCH   1   7
ATOM      7  N   UNL     1       1.573   9.638  19.316  0.00  0.00    +0.000 N 
ATOM      8  C   UNL     1       1.970  10.299  18.057  0.00  0.00    +0.000 C 
BRANCH   7   9
ATOM      9  S   UNL     1       0.211  10.269  20.130  0.00  0.00    +0.000 S 
ATOM     10  O   UNL     1       0.581  11.548  20.704  0.00  0.00    +0.000 OA
ATOM     11  O   UNL     1      -0.347   9.229  20.977  0.00  0.00    +0.000 OA
BRANCH   9  16
ATOM     12  C   UNL     1      -4.212  11.083  16.023  0.00  0.00    +0.000 C 
ATOM     13  C   UNL     1      -3.071  10.929  16.988  0.00  0.00    +0.000 A 
ATOM     14  C   UNL     1      -2.126   9.907  16.826  0.00  0.00    +0.000 A 
ATOM     15  C   UNL     1      -1.097   9.739  17.757  0.00  0.00    +0.000 A 
ATOM     16  C   UNL     1      -0.997  10.604  18.854  0.00  0.00    +0.000 A 
ATOM     17  C   UNL     1      -1.939  11.621  19.031  0.00  0.00    +0.000 A 
ATOM     18  C   UNL     1      -2.970  11.780  18.098  0.00  0.00    +0.000 A 
ENDBRANCH   9  16
ENDBRANCH   7   9
ENDBRANCH   1   7
BRANCH   4  19
ATOM     19  O   UNL     1       2.224   4.047  19.442  0.00  0.00    +0.000 OA
BRANCH  19  20
ATOM     20  C   UNL     1       1.820   3.312  18.320  0.00  0.00    +0.000 C 
ATOM     21  O   UNL     1       0.705   3.319  17.812  0.00  0.00    +0.000 OA
BRANCH  20  22
ATOM     22  C   UNL     1       2.945   2.401  17.875  0.00  0.00    +0.000 C 
BRANCH  22  23
ATOM     23  N   UNL     1       4.189   3.107  18.058  0.00  0.00    +0.000 N 
ATOM     24  C   UNL     1       4.970   3.046  19.170  0.00  0.00    +0.000 C 
ATOM     25  O   UNL     1       4.791   2.375  20.168  0.00  0.00    +0.000 OA
ATOM     26  N   UNL     1       6.049   3.885  18.989  0.00  0.00    +0.000 N 
ATOM     27  C   UNL     1       5.967   4.624  17.756  0.00  0.00    +0.000 C 
ATOM     28  C   UNL     1       5.750   6.128  17.970  0.00  0.00    +0.000 C 
ATOM     29  C   UNL     1       6.953   6.796  17.312  0.00  0.00    +0.000 C 
ATOM     30  C   UNL     1       7.358   5.831  16.211  0.00  0.00    +0.000 C 
ATOM     31  C   UNL     1       7.199   4.466  16.868  0.00  0.00    +0.000 C 
ATOM     32  C   UNL     1       4.719   3.973  17.145  0.00  0.00    +0.000 C 
ATOM     33  O   UNL     1       4.253   4.220  16.041  0.00  0.00    +0.000 OA
ATOM     34  H   UNL     1       6.729   4.020  19.727  0.00  0.00    +0.000 HD
ENDBRANCH  22  23
ENDBRANCH  20  22
ENDBRANCH  19  20
ENDBRANCH   4  19
TORSDOF 7
ENDMDL
