MODEL 1
REMARK VINA RESULT:      -7.5      0.000      0.000
REMARK  Name = 
REMARK  14 active torsions:
REMARK  status: ('A' for Active; 'I' for Inactive)
REMARK    1  A    between atoms: N_3  and  C_4
REMARK    2  A    between atoms: C_4  and  C_5
REMARK    3  A    between atoms: C_5  and  O_6
REMARK    4  A    between atoms: O_6  and  C_7
REMARK    5  A    between atoms: C_7  and  C_8
REMARK    6  A    between atoms: C_8  and  O_9
REMARK    7  A    between atoms: O_9  and  C_10
REMARK    8  A    between atoms: C_10  and  C_11
REMARK    9  A    between atoms: C_11  and  O_12
REMARK   10  A    between atoms: O_12  and  C_13
REMARK   11  A    between atoms: C_15  and  N_16
REMARK   12  A    between atoms: C_21  and  N_22
REMARK   13  A    between atoms: C_23  and  C_25
REMARK   14  A    between atoms: C_31  and  O_32
REMARK                            x       y       z     vdW  Elec       q    Type
REMARK                         _______ _______ _______ _____ _____    ______ ____
ROOT
ATOM      1  C   UNL     1       4.873   3.702  18.892  0.00  0.00    +0.000 A 
ATOM      2  C   UNL     1       4.067   3.608  20.045  0.00  0.00    +0.000 A 
ATOM      3  C   UNL     1       2.738   3.183  19.962  0.00  0.00    +0.000 A 
ATOM      4  C   UNL     1       2.188   2.832  18.737  0.00  0.00    +0.000 A 
ATOM      5  C   UNL     1       2.987   2.902  17.595  0.00  0.00    +0.000 A 
ATOM      6  C   UNL     1       4.327   3.336  17.639  0.00  0.00    +0.000 A 
ENDROOT
BRANCH   6   7
ATOM      7  N   UNL     1       5.116   3.359  16.450  0.00  0.00    +0.000 N 
ATOM      8  C   UNL     1       5.387   4.496  15.695  0.00  0.00    +0.000 C 
ATOM      9  O   UNL     1       5.162   5.646  16.070  0.00  0.00    +0.000 OA
ATOM     10  H   UNL     1       5.517   2.474  16.142  0.00  0.00    +0.000 HD
BRANCH   8  11
ATOM     11  C   UNL     1       6.032   4.353  14.347  0.00  0.00    +0.000 A 
ATOM     12  C   UNL     1       5.403   3.473  13.439  0.00  0.00    +0.000 A 
ATOM     13  C   UNL     1       5.919   3.269  12.162  0.00  0.00    +0.000 A 
ATOM     14 CL   UNL     1       5.136   2.184  11.080  0.00  0.00    +0.000 Cl
ATOM     15  C   UNL     1       7.069   3.937  11.761  0.00  0.00    +0.000 A 
ATOM     16  C   UNL     1       7.715   4.799  12.652  0.00  0.00    +0.000 A 
ATOM     17  C   UNL     1       7.205   4.998  13.943  0.00  0.00    +0.000 A 
BRANCH  17  18
ATOM     18  O   UNL     1       7.875   5.821  14.803  0.00  0.00    +0.000 OA
ATOM     19  H   UNL     1       7.299   6.030  15.559  0.00  0.00    +0.000 HD
ENDBRANCH  17  18
ENDBRANCH   8  11
ENDBRANCH   6   7
BRANCH   3  20
ATOM     20  N   UNL     1       1.926   3.095  21.181  0.00  0.00    +0.000 N 
ATOM     21  O   UNL     1       0.707   2.913  21.046  0.00  0.00    +0.000 OA
ATOM     22  O   UNL     1       2.501   3.208  22.269  0.00  0.00    +0.000 OA
ENDBRANCH   3  20
BRANCH   1  23
ATOM     23  O   UNL     1       6.182   4.144  18.957  0.00  0.00    +0.000 OA
BRANCH  23  24
ATOM     24  C   UNL     1       6.338   5.512  19.384  0.00  0.00    +0.000 C 
BRANCH  24  25
ATOM     25  C   UNL     1       7.614   6.158  18.838  0.00  0.00    +0.000 C 
BRANCH  25  26
ATOM     26  O   UNL     1       7.436   6.836  17.603  0.00  0.00    +0.000 OA
BRANCH  26  27
ATOM     27  C   UNL     1       7.847   8.202  17.615  0.00  0.00    +0.000 C 
BRANCH  27  28
ATOM     28  C   UNL     1       8.676   8.443  18.877  0.00  0.00    +0.000 C 
BRANCH  28  29
ATOM     29  O   UNL     1       9.082   9.805  19.058  0.00  0.00    +0.000 OA
BRANCH  29  30
ATOM     30  C   UNL     1       8.812  10.699  17.979  0.00  0.00    +0.000 C 
BRANCH  30  31
ATOM     31  C   UNL     1       8.960  12.180  18.342  0.00  0.00    +0.000 C 
BRANCH  31  34
ATOM     32  N   UNL     1      12.145  12.738  17.720  0.00  0.00    +0.000 NA
ATOM     33  N   UNL     1      11.022  12.820  17.540  0.00  0.00    +0.000 NA
ATOM     34  N   UNL     1       9.795  12.886  17.356  0.00  0.00    +0.000 NA
ENDBRANCH  31  34
ENDBRANCH  30  31
ENDBRANCH  29  30
ENDBRANCH  28  29
ENDBRANCH  27  28
ENDBRANCH  26  27
ENDBRANCH  25  26
ENDBRANCH  24  25
ENDBRANCH  23  24
ENDBRANCH   1  23
TORSDOF 14
ENDMDL
MODEL 2
REMARK VINA RESULT:      -7.0      4.464      5.459
REMARK  Name = 
REMARK  14 active torsions:
REMARK  status: ('A' for Active; 'I' for Inactive)
REMARK    1  A    between atoms: N_3  and  C_4
REMARK    2  A    between atoms: C_4  and  C_5
REMARK    3  A    between atoms: C_5  and  O_6
REMARK    4  A    between atoms: O_6  and  C_7
REMARK    5  A    between atoms: C_7  and  C_8
REMARK    6  A    between atoms: C_8  and  O_9
REMARK    7  A    between atoms: O_9  and  C_10
REMARK    8  A    between atoms: C_10  and  C_11
REMARK    9  A    between atoms: C_11  and  O_12
REMARK   10  A    between atoms: O_12  and  C_13
REMARK   11  A    between atoms: C_15  and  N_16
REMARK   12  A    between atoms: C_21  and  N_22
REMARK   13  A    between atoms: C_23  and  C_25
REMARK   14  A    between atoms: C_31  and  O_32
REMARK                            x       y       z     vdW  Elec       q    Type
REMARK                         _______ _______ _______ _____ _____    ______ ____
ROOT
ATOM      1  C   UNL     1       3.379   4.578  18.455  0.00  0.00    +0.000 A 
ATOM      2  C   UNL     1       2.812   4.481  19.742  0.00  0.00    +0.000 A 
ATOM      3  C   UNL     1       2.663   3.241  20.372  0.00  0.00    +0.000 A 
ATOM      4  C   UNL     1       3.084   2.079  19.743  0.00  0.00    +0.000 A 
ATOM      5  C   UNL     1       3.666   2.170  18.477  0.00  0.00    +0.000 A 
ATOM      6  C   UNL     1       3.823   3.401  17.808  0.00  0.00    +0.000 A 
ENDROOT
BRANCH   6   7
ATOM      7  N   UNL     1       4.455   3.449  16.530  0.00  0.00    +0.000 N 
ATOM      8  C   UNL     1       5.748   3.907  16.296  0.00  0.00    +0.000 C 
ATOM      9  O   UNL     1       6.576   4.126  17.179  0.00  0.00    +0.000 OA
ATOM     10  H   UNL     1       3.917   3.110  15.733  0.00  0.00    +0.000 HD
BRANCH   8  11
ATOM     11  C   UNL     1       6.213   4.122  14.885  0.00  0.00    +0.000 A 
ATOM     12  C   UNL     1       5.677   3.258  13.906  0.00  0.00    +0.000 A 
ATOM     13  C   UNL     1       6.041   3.374  12.567  0.00  0.00    +0.000 A 
ATOM     14 CL   UNL     1       5.378   2.300  11.398  0.00  0.00    +0.000 Cl
ATOM     15  C   UNL     1       6.945   4.352  12.174  0.00  0.00    +0.000 A 
ATOM     16  C   UNL     1       7.499   5.207  13.131  0.00  0.00    +0.000 A 
ATOM     17  C   UNL     1       7.144   5.086  14.483  0.00  0.00    +0.000 A 
BRANCH  17  18
ATOM     18  O   UNL     1       7.726   5.913  15.400  0.00  0.00    +0.000 OA
ATOM     19  H   UNL     1       7.060   6.543  15.730  0.00  0.00    +0.000 HD
ENDBRANCH  17  18
ENDBRANCH   8  11
ENDBRANCH   6   7
BRANCH   3  20
ATOM     20  N   UNL     1       2.070   3.175  21.712  0.00  0.00    +0.000 N 
ATOM     21  O   UNL     1       1.138   2.376  21.888  0.00  0.00    +0.000 OA
ATOM     22  O   UNL     1       2.530   3.916  22.587  0.00  0.00    +0.000 OA
ENDBRANCH   3  20
BRANCH   1  23
ATOM     23  O   UNL     1       3.509   5.795  17.811  0.00  0.00    +0.000 OA
BRANCH  23  24
ATOM     24  C   UNL     1       3.181   6.945  18.616  0.00  0.00    +0.000 C 
BRANCH  24  25
ATOM     25  C   UNL     1       2.088   7.813  17.987  0.00  0.00    +0.000 C 
BRANCH  25  26
ATOM     26  O   UNL     1       2.551   9.067  17.508  0.00  0.00    +0.000 OA
BRANCH  26  27
ATOM     27  C   UNL     1       1.699  10.168  17.817  0.00  0.00    +0.000 C 
BRANCH  27  28
ATOM     28  C   UNL     1       0.654   9.697  18.829  0.00  0.00    +0.000 C 
BRANCH  28  29
ATOM     29  O   UNL     1       1.001   9.964  20.193  0.00  0.00    +0.000 OA
BRANCH  29  30
ATOM     30  C   UNL     1       0.565   9.008  21.160  0.00  0.00    +0.000 C 
BRANCH  30  31
ATOM     31  C   UNL     1       1.235   9.154  22.529  0.00  0.00    +0.000 C 
BRANCH  31  34
ATOM     32  N   UNL     1      -0.823  11.667  23.067  0.00  0.00    +0.000 NA
ATOM     33  N   UNL     1      -0.301  10.683  23.308  0.00  0.00    +0.000 NA
ATOM     34  N   UNL     1       0.271   9.605  23.545  0.00  0.00    +0.000 NA
ENDBRANCH  31  34
ENDBRANCH  30  31
ENDBRANCH  29  30
ENDBRANCH  28  29
ENDBRANCH  27  28
ENDBRANCH  26  27
ENDBRANCH  25  26
ENDBRANCH  24  25
ENDBRANCH  23  24
ENDBRANCH   1  23
TORSDOF 14
ENDMDL
MODEL 3
REMARK VINA RESULT:      -6.9      4.328      7.560
REMARK  Name = 
REMARK  14 active torsions:
REMARK  status: ('A' for Active; 'I' for Inactive)
REMARK    1  A    between atoms: N_3  and  C_4
REMARK    2  A    between atoms: C_4  and  C_5
REMARK    3  A    between atoms: C_5  and  O_6
REMARK    4  A    between atoms: O_6  and  C_7
REMARK    5  A    between atoms: C_7  and  C_8
REMARK    6  A    between atoms: C_8  and  O_9
REMARK    7  A    between atoms: O_9  and  C_10
REMARK    8  A    between atoms: C_10  and  C_11
REMARK    9  A    between atoms: C_11  and  O_12
REMARK   10  A    between atoms: O_12  and  C_13
REMARK   11  A    between atoms: C_15  and  N_16
REMARK   12  A    between atoms: C_21  and  N_22
REMARK   13  A    between atoms: C_23  and  C_25
REMARK   14  A    between atoms: C_31  and  O_32
REMARK                            x       y       z     vdW  Elec       q    Type
REMARK                         _______ _______ _______ _____ _____    ______ ____
ROOT
ATOM      1  C   UNL     1       1.941   8.011  19.695  0.00  0.00    +0.000 A 
ATOM      2  C   UNL     1       0.825   8.740  20.152  0.00  0.00    +0.000 A 
ATOM      3  C   UNL     1       0.301   9.800  19.405  0.00  0.00    +0.000 A 
ATOM      4  C   UNL     1       0.867  10.148  18.187  0.00  0.00    +0.000 A 
ATOM      5  C   UNL     1       1.960   9.416  17.718  0.00  0.00    +0.000 A 
ATOM      6  C   UNL     1       2.520   8.349  18.448  0.00  0.00    +0.000 A 
ENDROOT
BRANCH   6   7
ATOM      7  N   UNL     1       3.616   7.608  17.913  0.00  0.00    +0.000 N 
ATOM      8  C   UNL     1       3.597   6.244  17.636  0.00  0.00    +0.000 C 
ATOM      9  O   UNL     1       2.578   5.555  17.618  0.00  0.00    +0.000 OA
ATOM     10  H   UNL     1       4.470   8.125  17.709  0.00  0.00    +0.000 HD
BRANCH   8  11
ATOM     11  C   UNL     1       4.878   5.541  17.295  0.00  0.00    +0.000 A 
ATOM     12  C   UNL     1       5.046   5.157  15.947  0.00  0.00    +0.000 A 
ATOM     13  C   UNL     1       6.199   4.499  15.524  0.00  0.00    +0.000 A 
ATOM     14 CL   UNL     1       6.372   4.036  13.877  0.00  0.00    +0.000 Cl
ATOM     15  C   UNL     1       7.208   4.211  16.434  0.00  0.00    +0.000 A 
ATOM     16  C   UNL     1       7.053   4.569  17.776  0.00  0.00    +0.000 A 
ATOM     17  C   UNL     1       5.889   5.221  18.208  0.00  0.00    +0.000 A 
BRANCH  17  18
ATOM     18  O   UNL     1       5.751   5.529  19.531  0.00  0.00    +0.000 OA
ATOM     19  H   UNL     1       4.921   5.143  19.864  0.00  0.00    +0.000 HD
ENDBRANCH  17  18
ENDBRANCH   8  11
ENDBRANCH   6   7
BRANCH   3  20
ATOM     20  N   UNL     1      -0.863  10.538  19.909  0.00  0.00    +0.000 N 
ATOM     21  O   UNL     1      -1.874  10.571  19.192  0.00  0.00    +0.000 OA
ATOM     22  O   UNL     1      -0.770  11.083  21.013  0.00  0.00    +0.000 OA
ENDBRANCH   3  20
BRANCH   1  23
ATOM     23  O   UNL     1       2.484   6.977  20.435  0.00  0.00    +0.000 OA
BRANCH  23  24
ATOM     24  C   UNL     1       1.548   5.948  20.814  0.00  0.00    +0.000 C 
BRANCH  24  25
ATOM     25  C   UNL     1       2.216   4.583  20.999  0.00  0.00    +0.000 C 
BRANCH  25  26
ATOM     26  O   UNL     1       1.314   3.487  20.954  0.00  0.00    +0.000 OA
BRANCH  26  27
ATOM     27  C   UNL     1       0.556   3.396  19.749  0.00  0.00    +0.000 C 
BRANCH  27  28
ATOM     28  C   UNL     1       1.194   2.329  18.860  0.00  0.00    +0.000 C 
BRANCH  28  29
ATOM     29  O   UNL     1       2.589   2.534  18.610  0.00  0.00    +0.000 OA
BRANCH  29  30
ATOM     30  C   UNL     1       3.464   1.462  18.961  0.00  0.00    +0.000 C 
BRANCH  30  31
ATOM     31  C   UNL     1       4.848   1.915  19.437  0.00  0.00    +0.000 C 
BRANCH  31  34
ATOM     32  N   UNL     1       6.114   0.417  22.082  0.00  0.00    +0.000 NA
ATOM     33  N   UNL     1       5.516   1.212  21.526  0.00  0.00    +0.000 NA
ATOM     34  N   UNL     1       4.878   2.076  20.899  0.00  0.00    +0.000 NA
ENDBRANCH  31  34
ENDBRANCH  30  31
ENDBRANCH  29  30
ENDBRANCH  28  29
ENDBRANCH  27  28
ENDBRANCH  26  27
ENDBRANCH  25  26
ENDBRANCH  24  25
ENDBRANCH  23  24
ENDBRANCH   1  23
TORSDOF 14
ENDMDL
MODEL 4
REMARK VINA RESULT:      -6.7      5.770      8.897
REMARK  Name = 
REMARK  14 active torsions:
REMARK  status: ('A' for Active; 'I' for Inactive)
REMARK    1  A    between atoms: N_3  and  C_4
REMARK    2  A    between atoms: C_4  and  C_5
REMARK    3  A    between atoms: C_5  and  O_6
REMARK    4  A    between atoms: O_6  and  C_7
REMARK    5  A    between atoms: C_7  and  C_8
REMARK    6  A    between atoms: C_8  and  O_9
REMARK    7  A    between atoms: O_9  and  C_10
REMARK    8  A    between atoms: C_10  and  C_11
REMARK    9  A    between atoms: C_11  and  O_12
REMARK   10  A    between atoms: O_12  and  C_13
REMARK   11  A    between atoms: C_15  and  N_16
REMARK   12  A    between atoms: C_21  and  N_22
REMARK   13  A    between atoms: C_23  and  C_25
REMARK   14  A    between atoms: C_31  and  O_32
REMARK                            x       y       z     vdW  Elec       q    Type
REMARK                         _______ _______ _______ _____ _____    ______ ____
ROOT
ATOM      1  C   UNL     1       3.328   6.099  18.650  0.00  0.00    +0.000 A 
ATOM      2  C   UNL     1       3.833   4.784  18.702  0.00  0.00    +0.000 A 
ATOM      3  C   UNL     1       3.360   3.867  19.646  0.00  0.00    +0.000 A 
ATOM      4  C   UNL     1       2.370   4.234  20.547  0.00  0.00    +0.000 A 
ATOM      5  C   UNL     1       1.851   5.529  20.487  0.00  0.00    +0.000 A 
ATOM      6  C   UNL     1       2.311   6.482  19.556  0.00  0.00    +0.000 A 
ENDROOT
BRANCH   6   7
ATOM      7  N   UNL     1       1.726   7.782  19.510  0.00  0.00    +0.000 N 
ATOM      8  C   UNL     1       1.318   8.513  20.622  0.00  0.00    +0.000 C 
ATOM      9  O   UNL     1       1.601   8.223  21.783  0.00  0.00    +0.000 OA
ATOM     10  H   UNL     1       1.612   8.208  18.590  0.00  0.00    +0.000 HD
BRANCH   8  11
ATOM     11  C   UNL     1       0.510   9.763  20.430  0.00  0.00    +0.000 A 
ATOM     12  C   UNL     1      -0.131  10.281  21.576  0.00  0.00    +0.000 A 
ATOM     13  C   UNL     1      -0.904  11.438  21.507  0.00  0.00    +0.000 A 
ATOM     14 CL   UNL     1      -1.680  12.040  22.919  0.00  0.00    +0.000 Cl
ATOM     15  C   UNL     1      -1.054  12.103  20.298  0.00  0.00    +0.000 A 
ATOM     16  C   UNL     1      -0.441  11.597  19.148  0.00  0.00    +0.000 A 
ATOM     17  C   UNL     1       0.329  10.426  19.211  0.00  0.00    +0.000 A 
BRANCH  17  18
ATOM     18  O   UNL     1       0.889   9.936  18.066  0.00  0.00    +0.000 OA
ATOM     19  H   UNL     1       0.982  10.661  17.421  0.00  0.00    +0.000 HD
ENDBRANCH  17  18
ENDBRANCH   8  11
ENDBRANCH   6   7
BRANCH   3  20
ATOM     20  N   UNL     1       3.905   2.505  19.673  0.00  0.00    +0.000 N 
ATOM     21  O   UNL     1       4.992   2.334  20.246  0.00  0.00    +0.000 OA
ATOM     22  O   UNL     1       3.255   1.610  19.124  0.00  0.00    +0.000 OA
ENDBRANCH   3  20
BRANCH   1  23
ATOM     23  O   UNL     1       3.804   7.022  17.738  0.00  0.00    +0.000 OA
BRANCH  23  24
ATOM     24  C   UNL     1       5.199   6.879  17.403  0.00  0.00    +0.000 C 
BRANCH  24  25
ATOM     25  C   UNL     1       5.416   6.443  15.952  0.00  0.00    +0.000 C 
BRANCH  25  26
ATOM     26  O   UNL     1       6.754   6.071  15.654  0.00  0.00    +0.000 OA
BRANCH  26  27
ATOM     27  C   UNL     1       6.923   4.695  15.318  0.00  0.00    +0.000 C 
BRANCH  27  28
ATOM     28  C   UNL     1       6.794   4.551  13.802  0.00  0.00    +0.000 C 
BRANCH  28  29
ATOM     29  O   UNL     1       5.740   3.675  13.385  0.00  0.00    +0.000 OA
BRANCH  29  30
ATOM     30  C   UNL     1       5.889   3.063  12.104  0.00  0.00    +0.000 C 
BRANCH  30  31
ATOM     31  C   UNL     1       4.566   2.817  11.371  0.00  0.00    +0.000 C 
BRANCH  31  34
ATOM     32  N   UNL     1       2.739   4.086   8.944  0.00  0.00    +0.000 NA
ATOM     33  N   UNL     1       3.302   4.099   9.935  0.00  0.00    +0.000 NA
ATOM     34  N   UNL     1       3.913   4.087  11.017  0.00  0.00    +0.000 NA
ENDBRANCH  31  34
ENDBRANCH  30  31
ENDBRANCH  29  30
ENDBRANCH  28  29
ENDBRANCH  27  28
ENDBRANCH  26  27
ENDBRANCH  25  26
ENDBRANCH  24  25
ENDBRANCH  23  24
ENDBRANCH   1  23
TORSDOF 14
ENDMDL
MODEL 5
REMARK VINA RESULT:      -6.5      4.108      5.197
REMARK  Name = 
REMARK  14 active torsions:
REMARK  status: ('A' for Active; 'I' for Inactive)
REMARK    1  A    between atoms: N_3  and  C_4
REMARK    2  A    between atoms: C_4  and  C_5
REMARK    3  A    between atoms: C_5  and  O_6
REMARK    4  A    between atoms: O_6  and  C_7
REMARK    5  A    between atoms: C_7  and  C_8
REMARK    6  A    between atoms: C_8  and  O_9
REMARK    7  A    between atoms: O_9  and  C_10
REMARK    8  A    between atoms: C_10  and  C_11
REMARK    9  A    between atoms: C_11  and  O_12
REMARK   10  A    between atoms: O_12  and  C_13
REMARK   11  A    between atoms: C_15  and  N_16
REMARK   12  A    between atoms: C_21  and  N_22
REMARK   13  A    between atoms: C_23  and  C_25
REMARK   14  A    between atoms: C_31  and  O_32
REMARK                            x       y       z     vdW  Elec       q    Type
REMARK                         _______ _______ _______ _____ _____    ______ ____
ROOT
ATOM      1  C   UNL     1       4.828   3.621  19.001  0.00  0.00    +0.000 A 
ATOM      2  C   UNL     1       4.006   3.421  20.129  0.00  0.00    +0.000 A 
ATOM      3  C   UNL     1       2.778   2.763  20.018  0.00  0.00    +0.000 A 
ATOM      4  C   UNL     1       2.348   2.280  18.790  0.00  0.00    +0.000 A 
ATOM      5  C   UNL     1       3.167   2.455  17.673  0.00  0.00    +0.000 A 
ATOM      6  C   UNL     1       4.407   3.123  17.746  0.00  0.00    +0.000 A 
ENDROOT
BRANCH   6   7
ATOM      7  N   UNL     1       5.226   3.248  16.584  0.00  0.00    +0.000 N 
ATOM      8  C   UNL     1       5.213   4.334  15.713  0.00  0.00    +0.000 C 
ATOM      9  O   UNL     1       4.655   5.404  15.948  0.00  0.00    +0.000 OA
ATOM     10  H   UNL     1       5.875   2.487  16.389  0.00  0.00    +0.000 HD
BRANCH   8  11
ATOM     11  C   UNL     1       5.950   4.244  14.408  0.00  0.00    +0.000 A 
ATOM     12  C   UNL     1       5.409   3.371  13.439  0.00  0.00    +0.000 A 
ATOM     13  C   UNL     1       6.014   3.215  12.194  0.00  0.00    +0.000 A 
ATOM     14 CL   UNL     1       5.337   2.138  11.036  0.00  0.00    +0.000 Cl
ATOM     15  C   UNL     1       7.168   3.924  11.888  0.00  0.00    +0.000 A 
ATOM     16  C   UNL     1       7.728   4.779  12.841  0.00  0.00    +0.000 A 
ATOM     17  C   UNL     1       7.128   4.931  14.100  0.00  0.00    +0.000 A 
BRANCH  17  18
ATOM     18  O   UNL     1       7.716   5.749  15.022  0.00  0.00    +0.000 OA
ATOM     19  H   UNL     1       8.356   6.329  14.572  0.00  0.00    +0.000 HD
ENDBRANCH  17  18
ENDBRANCH   8  11
ENDBRANCH   6   7
BRANCH   3  20
ATOM     20  N   UNL     1       1.946   2.571  21.211  0.00  0.00    +0.000 N 
ATOM     21  O   UNL     1       2.516   2.224  22.257  0.00  0.00    +0.000 OA
ATOM     22  O   UNL     1       0.730   2.763  21.108  0.00  0.00    +0.000 OA
ENDBRANCH   3  20
BRANCH   1  23
ATOM     23  O   UNL     1       6.034   4.292  19.093  0.00  0.00    +0.000 OA
BRANCH  23  24
ATOM     24  C   UNL     1       5.944   5.722  18.936  0.00  0.00    +0.000 C 
BRANCH  24  25
ATOM     25  C   UNL     1       4.554   6.266  19.278  0.00  0.00    +0.000 C 
BRANCH  25  26
ATOM     26  O   UNL     1       3.735   6.510  18.143  0.00  0.00    +0.000 OA
BRANCH  26  27
ATOM     27  C   UNL     1       2.816   7.590  18.300  0.00  0.00    +0.000 C 
BRANCH  27  28
ATOM     28  C   UNL     1       2.187   7.486  19.689  0.00  0.00    +0.000 C 
BRANCH  28  29
ATOM     29  O   UNL     1       1.400   8.624  20.060  0.00  0.00    +0.000 OA
BRANCH  29  30
ATOM     30  C   UNL     1       1.081   8.754  21.446  0.00  0.00    +0.000 C 
BRANCH  30  31
ATOM     31  C   UNL     1      -0.109   9.676  21.730  0.00  0.00    +0.000 C 
BRANCH  31  34
ATOM     32  N   UNL     1      -1.416  12.207  23.381  0.00  0.00    +0.000 NA
ATOM     33  N   UNL     1      -0.705  11.332  23.216  0.00  0.00    +0.000 NA
ATOM     34  N   UNL     1       0.053  10.367  23.019  0.00  0.00    +0.000 NA
ENDBRANCH  31  34
ENDBRANCH  30  31
ENDBRANCH  29  30
ENDBRANCH  28  29
ENDBRANCH  27  28
ENDBRANCH  26  27
ENDBRANCH  25  26
ENDBRANCH  24  25
ENDBRANCH  23  24
ENDBRANCH   1  23
TORSDOF 14
ENDMDL
MODEL 6
REMARK VINA RESULT:      -6.5      5.495      8.532
REMARK  Name = 
REMARK  14 active torsions:
REMARK  status: ('A' for Active; 'I' for Inactive)
REMARK    1  A    between atoms: N_3  and  C_4
REMARK    2  A    between atoms: C_4  and  C_5
REMARK    3  A    between atoms: C_5  and  O_6
REMARK    4  A    between atoms: O_6  and  C_7
REMARK    5  A    between atoms: C_7  and  C_8
REMARK    6  A    between atoms: C_8  and  O_9
REMARK    7  A    between atoms: O_9  and  C_10
REMARK    8  A    between atoms: C_10  and  C_11
REMARK    9  A    between atoms: C_11  and  O_12
REMARK   10  A    between atoms: O_12  and  C_13
REMARK   11  A    between atoms: C_15  and  N_16
REMARK   12  A    between atoms: C_21  and  N_22
REMARK   13  A    between atoms: C_23  and  C_25
REMARK   14  A    between atoms: C_31  and  O_32
REMARK                            x       y       z     vdW  Elec       q    Type
REMARK                         _______ _______ _______ _____ _____    ______ ____
ROOT
ATOM      1  C   UNL     1       3.014   6.628  18.853  0.00  0.00    +0.000 A 
ATOM      2  C   UNL     1       3.614   5.354  18.793  0.00  0.00    +0.000 A 
ATOM      3  C   UNL     1       3.280   4.356  19.713  0.00  0.00    +0.000 A 
ATOM      4  C   UNL     1       2.336   4.598  20.701  0.00  0.00    +0.000 A 
ATOM      5  C   UNL     1       1.722   5.851  20.753  0.00  0.00    +0.000 A 
ATOM      6  C   UNL     1       2.041   6.884  19.849  0.00  0.00    +0.000 A 
ENDROOT
BRANCH   6   7
ATOM      7  N   UNL     1       1.362   8.137  19.920  0.00  0.00    +0.000 N 
ATOM      8  C   UNL     1       1.145   8.861  21.088  0.00  0.00    +0.000 C 
ATOM      9  O   UNL     1       1.690   8.620  22.165  0.00  0.00    +0.000 OA
ATOM     10  H   UNL     1       1.024   8.532  19.043  0.00  0.00    +0.000 HD
BRANCH   8  11
ATOM     11  C   UNL     1       0.222  10.045  21.064  0.00  0.00    +0.000 A 
ATOM     12  C   UNL     1      -0.082  10.581  19.794  0.00  0.00    +0.000 A 
ATOM     13  C   UNL     1      -0.929  11.678  19.661  0.00  0.00    +0.000 A 
ATOM     14 CL   UNL     1      -1.275  12.315  18.100  0.00  0.00    +0.000 Cl
ATOM     15  C   UNL     1      -1.492  12.263  20.787  0.00  0.00    +0.000 A 
ATOM     16  C   UNL     1      -1.190  11.758  22.055  0.00  0.00    +0.000 A 
ATOM     17  C   UNL     1      -0.328  10.659  22.194  0.00  0.00    +0.000 A 
BRANCH  17  18
ATOM     18  O   UNL     1      -0.025  10.207  23.447  0.00  0.00    +0.000 OA
ATOM     19  H   UNL     1       0.899  10.434  23.653  0.00  0.00    +0.000 HD
ENDBRANCH  17  18
ENDBRANCH   8  11
ENDBRANCH   6   7
BRANCH   3  20
ATOM     20  N   UNL     1       3.922   3.040  19.622  0.00  0.00    +0.000 N 
ATOM     21  O   UNL     1       5.158   3.011  19.526  0.00  0.00    +0.000 OA
ATOM     22  O   UNL     1       3.199   2.039  19.645  0.00  0.00    +0.000 OA
ENDBRANCH   3  20
BRANCH   1  23
ATOM     23  O   UNL     1       3.353   7.632  17.966  0.00  0.00    +0.000 OA
BRANCH  23  24
ATOM     24  C   UNL     1       4.275   7.238  16.929  0.00  0.00    +0.000 C 
BRANCH  24  25
ATOM     25  C   UNL     1       5.721   7.625  17.248  0.00  0.00    +0.000 C 
BRANCH  25  26
ATOM     26  O   UNL     1       6.692   6.778  16.650  0.00  0.00    +0.000 OA
BRANCH  26  27
ATOM     27  C   UNL     1       7.335   5.885  17.557  0.00  0.00    +0.000 C 
BRANCH  27  28
ATOM     28  C   UNL     1       7.203   4.465  17.007  0.00  0.00    +0.000 C 
BRANCH  28  29
ATOM     29  O   UNL     1       5.940   4.193  16.388  0.00  0.00    +0.000 OA
BRANCH  29  30
ATOM     30  C   UNL     1       5.979   3.702  15.048  0.00  0.00    +0.000 C 
BRANCH  30  31
ATOM     31  C   UNL     1       6.736   4.607  14.072  0.00  0.00    +0.000 C 
BRANCH  31  34
ATOM     32  N   UNL     1       4.827   3.091  11.860  0.00  0.00    +0.000 NA
ATOM     33  N   UNL     1       5.802   3.507  12.278  0.00  0.00    +0.000 NA
ATOM     34  N   UNL     1       6.852   3.977  12.748  0.00  0.00    +0.000 NA
ENDBRANCH  31  34
ENDBRANCH  30  31
ENDBRANCH  29  30
ENDBRANCH  28  29
ENDBRANCH  27  28
ENDBRANCH  26  27
ENDBRANCH  25  26
ENDBRANCH  24  25
ENDBRANCH  23  24
ENDBRANCH   1  23
TORSDOF 14
ENDMDL
MODEL 7
REMARK VINA RESULT:      -6.5      0.911      1.010
REMARK  Name = 
REMARK  14 active torsions:
REMARK  status: ('A' for Active; 'I' for Inactive)
REMARK    1  A    between atoms: N_3  and  C_4
REMARK    2  A    between atoms: C_4  and  C_5
REMARK    3  A    between atoms: C_5  and  O_6
REMARK    4  A    between atoms: O_6  and  C_7
REMARK    5  A    between atoms: C_7  and  C_8
REMARK    6  A    between atoms: C_8  and  O_9
REMARK    7  A    between atoms: O_9  and  C_10
REMARK    8  A    between atoms: C_10  and  C_11
REMARK    9  A    between atoms: C_11  and  O_12
REMARK   10  A    between atoms: O_12  and  C_13
REMARK   11  A    between atoms: C_15  and  N_16
REMARK   12  A    between atoms: C_21  and  N_22
REMARK   13  A    between atoms: C_23  and  C_25
REMARK   14  A    between atoms: C_31  and  O_32
REMARK                            x       y       z     vdW  Elec       q    Type
REMARK                         _______ _______ _______ _____ _____    ______ ____
ROOT
ATOM      1  C   UNL     1       4.644   4.156  18.798  0.00  0.00    +0.000 A 
ATOM      2  C   UNL     1       3.854   4.001  19.955  0.00  0.00    +0.000 A 
ATOM      3  C   UNL     1       2.837   3.042  20.010  0.00  0.00    +0.000 A 
ATOM      4  C   UNL     1       2.595   2.213  18.924  0.00  0.00    +0.000 A 
ATOM      5  C   UNL     1       3.387   2.348  17.783  0.00  0.00    +0.000 A 
ATOM      6  C   UNL     1       4.414   3.309  17.689  0.00  0.00    +0.000 A 
ENDROOT
BRANCH   6   7
ATOM      7  N   UNL     1       5.221   3.387  16.514  0.00  0.00    +0.000 N 
ATOM      8  C   UNL     1       5.233   4.457  15.625  0.00  0.00    +0.000 C 
ATOM      9  O   UNL     1       4.715   5.550  15.849  0.00  0.00    +0.000 OA
ATOM     10  H   UNL     1       5.841   2.601  16.324  0.00  0.00    +0.000 HD
BRANCH   8  11
ATOM     11  C   UNL     1       5.949   4.320  14.313  0.00  0.00    +0.000 A 
ATOM     12  C   UNL     1       5.348   3.477  13.353  0.00  0.00    +0.000 A 
ATOM     13  C   UNL     1       5.929   3.281  12.103  0.00  0.00    +0.000 A 
ATOM     14 CL   UNL     1       5.178   2.241  10.956  0.00  0.00    +0.000 Cl
ATOM     15  C   UNL     1       7.119   3.921  11.781  0.00  0.00    +0.000 A 
ATOM     16  C   UNL     1       7.738   4.747  12.724  0.00  0.00    +0.000 A 
ATOM     17  C   UNL     1       7.162   4.938  13.988  0.00  0.00    +0.000 A 
BRANCH  17  18
ATOM     18  O   UNL     1       7.805   5.724  14.901  0.00  0.00    +0.000 OA
ATOM     19  H   UNL     1       8.670   5.326  15.111  0.00  0.00    +0.000 HD
ENDBRANCH  17  18
ENDBRANCH   8  11
ENDBRANCH   6   7
BRANCH   3  20
ATOM     20  N   UNL     1       2.034   2.905  21.230  0.00  0.00    +0.000 N 
ATOM     21  O   UNL     1       0.817   3.125  21.142  0.00  0.00    +0.000 OA
ATOM     22  O   UNL     1       2.613   2.580  22.272  0.00  0.00    +0.000 OA
ENDBRANCH   3  20
BRANCH   1  23
ATOM     23  O   UNL     1       5.636   5.117  18.722  0.00  0.00    +0.000 OA
BRANCH  23  24
ATOM     24  C   UNL     1       6.970   4.596  18.546  0.00  0.00    +0.000 C 
BRANCH  24  25
ATOM     25  C   UNL     1       8.052   5.623  18.886  0.00  0.00    +0.000 C 
BRANCH  25  26
ATOM     26  O   UNL     1       7.592   6.967  18.895  0.00  0.00    +0.000 OA
BRANCH  26  27
ATOM     27  C   UNL     1       7.657   7.622  17.630  0.00  0.00    +0.000 C 
BRANCH  27  28
ATOM     28  C   UNL     1       8.203   9.033  17.847  0.00  0.00    +0.000 C 
BRANCH  28  29
ATOM     29  O   UNL     1       9.068   9.156  18.983  0.00  0.00    +0.000 OA
BRANCH  29  30
ATOM     30  C   UNL     1       9.241  10.471  19.512  0.00  0.00    +0.000 C 
BRANCH  30  31
ATOM     31  C   UNL     1      10.348  11.280  18.828  0.00  0.00    +0.000 C 
BRANCH  31  34
ATOM     32  N   UNL     1       9.545  14.349  17.947  0.00  0.00    +0.000 NA
ATOM     33  N   UNL     1       9.968  13.543  18.632  0.00  0.00    +0.000 NA
ATOM     34  N   UNL     1      10.415  12.647  19.369  0.00  0.00    +0.000 NA
ENDBRANCH  31  34
ENDBRANCH  30  31
ENDBRANCH  29  30
ENDBRANCH  28  29
ENDBRANCH  27  28
ENDBRANCH  26  27
ENDBRANCH  25  26
ENDBRANCH  24  25
ENDBRANCH  23  24
ENDBRANCH   1  23
TORSDOF 14
ENDMDL
MODEL 8
REMARK VINA RESULT:      -6.4      4.330      8.695
REMARK  Name = 
REMARK  14 active torsions:
REMARK  status: ('A' for Active; 'I' for Inactive)
REMARK    1  A    between atoms: N_3  and  C_4
REMARK    2  A    between atoms: C_4  and  C_5
REMARK    3  A    between atoms: C_5  and  O_6
REMARK    4  A    between atoms: O_6  and  C_7
REMARK    5  A    between atoms: C_7  and  C_8
REMARK    6  A    between atoms: C_8  and  O_9
REMARK    7  A    between atoms: O_9  and  C_10
REMARK    8  A    between atoms: C_10  and  C_11
REMARK    9  A    between atoms: C_11  and  O_12
REMARK   10  A    between atoms: O_12  and  C_13
REMARK   11  A    between atoms: C_15  and  N_16
REMARK   12  A    between atoms: C_21  and  N_22
REMARK   13  A    between atoms: C_23  and  C_25
REMARK   14  A    between atoms: C_31  and  O_32
REMARK                            x       y       z     vdW  Elec       q    Type
REMARK                         _______ _______ _______ _____ _____    ______ ____
ROOT
ATOM      1  C   UNL     1       6.359   6.464  17.137  0.00  0.00    +0.000 A 
ATOM      2  C   UNL     1       7.131   5.886  16.109  0.00  0.00    +0.000 A 
ATOM      3  C   UNL     1       6.566   5.585  14.866  0.00  0.00    +0.000 A 
ATOM      4  C   UNL     1       5.230   5.864  14.616  0.00  0.00    +0.000 A 
ATOM      5  C   UNL     1       4.465   6.455  15.623  0.00  0.00    +0.000 A 
ATOM      6  C   UNL     1       4.998   6.763  16.891  0.00  0.00    +0.000 A 
ENDROOT
BRANCH   6   7
ATOM      7  N   UNL     1       4.187   7.399  17.877  0.00  0.00    +0.000 N 
ATOM      8  C   UNL     1       2.929   6.960  18.279  0.00  0.00    +0.000 C 
ATOM      9  O   UNL     1       2.454   5.862  17.993  0.00  0.00    +0.000 OA
ATOM     10  H   UNL     1       4.568   8.231  18.326  0.00  0.00    +0.000 HD
BRANCH   8  11
ATOM     11  C   UNL     1       2.082   7.840  19.152  0.00  0.00    +0.000 A 
ATOM     12  C   UNL     1       1.679   9.074  18.599  0.00  0.00    +0.000 A 
ATOM     13  C   UNL     1       0.891   9.964  19.324  0.00  0.00    +0.000 A 
ATOM     14 CL   UNL     1       0.421  11.466  18.627  0.00  0.00    +0.000 Cl
ATOM     15  C   UNL     1       0.487   9.644  20.614  0.00  0.00    +0.000 A 
ATOM     16  C   UNL     1       0.890   8.434  21.185  0.00  0.00    +0.000 A 
ATOM     17  C   UNL     1       1.693   7.540  20.462  0.00  0.00    +0.000 A 
BRANCH  17  18
ATOM     18  O   UNL     1       2.099   6.380  21.057  0.00  0.00    +0.000 OA
ATOM     19  H   UNL     1       1.427   5.691  20.906  0.00  0.00    +0.000 HD
ENDBRANCH  17  18
ENDBRANCH   8  11
ENDBRANCH   6   7
BRANCH   3  20
ATOM     20  N   UNL     1       7.397   4.985  13.817  0.00  0.00    +0.000 N 
ATOM     21  O   UNL     1       7.023   3.903  13.338  0.00  0.00    +0.000 OA
ATOM     22  O   UNL     1       8.419   5.587  13.471  0.00  0.00    +0.000 OA
ENDBRANCH   3  20
BRANCH   1  23
ATOM     23  O   UNL     1       6.899   6.743  18.379  0.00  0.00    +0.000 OA
BRANCH  23  24
ATOM     24  C   UNL     1       7.616   5.650  18.987  0.00  0.00    +0.000 C 
BRANCH  24  25
ATOM     25  C   UNL     1       6.884   4.313  18.845  0.00  0.00    +0.000 C 
BRANCH  25  26
ATOM     26  O   UNL     1       5.643   4.258  19.535  0.00  0.00    +0.000 OA
BRANCH  26  27
ATOM     27  C   UNL     1       4.585   3.649  18.799  0.00  0.00    +0.000 C 
BRANCH  27  28
ATOM     28  C   UNL     1       4.327   2.262  19.387  0.00  0.00    +0.000 C 
BRANCH  28  29
ATOM     29  O   UNL     1       3.191   1.592  18.827  0.00  0.00    +0.000 OA
BRANCH  29  30
ATOM     30  C   UNL     1       2.161   2.423  18.293  0.00  0.00    +0.000 C 
BRANCH  30  31
ATOM     31  C   UNL     1       0.894   2.480  19.153  0.00  0.00    +0.000 C 
BRANCH  31  34
ATOM     32  N   UNL     1       2.142   3.360  22.069  0.00  0.00    +0.000 NA
ATOM     33  N   UNL     1       1.548   3.506  21.108  0.00  0.00    +0.000 NA
ATOM     34  N   UNL     1       0.914   3.647  20.048  0.00  0.00    +0.000 NA
ENDBRANCH  31  34
ENDBRANCH  30  31
ENDBRANCH  29  30
ENDBRANCH  28  29
ENDBRANCH  27  28
ENDBRANCH  26  27
ENDBRANCH  25  26
ENDBRANCH  24  25
ENDBRANCH  23  24
ENDBRANCH   1  23
TORSDOF 14
ENDMDL
MODEL 9
REMARK VINA RESULT:      -6.4      2.756      6.357
REMARK  Name = 
REMARK  14 active torsions:
REMARK  status: ('A' for Active; 'I' for Inactive)
REMARK    1  A    between atoms: N_3  and  C_4
REMARK    2  A    between atoms: C_4  and  C_5
REMARK    3  A    between atoms: C_5  and  O_6
REMARK    4  A    between atoms: O_6  and  C_7
REMARK    5  A    between atoms: C_7  and  C_8
REMARK    6  A    between atoms: C_8  and  O_9
REMARK    7  A    between atoms: O_9  and  C_10
REMARK    8  A    between atoms: C_10  and  C_11
REMARK    9  A    between atoms: C_11  and  O_12
REMARK   10  A    between atoms: O_12  and  C_13
REMARK   11  A    between atoms: C_15  and  N_16
REMARK   12  A    between atoms: C_21  and  N_22
REMARK   13  A    between atoms: C_23  and  C_25
REMARK   14  A    between atoms: C_31  and  O_32
REMARK                            x       y       z     vdW  Elec       q    Type
REMARK                         _______ _______ _______ _____ _____    ______ ____
ROOT
ATOM      1  C   UNL     1       6.078   5.821  16.126  0.00  0.00    +0.000 A 
ATOM      2  C   UNL     1       6.890   5.978  14.985  0.00  0.00    +0.000 A 
ATOM      3  C   UNL     1       6.984   4.967  14.023  0.00  0.00    +0.000 A 
ATOM      4  C   UNL     1       6.266   3.789  14.170  0.00  0.00    +0.000 A 
ATOM      5  C   UNL     1       5.444   3.636  15.287  0.00  0.00    +0.000 A 
ATOM      6  C   UNL     1       5.332   4.629  16.281  0.00  0.00    +0.000 A 
ENDROOT
BRANCH   6   7
ATOM      7  N   UNL     1       4.452   4.442  17.389  0.00  0.00    +0.000 N 
ATOM      8  C   UNL     1       4.843   4.015  18.655  0.00  0.00    +0.000 C 
ATOM      9  O   UNL     1       6.012   3.949  19.034  0.00  0.00    +0.000 OA
ATOM     10  H   UNL     1       3.466   4.650  17.239  0.00  0.00    +0.000 HD
BRANCH   8  11
ATOM     11  C   UNL     1       3.798   3.637  19.664  0.00  0.00    +0.000 A 
ATOM     12  C   UNL     1       2.648   4.453  19.714  0.00  0.00    +0.000 A 
ATOM     13  C   UNL     1       1.617   4.189  20.614  0.00  0.00    +0.000 A 
ATOM     14 CL   UNL     1       0.231   5.207  20.658  0.00  0.00    +0.000 Cl
ATOM     15  C   UNL     1       1.710   3.108  21.480  0.00  0.00    +0.000 A 
ATOM     16  C   UNL     1       2.849   2.298  21.456  0.00  0.00    +0.000 A 
ATOM     17  C   UNL     1       3.894   2.567  20.560  0.00  0.00    +0.000 A 
BRANCH  17  18
ATOM     18  O   UNL     1       5.008   1.778  20.582  0.00  0.00    +0.000 OA
ATOM     19  H   UNL     1       4.760   0.867  20.341  0.00  0.00    +0.000 HD
ENDBRANCH  17  18
ENDBRANCH   8  11
ENDBRANCH   6   7
BRANCH   3  20
ATOM     20  N   UNL     1       7.837   5.162  12.845  0.00  0.00    +0.000 N 
ATOM     21  O   UNL     1       8.797   5.940  12.956  0.00  0.00    +0.000 OA
ATOM     22  O   UNL     1       7.553   4.544  11.815  0.00  0.00    +0.000 OA
ENDBRANCH   3  20
BRANCH   1  23
ATOM     23  O   UNL     1       5.995   6.802  17.097  0.00  0.00    +0.000 OA
BRANCH  23  24
ATOM     24  C   UNL     1       7.184   7.603  17.251  0.00  0.00    +0.000 C 
BRANCH  24  25
ATOM     25  C   UNL     1       8.010   7.203  18.476  0.00  0.00    +0.000 C 
BRANCH  25  26
ATOM     26  O   UNL     1       8.879   8.223  18.946  0.00  0.00    +0.000 OA
BRANCH  26  27
ATOM     27  C   UNL     1       8.607   9.520  18.418  0.00  0.00    +0.000 C 
BRANCH  27  28
ATOM     28  C   UNL     1       9.186  10.560  19.376  0.00  0.00    +0.000 C 
BRANCH  28  29
ATOM     29  O   UNL     1      10.492  11.024  19.015  0.00  0.00    +0.000 OA
BRANCH  29  30
ATOM     30  C   UNL     1      10.614  11.657  17.741  0.00  0.00    +0.000 C 
BRANCH  30  31
ATOM     31  C   UNL     1      11.771  12.655  17.646  0.00  0.00    +0.000 C 
BRANCH  31  34
ATOM     32  N   UNL     1       9.440  14.968  17.885  0.00  0.00    +0.000 NA
ATOM     33  N   UNL     1      10.423  14.454  18.146  0.00  0.00    +0.000 NA
ATOM     34  N   UNL     1      11.486  13.872  18.423  0.00  0.00    +0.000 NA
ENDBRANCH  31  34
ENDBRANCH  30  31
ENDBRANCH  29  30
ENDBRANCH  28  29
ENDBRANCH  27  28
ENDBRANCH  26  27
ENDBRANCH  25  26
ENDBRANCH  24  25
ENDBRANCH  23  24
ENDBRANCH   1  23
TORSDOF 14
ENDMDL
