MODEL 1
REMARK VINA RESULT:      -6.2      0.000      0.000
REMARK  Name = 
REMARK  2 active torsions:
REMARK  status: ('A' for Active; 'I' for Inactive)
REMARK    1  A    between atoms: C_1  and  C_2
REMARK    2  A    between atoms: N_10  and  C_11
REMARK                            x       y       z     vdW  Elec       q    Type
REMARK                         _______ _______ _______ _____ _____    ______ ____
ROOT
ATOM      1  C   UNL     1       1.816   6.427  20.906  0.00  0.00    +0.000 C 
ATOM      2  C   UNL     1       1.552   5.209  20.059  0.00  0.00    +0.000 C 
ATOM      3  O   UNL     1       0.798   4.324  20.460  0.00  0.00    +0.000 OA
ATOM      4  N   UNL     1       2.217   5.138  18.832  0.00  0.00    +0.000 N 
ATOM      5  C   UNL     1       2.080   3.898  18.069  0.00  0.00    +0.000 C 
ATOM      6  C   UNL     1       3.205   2.917  18.454  0.00  0.00    +0.000 C 
ATOM      7  C   UNL     1       4.622   3.566  18.319  0.00  0.00    +0.000 C 
ATOM      8  C   UNL     1       4.954   3.697  16.821  0.00  0.00    +0.000 C 
ATOM      9  O   UNL     1       4.164   3.213  16.006  0.00  0.00    +0.000 OA
ATOM     10  N   UNL     1       6.177   4.275  16.445  0.00  0.00    +0.000 N 
ATOM     11  C   UNL     1       7.129   4.736  17.463  0.00  0.00    +0.000 C 
ATOM     12  C   UNL     1       6.579   5.937  18.221  0.00  0.00    +0.000 C 
ATOM     13  O   UNL     1       5.848   5.518  19.359  0.00  0.00    +0.000 OA
ATOM     14  C   UNL     1       4.605   4.881  19.121  0.00  0.00    +0.000 C 
ATOM     15  C   UNL     1       3.494   5.818  18.618  0.00  0.00    +0.000 C 
ENDROOT
BRANCH  10  16
ATOM     16  C   UNL     1       6.500   4.370  15.057  0.00  0.00    +0.000 A 
ATOM     17  C   UNL     1       5.915   3.609  13.988  0.00  0.00    +0.000 A 
ATOM     18  C   UNL     1       6.457   3.880  12.752  0.00  0.00    +0.000 A 
ATOM     19  S   UNL     1       7.666   5.072  12.842  0.00  0.00    +0.000 S 
ATOM     20  C   UNL     1       7.458   5.223  14.535  0.00  0.00    +0.000 A 
ENDBRANCH  10  16
TORSDOF 1
ENDMDL
MODEL 2
REMARK VINA RESULT:      -6.2      1.320      1.582
REMARK  Name = 
REMARK  2 active torsions:
REMARK  status: ('A' for Active; 'I' for Inactive)
REMARK    1  A    between atoms: C_1  and  C_2
REMARK    2  A    between atoms: N_10  and  C_11
REMARK                            x       y       z     vdW  Elec       q    Type
REMARK                         _______ _______ _______ _____ _____    ______ ____
ROOT
ATOM      1  C   UNL     1       0.730   4.762  20.427  0.00  0.00    +0.000 C 
ATOM      2  C   UNL     1       1.674   3.604  20.229  0.00  0.00    +0.000 C 
ATOM      3  O   UNL     1       1.877   2.804  21.141  0.00  0.00    +0.000 OA
ATOM      4  N   UNL     1       2.307   3.514  18.987  0.00  0.00    +0.000 N 
ATOM      5  C   UNL     1       3.331   2.481  18.833  0.00  0.00    +0.000 C 
ATOM      6  C   UNL     1       4.713   3.048  19.218  0.00  0.00    +0.000 C 
ATOM      7  C   UNL     1       5.045   4.362  18.436  0.00  0.00    +0.000 C 
ATOM      8  C   UNL     1       5.365   3.989  16.977  0.00  0.00    +0.000 C 
ATOM      9  O   UNL     1       5.412   2.793  16.679  0.00  0.00    +0.000 OA
ATOM     10  N   UNL     1       5.678   5.013  16.069  0.00  0.00    +0.000 N 
ATOM     11  C   UNL     1       5.713   6.414  16.505  0.00  0.00    +0.000 C 
ATOM     12  C   UNL     1       4.318   6.907  16.869  0.00  0.00    +0.000 C 
ATOM     13  O   UNL     1       4.050   6.678  18.241  0.00  0.00    +0.000 OA
ATOM     14  C   UNL     1       3.867   5.331  18.640  0.00  0.00    +0.000 C 
ATOM     15  C   UNL     1       2.547   4.700  18.166  0.00  0.00    +0.000 C 
ENDROOT
BRANCH  10  16
ATOM     16  C   UNL     1       6.004   4.667  14.721  0.00  0.00    +0.000 A 
ATOM     17  C   UNL     1       5.188   3.912  13.811  0.00  0.00    +0.000 A 
ATOM     18  C   UNL     1       5.779   3.691  12.588  0.00  0.00    +0.000 A 
ATOM     19  S   UNL     1       7.321   4.405  12.495  0.00  0.00    +0.000 S 
ATOM     20  C   UNL     1       7.188   5.010  14.091  0.00  0.00    +0.000 A 
ENDBRANCH  10  16
TORSDOF 1
ENDMDL
MODEL 3
REMARK VINA RESULT:      -5.9      2.826      4.398
REMARK  Name = 
REMARK  2 active torsions:
REMARK  status: ('A' for Active; 'I' for Inactive)
REMARK    1  A    between atoms: C_1  and  C_2
REMARK    2  A    between atoms: N_10  and  C_11
REMARK                            x       y       z     vdW  Elec       q    Type
REMARK                         _______ _______ _______ _____ _____    ______ ____
ROOT
ATOM      1  C   UNL     1      -0.360   8.900  21.898  0.00  0.00    +0.000 C 
ATOM      2  C   UNL     1       0.163   9.315  20.546  0.00  0.00    +0.000 C 
ATOM      3  O   UNL     1      -0.517  10.026  19.808  0.00  0.00    +0.000 OA
ATOM      4  N   UNL     1       1.424   8.835  20.185  0.00  0.00    +0.000 N 
ATOM      5  C   UNL     1       1.878   9.112  18.823  0.00  0.00    +0.000 C 
ATOM      6  C   UNL     1       1.447   7.970  17.881  0.00  0.00    +0.000 C 
ATOM      7  C   UNL     1       1.908   6.571  18.408  0.00  0.00    +0.000 C 
ATOM      8  C   UNL     1       3.430   6.454  18.205  0.00  0.00    +0.000 C 
ATOM      9  O   UNL     1       4.009   7.366  17.607  0.00  0.00    +0.000 OA
ATOM     10  N   UNL     1       4.082   5.283  18.623  0.00  0.00    +0.000 N 
ATOM     11  C   UNL     1       3.325   4.183  19.231  0.00  0.00    +0.000 C 
ATOM     12  C   UNL     1       2.775   4.587  20.593  0.00  0.00    +0.000 C 
ATOM     13  O   UNL     1       1.486   5.157  20.461  0.00  0.00    +0.000 OA
ATOM     14  C   UNL     1       1.412   6.438  19.859  0.00  0.00    +0.000 C 
ATOM     15  C   UNL     1       1.949   7.585  20.732  0.00  0.00    +0.000 C 
ENDROOT
BRANCH  10  16
ATOM     16  C   UNL     1       5.489   5.160  18.408  0.00  0.00    +0.000 A 
ATOM     17  C   UNL     1       6.133   4.605  17.250  0.00  0.00    +0.000 A 
ATOM     18  C   UNL     1       7.507   4.573  17.340  0.00  0.00    +0.000 A 
ATOM     19  S   UNL     1       8.057   5.231  18.809  0.00  0.00    +0.000 S 
ATOM     20  C   UNL     1       6.455   5.559  19.317  0.00  0.00    +0.000 A 
ENDBRANCH  10  16
TORSDOF 1
ENDMDL
MODEL 4
REMARK VINA RESULT:      -5.8      7.044     10.659
REMARK  Name = 
REMARK  2 active torsions:
REMARK  status: ('A' for Active; 'I' for Inactive)
REMARK    1  A    between atoms: C_1  and  C_2
REMARK    2  A    between atoms: N_10  and  C_11
REMARK                            x       y       z     vdW  Elec       q    Type
REMARK                         _______ _______ _______ _____ _____    ______ ____
ROOT
ATOM      1  C   UNL     1       2.254   8.009  18.070  0.00  0.00    +0.000 C 
ATOM      2  C   UNL     1       1.987   7.807  19.540  0.00  0.00    +0.000 C 
ATOM      3  O   UNL     1       1.992   6.675  20.023  0.00  0.00    +0.000 OA
ATOM      4  N   UNL     1       1.715   8.951  20.294  0.00  0.00    +0.000 N 
ATOM      5  C   UNL     1       1.314   8.753  21.686  0.00  0.00    +0.000 C 
ATOM      6  C   UNL     1      -0.220   8.628  21.780  0.00  0.00    +0.000 C 
ATOM      7  C   UNL     1      -0.948   9.834  21.098  0.00  0.00    +0.000 C 
ATOM      8  C   UNL     1      -0.778  11.073  21.996  0.00  0.00    +0.000 C 
ATOM      9  O   UNL     1      -0.225  10.927  23.089  0.00  0.00    +0.000 OA
ATOM     10  N   UNL     1      -1.334  12.293  21.580  0.00  0.00    +0.000 N 
ATOM     11  C   UNL     1      -2.077  12.384  20.317  0.00  0.00    +0.000 C 
ATOM     12  C   UNL     1      -1.151  12.184  19.124  0.00  0.00    +0.000 C 
ATOM     13  O   UNL     1      -1.081  10.815  18.771  0.00  0.00    +0.000 OA
ATOM     14  C   UNL     1      -0.393   9.959  19.667  0.00  0.00    +0.000 C 
ATOM     15  C   UNL     1       1.133  10.145  19.683  0.00  0.00    +0.000 C 
ENDROOT
BRANCH  10  16
ATOM     16  C   UNL     1      -1.203  13.438  22.425  0.00  0.00    +0.000 A 
ATOM     17  C   UNL     1      -2.017  13.758  23.565  0.00  0.00    +0.000 A 
ATOM     18  C   UNL     1      -1.690  14.953  24.164  0.00  0.00    +0.000 A 
ATOM     19  S   UNL     1      -0.379  15.709  23.386  0.00  0.00    +0.000 S 
ATOM     20  C   UNL     1      -0.255  14.431  22.252  0.00  0.00    +0.000 A 
ENDBRANCH  10  16
TORSDOF 1
ENDMDL
MODEL 5
REMARK VINA RESULT:      -5.7      1.122      1.342
REMARK  Name = 
REMARK  2 active torsions:
REMARK  status: ('A' for Active; 'I' for Inactive)
REMARK    1  A    between atoms: C_1  and  C_2
REMARK    2  A    between atoms: N_10  and  C_11
REMARK                            x       y       z     vdW  Elec       q    Type
REMARK                         _______ _______ _______ _____ _____    ______ ____
ROOT
ATOM      1  C   UNL     1       1.730   6.597  20.506  0.00  0.00    +0.000 C 
ATOM      2  C   UNL     1       1.982   5.144  20.193  0.00  0.00    +0.000 C 
ATOM      3  O   UNL     1       1.778   4.280  21.044  0.00  0.00    +0.000 OA
ATOM      4  N   UNL     1       2.474   4.851  18.918  0.00  0.00    +0.000 N 
ATOM      5  C   UNL     1       2.857   3.465  18.653  0.00  0.00    +0.000 C 
ATOM      6  C   UNL     1       4.344   3.254  19.004  0.00  0.00    +0.000 C 
ATOM      7  C   UNL     1       5.268   4.293  18.287  0.00  0.00    +0.000 C 
ATOM      8  C   UNL     1       5.345   3.925  16.794  0.00  0.00    +0.000 C 
ATOM      9  O   UNL     1       4.795   2.885  16.423  0.00  0.00    +0.000 OA
ATOM     10  N   UNL     1       6.108   4.732  15.935  0.00  0.00    +0.000 N 
ATOM     11  C   UNL     1       6.832   5.899  16.454  0.00  0.00    +0.000 C 
ATOM     12  C   UNL     1       5.863   6.980  16.914  0.00  0.00    +0.000 C 
ATOM     13  O   UNL     1       5.535   6.808  18.281  0.00  0.00    +0.000 OA
ATOM     14  C   UNL     1       4.719   5.696  18.606  0.00  0.00    +0.000 C 
ATOM     15  C   UNL     1       3.254   5.828  18.160  0.00  0.00    +0.000 C 
ENDROOT
BRANCH  10  16
ATOM     16  C   UNL     1       6.205   4.375  14.555  0.00  0.00    +0.000 A 
ATOM     17  C   UNL     1       7.327   4.609  13.688  0.00  0.00    +0.000 A 
ATOM     18  C   UNL     1       7.120   4.199  12.390  0.00  0.00    +0.000 A 
ATOM     19  S   UNL     1       5.581   3.502  12.187  0.00  0.00    +0.000 S 
ATOM     20  C   UNL     1       5.200   3.749  13.838  0.00  0.00    +0.000 A 
ENDBRANCH  10  16
TORSDOF 1
ENDMDL
MODEL 6
REMARK VINA RESULT:      -5.6      5.693      7.871
REMARK  Name = 
REMARK  2 active torsions:
REMARK  status: ('A' for Active; 'I' for Inactive)
REMARK    1  A    between atoms: C_1  and  C_2
REMARK    2  A    between atoms: N_10  and  C_11
REMARK                            x       y       z     vdW  Elec       q    Type
REMARK                         _______ _______ _______ _____ _____    ______ ____
ROOT
ATOM      1  C   UNL     1       0.573  14.693  21.712  0.00  0.00    +0.000 C 
ATOM      2  C   UNL     1       0.211  14.230  20.323  0.00  0.00    +0.000 C 
ATOM      3  O   UNL     1      -0.656  14.818  19.678  0.00  0.00    +0.000 OA
ATOM      4  N   UNL     1       0.885  13.106  19.839  0.00  0.00    +0.000 N 
ATOM      5  C   UNL     1       0.441  12.563  18.556  0.00  0.00    +0.000 C 
ATOM      6  C   UNL     1      -0.653  11.501  18.784  0.00  0.00    +0.000 C 
ATOM      7  C   UNL     1      -0.196  10.396  19.791  0.00  0.00    +0.000 C 
ATOM      8  C   UNL     1       0.835   9.494  19.087  0.00  0.00    +0.000 C 
ATOM      9  O   UNL     1       1.059   9.693  17.890  0.00  0.00    +0.000 OA
ATOM     10  N   UNL     1       1.409   8.432  19.803  0.00  0.00    +0.000 N 
ATOM     11  C   UNL     1       1.024   8.177  21.196  0.00  0.00    +0.000 C 
ATOM     12  C   UNL     1       1.503   9.298  22.109  0.00  0.00    +0.000 C 
ATOM     13  O   UNL     1       0.517  10.309  22.216  0.00  0.00    +0.000 OA
ATOM     14  C   UNL     1       0.293  11.107  21.066  0.00  0.00    +0.000 C 
ATOM     15  C   UNL     1       1.428  12.094  20.745  0.00  0.00    +0.000 C 
ENDROOT
BRANCH  10  16
ATOM     16  C   UNL     1       2.344   7.577  19.143  0.00  0.00    +0.000 A 
ATOM     17  C   UNL     1       3.055   7.864  17.927  0.00  0.00    +0.000 A 
ATOM     18  C   UNL     1       3.857   6.831  17.497  0.00  0.00    +0.000 A 
ATOM     19  S   UNL     1       3.794   5.501  18.555  0.00  0.00    +0.000 S 
ATOM     20  C   UNL     1       2.695   6.313  19.586  0.00  0.00    +0.000 A 
ENDBRANCH  10  16
TORSDOF 1
ENDMDL
MODEL 7
REMARK VINA RESULT:      -5.6      8.040     11.549
REMARK  Name = 
REMARK  2 active torsions:
REMARK  status: ('A' for Active; 'I' for Inactive)
REMARK    1  A    between atoms: C_1  and  C_2
REMARK    2  A    between atoms: N_10  and  C_11
REMARK                            x       y       z     vdW  Elec       q    Type
REMARK                         _______ _______ _______ _____ _____    ______ ____
ROOT
ATOM      1  C   UNL     1       1.856   8.224  19.132  0.00  0.00    +0.000 C 
ATOM      2  C   UNL     1       1.418   9.492  18.444  0.00  0.00    +0.000 C 
ATOM      3  O   UNL     1       2.127  10.008  17.581  0.00  0.00    +0.000 OA
ATOM      4  N   UNL     1       0.202  10.044  18.854  0.00  0.00    +0.000 N 
ATOM      5  C   UNL     1      -0.162  11.346  18.298  0.00  0.00    +0.000 C 
ATOM      6  C   UNL     1       0.371  12.474  19.204  0.00  0.00    +0.000 C 
ATOM      7  C   UNL     1      -0.083  12.294  20.691  0.00  0.00    +0.000 C 
ATOM      8  C   UNL     1      -1.582  12.634  20.784  0.00  0.00    +0.000 C 
ATOM      9  O   UNL     1      -2.144  13.066  19.774  0.00  0.00    +0.000 OA
ATOM     10  N   UNL     1      -2.226  12.527  22.027  0.00  0.00    +0.000 N 
ATOM     11  C   UNL     1      -1.480  12.110  23.221  0.00  0.00    +0.000 C 
ATOM     12  C   UNL     1      -1.042  10.655  23.110  0.00  0.00    +0.000 C 
ATOM     13  O   UNL     1       0.235  10.563  22.506  0.00  0.00    +0.000 OA
ATOM     14  C   UNL     1       0.312  10.871  21.125  0.00  0.00    +0.000 C 
ATOM     15  C   UNL     1      -0.322   9.818  20.201  0.00  0.00    +0.000 C 
ENDROOT
BRANCH  10  16
ATOM     16  C   UNL     1      -3.609  12.869  22.122  0.00  0.00    +0.000 A 
ATOM     17  C   UNL     1      -4.653  12.475  21.216  0.00  0.00    +0.000 A 
ATOM     18  C   UNL     1      -5.888  12.994  21.531  0.00  0.00    +0.000 A 
ATOM     19  S   UNL     1      -5.829  13.949  22.938  0.00  0.00    +0.000 S 
ATOM     20  C   UNL     1      -4.151  13.661  23.120  0.00  0.00    +0.000 A 
ENDBRANCH  10  16
TORSDOF 1
ENDMDL
MODEL 8
REMARK VINA RESULT:      -5.6      3.008      6.454
REMARK  Name = 
REMARK  2 active torsions:
REMARK  status: ('A' for Active; 'I' for Inactive)
REMARK    1  A    between atoms: C_1  and  C_2
REMARK    2  A    between atoms: N_10  and  C_11
REMARK                            x       y       z     vdW  Elec       q    Type
REMARK                         _______ _______ _______ _____ _____    ______ ____
ROOT
ATOM      1  C   UNL     1       6.110   3.769  13.559  0.00  0.00    +0.000 C 
ATOM      2  C   UNL     1       6.796   4.630  14.589  0.00  0.00    +0.000 C 
ATOM      3  O   UNL     1       8.021   4.611  14.699  0.00  0.00    +0.000 OA
ATOM      4  N   UNL     1       5.974   5.411  15.405  0.00  0.00    +0.000 N 
ATOM      5  C   UNL     1       6.617   6.138  16.499  0.00  0.00    +0.000 C 
ATOM      6  C   UNL     1       6.633   5.267  17.772  0.00  0.00    +0.000 C 
ATOM      7  C   UNL     1       5.207   4.742  18.141  0.00  0.00    +0.000 C 
ATOM      8  C   UNL     1       4.385   5.919  18.696  0.00  0.00    +0.000 C 
ATOM      9  O   UNL     1       4.955   7.002  18.857  0.00  0.00    +0.000 OA
ATOM     10  N   UNL     1       3.053   5.695  19.082  0.00  0.00    +0.000 N 
ATOM     11  C   UNL     1       2.459   4.358  18.969  0.00  0.00    +0.000 C 
ATOM     12  C   UNL     1       2.302   3.952  17.509  0.00  0.00    +0.000 C 
ATOM     13  O   UNL     1       3.458   3.274  17.053  0.00  0.00    +0.000 OA
ATOM     14  C   UNL     1       4.632   4.052  16.890  0.00  0.00    +0.000 C 
ATOM     15  C   UNL     1       4.595   5.019  15.695  0.00  0.00    +0.000 C 
ENDROOT
BRANCH  10  16
ATOM     16  C   UNL     1       2.298   6.779  19.625  0.00  0.00    +0.000 A 
ATOM     17  C   UNL     1       2.002   8.026  18.975  0.00  0.00    +0.000 A 
ATOM     18  C   UNL     1       1.292   8.906  19.760  0.00  0.00    +0.000 A 
ATOM     19  S   UNL     1       0.943   8.247  21.288  0.00  0.00    +0.000 S 
ATOM     20  C   UNL     1       1.741   6.785  20.892  0.00  0.00    +0.000 A 
ENDBRANCH  10  16
TORSDOF 1
ENDMDL
MODEL 9
REMARK VINA RESULT:      -5.5      4.297      6.324
REMARK  Name = 
REMARK  2 active torsions:
REMARK  status: ('A' for Active; 'I' for Inactive)
REMARK    1  A    between atoms: C_1  and  C_2
REMARK    2  A    between atoms: N_10  and  C_11
REMARK                            x       y       z     vdW  Elec       q    Type
REMARK                         _______ _______ _______ _____ _____    ______ ____
ROOT
ATOM      1  C   UNL     1      -1.523  12.083  19.648  0.00  0.00    +0.000 C 
ATOM      2  C   UNL     1      -1.205  11.182  20.814  0.00  0.00    +0.000 C 
ATOM      3  O   UNL     1      -1.262  11.611  21.965  0.00  0.00    +0.000 OA
ATOM      4  N   UNL     1      -0.825   9.872  20.511  0.00  0.00    +0.000 N 
ATOM      5  C   UNL     1      -0.376   9.034  21.622  0.00  0.00    +0.000 C 
ATOM      6  C   UNL     1       1.149   9.171  21.802  0.00  0.00    +0.000 C 
ATOM      7  C   UNL     1       1.923   8.890  20.471  0.00  0.00    +0.000 C 
ATOM      8  C   UNL     1       1.874   7.377  20.191  0.00  0.00    +0.000 C 
ATOM      9  O   UNL     1       1.362   6.645  21.043  0.00  0.00    +0.000 OA
ATOM     10  N   UNL     1       2.489   6.881  19.031  0.00  0.00    +0.000 N 
ATOM     11  C   UNL     1       3.179   7.789  18.106  0.00  0.00    +0.000 C 
ATOM     12  C   UNL     1       2.190   8.716  17.412  0.00  0.00    +0.000 C 
ATOM     13  O   UNL     1       2.014   9.906  18.157  0.00  0.00    +0.000 OA
ATOM     14  C   UNL     1       1.314   9.795  19.384  0.00  0.00    +0.000 C 
ATOM     15  C   UNL     1      -0.195   9.537  19.235  0.00  0.00    +0.000 C 
ENDROOT
BRANCH  10  16
ATOM     16  C   UNL     1       2.471   5.474  18.784  0.00  0.00    +0.000 A 
ATOM     17  C   UNL     1       1.507   4.756  17.997  0.00  0.00    +0.000 A 
ATOM     18  C   UNL     1       1.712   3.395  17.972  0.00  0.00    +0.000 A 
ATOM     19  S   UNL     1       3.083   2.949  18.876  0.00  0.00    +0.000 S 
ATOM     20  C   UNL     1       3.396   4.580  19.294  0.00  0.00    +0.000 A 
ENDBRANCH  10  16
TORSDOF 1
ENDMDL
