MODEL 1
REMARK VINA RESULT:      -8.4      0.000      0.000
REMARK  Name = 
REMARK  7 active torsions:
REMARK  status: ('A' for Active; 'I' for Inactive)
REMARK    1  A    between atoms: C_1  and  C_2
REMARK    2  A    between atoms: C_2  and  C_3
REMARK    3  A    between atoms: C_3  and  C_4
REMARK    4  A    between atoms: C_3  and  N_5
REMARK    5  A    between atoms: N_5  and  C_6
REMARK    6  A    between atoms: C_7  and  C_9
REMARK    7  A    between atoms: C_11  and  C_12
REMARK                            x       y       z     vdW  Elec       q    Type
REMARK                         _______ _______ _______ _____ _____    ______ ____
ROOT
ATOM      1  C   UNL     1       2.394   7.037  18.809  0.00  0.00    +0.000 A 
ATOM      2  N   UNL     1       3.426   6.627  18.054  0.00  0.00    +0.000 NA
ATOM      3  C   UNL     1       3.974   5.420  18.326  0.00  0.00    +0.000 A 
ATOM      4  C   UNL     1       3.461   4.595  19.362  0.00  0.00    +0.000 A 
ATOM      5  C   UNL     1       3.977   3.347  19.815  0.00  0.00    +0.000 A 
ATOM      6  C   UNL     1       3.309   2.581  20.770  0.00  0.00    +0.000 A 
ATOM      7  C   UNL     1       2.139   3.065  21.332  0.00  0.00    +0.000 A 
ATOM      8  C   UNL     1       1.666   4.320  20.953  0.00  0.00    +0.000 A 
ATOM      9  C   UNL     1       2.309   5.091  19.992  0.00  0.00    +0.000 A 
ATOM     10  N   UNL     1       1.785   6.284  19.734  0.00  0.00    +0.000 NA
ENDROOT
BRANCH   3  11
ATOM     11  C   UNL     1       5.081   5.029  17.398  0.00  0.00    +0.000 A 
ATOM     12  C   UNL     1       4.786   4.587  16.084  0.00  0.00    +0.000 A 
ATOM     13  C   UNL     1       5.776   4.188  15.179  0.00  0.00    +0.000 A 
ATOM     14  C   UNL     1       7.112   4.296  15.528  0.00  0.00    +0.000 A 
ATOM     15  C   UNL     1       7.451   4.777  16.788  0.00  0.00    +0.000 A 
ATOM     16  C   UNL     1       6.455   5.117  17.722  0.00  0.00    +0.000 A 
ATOM     17 CL   UNL     1       7.043   5.594  19.284  0.00  0.00    +0.000 Cl
ENDBRANCH   3  11
BRANCH   1  20
ATOM     18  N   UNL     1       1.234   9.157  19.654  0.00  0.00    +0.000 N 
ATOM     19  C   UNL     1       1.031   8.588  20.981  0.00  0.00    +0.000 C 
ATOM     20  C   UNL     1       1.902   8.464  18.605  0.00  0.00    +0.000 C 
ATOM     21  O   UNL     1       2.107   9.005  17.514  0.00  0.00    +0.000 OA
BRANCH  18  22
ATOM     22  C   UNL     1       0.757  10.536  19.408  0.00  0.00    +0.000 C 
ATOM     23  C   UNL     1       1.206  11.485  20.527  0.00  0.00    +0.000 C 
BRANCH  22  25
ATOM     24  C   UNL     1      -1.224  10.229  17.819  0.00  0.00    +0.000 C 
ATOM     25  C   UNL     1      -0.771  10.619  19.219  0.00  0.00    +0.000 C 
ENDBRANCH  22  25
ENDBRANCH  18  22
ENDBRANCH   1  20
TORSDOF 4
ENDMDL
MODEL 2
REMARK VINA RESULT:      -8.0      1.732      4.302
REMARK  Name = 
REMARK  7 active torsions:
REMARK  status: ('A' for Active; 'I' for Inactive)
REMARK    1  A    between atoms: C_1  and  C_2
REMARK    2  A    between atoms: C_2  and  C_3
REMARK    3  A    between atoms: C_3  and  C_4
REMARK    4  A    between atoms: C_3  and  N_5
REMARK    5  A    between atoms: N_5  and  C_6
REMARK    6  A    between atoms: C_7  and  C_9
REMARK    7  A    between atoms: C_11  and  C_12
REMARK                            x       y       z     vdW  Elec       q    Type
REMARK                         _______ _______ _______ _____ _____    ______ ____
ROOT
ATOM      1  C   UNL     1       2.719   7.865  18.168  0.00  0.00    +0.000 A 
ATOM      2  N   UNL     1       2.289   6.831  18.909  0.00  0.00    +0.000 NA
ATOM      3  C   UNL     1       2.862   5.622  18.707  0.00  0.00    +0.000 A 
ATOM      4  C   UNL     1       3.905   5.450  17.760  0.00  0.00    +0.000 A 
ATOM      5  C   UNL     1       4.545   4.235  17.382  0.00  0.00    +0.000 A 
ATOM      6  C   UNL     1       5.639   4.221  16.516  0.00  0.00    +0.000 A 
ATOM      7  C   UNL     1       6.087   5.411  15.968  0.00  0.00    +0.000 A 
ATOM      8  C   UNL     1       5.419   6.597  16.270  0.00  0.00    +0.000 A 
ATOM      9  C   UNL     1       4.338   6.633  17.141  0.00  0.00    +0.000 A 
ATOM     10  N   UNL     1       3.762   7.815  17.330  0.00  0.00    +0.000 NA
ENDROOT
BRANCH   3  11
ATOM     11  C   UNL     1       2.354   4.546  19.617  0.00  0.00    +0.000 A 
ATOM     12  C   UNL     1       2.665   4.577  20.998  0.00  0.00    +0.000 A 
ATOM     13  C   UNL     1       2.238   3.589  21.893  0.00  0.00    +0.000 A 
ATOM     14  C   UNL     1       1.409   2.571  21.451  0.00  0.00    +0.000 A 
ATOM     15  C   UNL     1       1.032   2.532  20.113  0.00  0.00    +0.000 A 
ATOM     16  C   UNL     1       1.514   3.488  19.199  0.00  0.00    +0.000 A 
ATOM     17 CL   UNL     1       1.041   3.233  17.550  0.00  0.00    +0.000 Cl
ENDBRANCH   3  11
BRANCH   1  20
ATOM     18  N   UNL     1       1.214   9.481  19.464  0.00  0.00    +0.000 N 
ATOM     19  C   UNL     1       1.191   8.613  20.635  0.00  0.00    +0.000 C 
ATOM     20  C   UNL     1       1.950   9.174  18.284  0.00  0.00    +0.000 C 
ATOM     21  O   UNL     1       1.992   9.965  17.336  0.00  0.00    +0.000 OA
BRANCH  18  22
ATOM     22  C   UNL     1       0.467  10.757  19.527  0.00  0.00    +0.000 C 
ATOM     23  C   UNL     1       0.798  11.528  20.812  0.00  0.00    +0.000 C 
BRANCH  22  25
ATOM     24  C   UNL     1      -1.498  10.195  17.988  0.00  0.00    +0.000 C 
ATOM     25  C   UNL     1      -1.058  10.568  19.397  0.00  0.00    +0.000 C 
ENDBRANCH  22  25
ENDBRANCH  18  22
ENDBRANCH   1  20
TORSDOF 4
ENDMDL
MODEL 3
REMARK VINA RESULT:      -7.9      1.210      1.699
REMARK  Name = 
REMARK  7 active torsions:
REMARK  status: ('A' for Active; 'I' for Inactive)
REMARK    1  A    between atoms: C_1  and  C_2
REMARK    2  A    between atoms: C_2  and  C_3
REMARK    3  A    between atoms: C_3  and  C_4
REMARK    4  A    between atoms: C_3  and  N_5
REMARK    5  A    between atoms: N_5  and  C_6
REMARK    6  A    between atoms: C_7  and  C_9
REMARK    7  A    between atoms: C_11  and  C_12
REMARK                            x       y       z     vdW  Elec       q    Type
REMARK                         _______ _______ _______ _____ _____    ______ ____
ROOT
ATOM      1  C   UNL     1       2.257   6.928  19.931  0.00  0.00    +0.000 A 
ATOM      2  N   UNL     1       3.243   6.801  19.028  0.00  0.00    +0.000 NA
ATOM      3  C   UNL     1       3.873   5.607  18.938  0.00  0.00    +0.000 A 
ATOM      4  C   UNL     1       3.493   4.509  19.753  0.00  0.00    +0.000 A 
ATOM      5  C   UNL     1       4.109   3.227  19.829  0.00  0.00    +0.000 A 
ATOM      6  C   UNL     1       3.565   2.195  20.594  0.00  0.00    +0.000 A 
ATOM      7  C   UNL     1       2.422   2.433  21.339  0.00  0.00    +0.000 A 
ATOM      8  C   UNL     1       1.854   3.707  21.334  0.00  0.00    +0.000 A 
ATOM      9  C   UNL     1       2.374   4.742  20.568  0.00  0.00    +0.000 A 
ATOM     10  N   UNL     1       1.768   5.920  20.666  0.00  0.00    +0.000 NA
ENDROOT
BRANCH   3  11
ATOM     11  C   UNL     1       4.918   5.548  17.867  0.00  0.00    +0.000 A 
ATOM     12  C   UNL     1       4.538   5.519  16.502  0.00  0.00    +0.000 A 
ATOM     13  C   UNL     1       5.467   5.442  15.458  0.00  0.00    +0.000 A 
ATOM     14  C   UNL     1       6.823   5.476  15.739  0.00  0.00    +0.000 A 
ATOM     15  C   UNL     1       7.243   5.560  17.062  0.00  0.00    +0.000 A 
ATOM     16  C   UNL     1       6.310   5.571  18.116  0.00  0.00    +0.000 A 
ATOM     17 CL   UNL     1       6.999   5.566  19.709  0.00  0.00    +0.000 Cl
ENDBRANCH   3  11
BRANCH   1  20
ATOM     18  N   UNL     1       1.461   9.189  19.033  0.00  0.00    +0.000 N 
ATOM     19  C   UNL     1       1.721   8.798  17.653  0.00  0.00    +0.000 C 
ATOM     20  C   UNL     1       1.676   8.319  20.141  0.00  0.00    +0.000 C 
ATOM     21  O   UNL     1       1.386   8.668  21.289  0.00  0.00    +0.000 OA
BRANCH  18  22
ATOM     22  C   UNL     1       0.910  10.539  19.283  0.00  0.00    +0.000 C 
ATOM     23  C   UNL     1      -0.572  10.613  18.893  0.00  0.00    +0.000 C 
BRANCH  22  25
ATOM     24  C   UNL     1       1.436  13.038  19.144  0.00  0.00    +0.000 C 
ATOM     25  C   UNL     1       1.704  11.654  18.573  0.00  0.00    +0.000 C 
ENDBRANCH  22  25
ENDBRANCH  18  22
ENDBRANCH   1  20
TORSDOF 4
ENDMDL
MODEL 4
REMARK VINA RESULT:      -7.9      1.156      1.610
REMARK  Name = 
REMARK  7 active torsions:
REMARK  status: ('A' for Active; 'I' for Inactive)
REMARK    1  A    between atoms: C_1  and  C_2
REMARK    2  A    between atoms: C_2  and  C_3
REMARK    3  A    between atoms: C_3  and  C_4
REMARK    4  A    between atoms: C_3  and  N_5
REMARK    5  A    between atoms: N_5  and  C_6
REMARK    6  A    between atoms: C_7  and  C_9
REMARK    7  A    between atoms: C_11  and  C_12
REMARK                            x       y       z     vdW  Elec       q    Type
REMARK                         _______ _______ _______ _____ _____    ______ ____
ROOT
ATOM      1  C   UNL     1       2.262   7.022  19.109  0.00  0.00    +0.000 A 
ATOM      2  N   UNL     1       3.507   6.704  18.715  0.00  0.00    +0.000 NA
ATOM      3  C   UNL     1       3.999   5.497  19.076  0.00  0.00    +0.000 A 
ATOM      4  C   UNL     1       3.222   4.578  19.828  0.00  0.00    +0.000 A 
ATOM      5  C   UNL     1       3.627   3.315  20.346  0.00  0.00    +0.000 A 
ATOM      6  C   UNL     1       2.726   2.456  20.974  0.00  0.00    +0.000 A 
ATOM      7  C   UNL     1       1.412   2.858  21.146  0.00  0.00    +0.000 A 
ATOM      8  C   UNL     1       1.021   4.124  20.712  0.00  0.00    +0.000 A 
ATOM      9  C   UNL     1       1.901   4.987  20.071  0.00  0.00    +0.000 A 
ATOM     10  N   UNL     1       1.425   6.180  19.730  0.00  0.00    +0.000 NA
ENDROOT
BRANCH   3  11
ATOM     11  C   UNL     1       5.370   5.214  18.544  0.00  0.00    +0.000 A 
ATOM     12  C   UNL     1       6.513   5.546  19.311  0.00  0.00    +0.000 A 
ATOM     13  C   UNL     1       7.820   5.327  18.858  0.00  0.00    +0.000 A 
ATOM     14  C   UNL     1       8.031   4.687  17.648  0.00  0.00    +0.000 A 
ATOM     15  C   UNL     1       6.937   4.292  16.886  0.00  0.00    +0.000 A 
ATOM     16  C   UNL     1       5.624   4.571  17.310  0.00  0.00    +0.000 A 
ATOM     17 CL   UNL     1       4.377   4.114  16.193  0.00  0.00    +0.000 Cl
ENDBRANCH   3  11
BRANCH   1  20
ATOM     18  N   UNL     1       1.152   9.198  19.872  0.00  0.00    +0.000 N 
ATOM     19  C   UNL     1       0.967   8.697  21.229  0.00  0.00    +0.000 C 
ATOM     20  C   UNL     1       1.787   8.444  18.845  0.00  0.00    +0.000 C 
ATOM     21  O   UNL     1       1.978   8.928  17.725  0.00  0.00    +0.000 OA
BRANCH  18  22
ATOM     22  C   UNL     1       0.690  10.570  19.568  0.00  0.00    +0.000 C 
ATOM     23  C   UNL     1       1.149  11.561  20.646  0.00  0.00    +0.000 C 
BRANCH  22  25
ATOM     24  C   UNL     1      -1.289  10.281  17.973  0.00  0.00    +0.000 C 
ATOM     25  C   UNL     1      -0.837  10.663  19.375  0.00  0.00    +0.000 C 
ENDBRANCH  22  25
ENDBRANCH  18  22
ENDBRANCH   1  20
TORSDOF 4
ENDMDL
MODEL 5
REMARK VINA RESULT:      -7.7      1.614      2.158
REMARK  Name = 
REMARK  7 active torsions:
REMARK  status: ('A' for Active; 'I' for Inactive)
REMARK    1  A    between atoms: C_1  and  C_2
REMARK    2  A    between atoms: C_2  and  C_3
REMARK    3  A    between atoms: C_3  and  C_4
REMARK    4  A    between atoms: C_3  and  N_5
REMARK    5  A    between atoms: N_5  and  C_6
REMARK    6  A    between atoms: C_7  and  C_9
REMARK    7  A    between atoms: C_11  and  C_12
REMARK                            x       y       z     vdW  Elec       q    Type
REMARK                         _______ _______ _______ _____ _____    ______ ____
ROOT
ATOM      1  C   UNL     1       2.195   6.942  19.953  0.00  0.00    +0.000 A 
ATOM      2  N   UNL     1       3.155   6.773  19.029  0.00  0.00    +0.000 NA
ATOM      3  C   UNL     1       3.769   5.569  18.963  0.00  0.00    +0.000 A 
ATOM      4  C   UNL     1       3.399   4.504  19.825  0.00  0.00    +0.000 A 
ATOM      5  C   UNL     1       4.002   3.218  19.928  0.00  0.00    +0.000 A 
ATOM      6  C   UNL     1       3.467   2.219  20.740  0.00  0.00    +0.000 A 
ATOM      7  C   UNL     1       2.347   2.495  21.507  0.00  0.00    +0.000 A 
ATOM      8  C   UNL     1       1.793   3.774  21.474  0.00  0.00    +0.000 A 
ATOM      9  C   UNL     1       2.304   4.777  20.659  0.00  0.00    +0.000 A 
ATOM     10  N   UNL     1       1.714   5.965  20.734  0.00  0.00    +0.000 NA
ENDROOT
BRANCH   3  11
ATOM     11  C   UNL     1       4.785   5.462  17.867  0.00  0.00    +0.000 A 
ATOM     12  C   UNL     1       5.975   6.229  17.923  0.00  0.00    +0.000 A 
ATOM     13  C   UNL     1       6.950   6.188  16.920  0.00  0.00    +0.000 A 
ATOM     14  C   UNL     1       6.808   5.311  15.857  0.00  0.00    +0.000 A 
ATOM     15  C   UNL     1       5.682   4.498  15.789  0.00  0.00    +0.000 A 
ATOM     16  C   UNL     1       4.670   4.585  16.764  0.00  0.00    +0.000 A 
ATOM     17 CL   UNL     1       3.281   3.586  16.474  0.00  0.00    +0.000 Cl
ENDBRANCH   3  11
BRANCH   1  20
ATOM     18  N   UNL     1       1.446   9.198  19.005  0.00  0.00    +0.000 N 
ATOM     19  C   UNL     1       1.713   8.777  17.634  0.00  0.00    +0.000 C 
ATOM     20  C   UNL     1       1.635   8.346  20.130  0.00  0.00    +0.000 C 
ATOM     21  O   UNL     1       1.339   8.721  21.269  0.00  0.00    +0.000 OA
BRANCH  18  22
ATOM     22  C   UNL     1       0.915  10.562  19.224  0.00  0.00    +0.000 C 
ATOM     23  C   UNL     1      -0.546  10.667  18.766  0.00  0.00    +0.000 C 
BRANCH  22  25
ATOM     24  C   UNL     1       1.121  13.032  18.592  0.00  0.00    +0.000 C 
ATOM     25  C   UNL     1       1.766  11.655  18.546  0.00  0.00    +0.000 C 
ENDBRANCH  22  25
ENDBRANCH  18  22
ENDBRANCH   1  20
TORSDOF 4
ENDMDL
MODEL 6
REMARK VINA RESULT:      -7.7      1.721      4.017
REMARK  Name = 
REMARK  7 active torsions:
REMARK  status: ('A' for Active; 'I' for Inactive)
REMARK    1  A    between atoms: C_1  and  C_2
REMARK    2  A    between atoms: C_2  and  C_3
REMARK    3  A    between atoms: C_3  and  C_4
REMARK    4  A    between atoms: C_3  and  N_5
REMARK    5  A    between atoms: N_5  and  C_6
REMARK    6  A    between atoms: C_7  and  C_9
REMARK    7  A    between atoms: C_11  and  C_12
REMARK                            x       y       z     vdW  Elec       q    Type
REMARK                         _______ _______ _______ _____ _____    ______ ____
ROOT
ATOM      1  C   UNL     1       2.776   7.731  18.079  0.00  0.00    +0.000 A 
ATOM      2  N   UNL     1       2.200   6.591  18.496  0.00  0.00    +0.000 NA
ATOM      3  C   UNL     1       2.838   5.425  18.240  0.00  0.00    +0.000 A 
ATOM      4  C   UNL     1       4.090   5.402  17.572  0.00  0.00    +0.000 A 
ATOM      5  C   UNL     1       4.837   4.260  17.163  0.00  0.00    +0.000 A 
ATOM      6  C   UNL     1       6.113   4.376  16.614  0.00  0.00    +0.000 A 
ATOM      7  C   UNL     1       6.653   5.635  16.412  0.00  0.00    +0.000 A 
ATOM      8  C   UNL     1       5.900   6.763  16.736  0.00  0.00    +0.000 A 
ATOM      9  C   UNL     1       4.634   6.666  17.298  0.00  0.00    +0.000 A 
ATOM     10  N   UNL     1       3.998   7.808  17.536  0.00  0.00    +0.000 NA
ENDROOT
BRANCH   3  11
ATOM     11  C   UNL     1       2.145   4.217  18.790  0.00  0.00    +0.000 A 
ATOM     12  C   UNL     1       1.655   3.217  17.914  0.00  0.00    +0.000 A 
ATOM     13  C   UNL     1       0.981   2.078  18.368  0.00  0.00    +0.000 A 
ATOM     14  C   UNL     1       0.843   1.854  19.728  0.00  0.00    +0.000 A 
ATOM     15  C   UNL     1       1.358   2.783  20.627  0.00  0.00    +0.000 A 
ATOM     16  C   UNL     1       1.978   3.961  20.171  0.00  0.00    +0.000 A 
ATOM     17 CL   UNL     1       2.464   5.066  21.417  0.00  0.00    +0.000 Cl
ENDBRANCH   3  11
BRANCH   1  20
ATOM     18  N   UNL     1       1.282   9.308  19.434  0.00  0.00    +0.000 N 
ATOM     19  C   UNL     1       1.349   8.452  20.613  0.00  0.00    +0.000 C 
ATOM     20  C   UNL     1       1.969   9.014  18.221  0.00  0.00    +0.000 C 
ATOM     21  O   UNL     1       1.936   9.795  17.265  0.00  0.00    +0.000 OA
BRANCH  18  22
ATOM     22  C   UNL     1       0.496  10.558  19.524  0.00  0.00    +0.000 C 
ATOM     23  C   UNL     1       0.771  11.292  20.843  0.00  0.00    +0.000 C 
BRANCH  22  25
ATOM     24  C   UNL     1      -1.488  10.501  17.910  0.00  0.00    +0.000 C 
ATOM     25  C   UNL     1      -1.019  10.329  19.347  0.00  0.00    +0.000 C 
ENDBRANCH  22  25
ENDBRANCH  18  22
ENDBRANCH   1  20
TORSDOF 4
ENDMDL
MODEL 7
REMARK VINA RESULT:      -7.6      0.600      1.156
REMARK  Name = 
REMARK  7 active torsions:
REMARK  status: ('A' for Active; 'I' for Inactive)
REMARK    1  A    between atoms: C_1  and  C_2
REMARK    2  A    between atoms: C_2  and  C_3
REMARK    3  A    between atoms: C_3  and  C_4
REMARK    4  A    between atoms: C_3  and  N_5
REMARK    5  A    between atoms: N_5  and  C_6
REMARK    6  A    between atoms: C_7  and  C_9
REMARK    7  A    between atoms: C_11  and  C_12
REMARK                            x       y       z     vdW  Elec       q    Type
REMARK                         _______ _______ _______ _____ _____    ______ ____
ROOT
ATOM      1  C   UNL     1       2.384   7.044  18.750  0.00  0.00    +0.000 A 
ATOM      2  N   UNL     1       3.428   6.613  18.022  0.00  0.00    +0.000 NA
ATOM      3  C   UNL     1       3.957   5.404  18.322  0.00  0.00    +0.000 A 
ATOM      4  C   UNL     1       3.413   4.598  19.357  0.00  0.00    +0.000 A 
ATOM      5  C   UNL     1       3.906   3.351  19.838  0.00  0.00    +0.000 A 
ATOM      6  C   UNL     1       3.209   2.605  20.788  0.00  0.00    +0.000 A 
ATOM      7  C   UNL     1       2.033   3.108  21.317  0.00  0.00    +0.000 A 
ATOM      8  C   UNL     1       1.581   4.363  20.912  0.00  0.00    +0.000 A 
ATOM      9  C   UNL     1       2.253   5.114  19.956  0.00  0.00    +0.000 A 
ATOM     10  N   UNL     1       1.747   6.309  19.671  0.00  0.00    +0.000 NA
ENDROOT
BRANCH   3  11
ATOM     11  C   UNL     1       5.080   4.990  17.423  0.00  0.00    +0.000 A 
ATOM     12  C   UNL     1       4.807   4.522  16.114  0.00  0.00    +0.000 A 
ATOM     13  C   UNL     1       5.813   4.101  15.236  0.00  0.00    +0.000 A 
ATOM     14  C   UNL     1       7.143   4.209  15.608  0.00  0.00    +0.000 A 
ATOM     15  C   UNL     1       7.460   4.715  16.864  0.00  0.00    +0.000 A 
ATOM     16  C   UNL     1       6.448   5.078  17.772  0.00  0.00    +0.000 A 
ATOM     17 CL   UNL     1       7.008   5.584  19.334  0.00  0.00    +0.000 Cl
ENDBRANCH   3  11
BRANCH   1  20
ATOM     18  N   UNL     1       1.314   9.220  19.571  0.00  0.00    +0.000 N 
ATOM     19  C   UNL     1       1.168   8.704  20.927  0.00  0.00    +0.000 C 
ATOM     20  C   UNL     1       1.912   8.472  18.516  0.00  0.00    +0.000 C 
ATOM     21  O   UNL     1       2.072   8.968  17.396  0.00  0.00    +0.000 OA
BRANCH  18  22
ATOM     22  C   UNL     1       0.854  10.598  19.296  0.00  0.00    +0.000 C 
ATOM     23  C   UNL     1      -0.481  10.596  18.539  0.00  0.00    +0.000 C 
BRANCH  22  25
ATOM     24  C   UNL     1       1.782  12.933  18.813  0.00  0.00    +0.000 C 
ATOM     25  C   UNL     1       1.897  11.441  18.535  0.00  0.00    +0.000 C 
ENDBRANCH  22  25
ENDBRANCH  18  22
ENDBRANCH   1  20
TORSDOF 4
ENDMDL
MODEL 8
REMARK VINA RESULT:      -7.5      1.131      1.415
REMARK  Name = 
REMARK  7 active torsions:
REMARK  status: ('A' for Active; 'I' for Inactive)
REMARK    1  A    between atoms: C_1  and  C_2
REMARK    2  A    between atoms: C_2  and  C_3
REMARK    3  A    between atoms: C_3  and  C_4
REMARK    4  A    between atoms: C_3  and  N_5
REMARK    5  A    between atoms: N_5  and  C_6
REMARK    6  A    between atoms: C_7  and  C_9
REMARK    7  A    between atoms: C_11  and  C_12
REMARK                            x       y       z     vdW  Elec       q    Type
REMARK                         _______ _______ _______ _____ _____    ______ ____
ROOT
ATOM      1  C   UNL     1       2.307   7.273  18.863  0.00  0.00    +0.000 A 
ATOM      2  N   UNL     1       3.307   6.873  18.059  0.00  0.00    +0.000 NA
ATOM      3  C   UNL     1       3.878   5.672  18.304  0.00  0.00    +0.000 A 
ATOM      4  C   UNL     1       3.425   4.842  19.363  0.00  0.00    +0.000 A 
ATOM      5  C   UNL     1       3.974   3.599  19.791  0.00  0.00    +0.000 A 
ATOM      6  C   UNL     1       3.360   2.827  20.777  0.00  0.00    +0.000 A 
ATOM      7  C   UNL     1       2.214   3.299  21.394  0.00  0.00    +0.000 A 
ATOM      8  C   UNL     1       1.711   4.550  21.038  0.00  0.00    +0.000 A 
ATOM      9  C   UNL     1       2.299   5.326  20.048  0.00  0.00    +0.000 A 
ATOM     10  N   UNL     1       1.751   6.514  19.815  0.00  0.00    +0.000 NA
ENDROOT
BRANCH   3  11
ATOM     11  C   UNL     1       4.944   5.291  17.323  0.00  0.00    +0.000 A 
ATOM     12  C   UNL     1       6.161   6.016  17.279  0.00  0.00    +0.000 A 
ATOM     13  C   UNL     1       7.184   5.721  16.370  0.00  0.00    +0.000 A 
ATOM     14  C   UNL     1       7.061   4.633  15.522  0.00  0.00    +0.000 A 
ATOM     15  C   UNL     1       5.906   3.859  15.570  0.00  0.00    +0.000 A 
ATOM     16  C   UNL     1       4.850   4.193  16.438  0.00  0.00    +0.000 A 
ATOM     17 CL   UNL     1       3.437   3.195  16.295  0.00  0.00    +0.000 Cl
ENDBRANCH   3  11
BRANCH   1  20
ATOM     18  N   UNL     1       1.164   9.380  19.761  0.00  0.00    +0.000 N 
ATOM     19  C   UNL     1       1.026   8.807  21.095  0.00  0.00    +0.000 C 
ATOM     20  C   UNL     1       1.792   8.694  18.682  0.00  0.00    +0.000 C 
ATOM     21  O   UNL     1       1.944   9.239  17.584  0.00  0.00    +0.000 OA
BRANCH  18  22
ATOM     22  C   UNL     1       0.662  10.753  19.538  0.00  0.00    +0.000 C 
ATOM     23  C   UNL     1       1.136  11.703  20.647  0.00  0.00    +0.000 C 
BRANCH  22  25
ATOM     24  C   UNL     1      -1.363  10.481  17.999  0.00  0.00    +0.000 C 
ATOM     25  C   UNL     1      -0.872  10.819  19.399  0.00  0.00    +0.000 C 
ENDBRANCH  22  25
ENDBRANCH  18  22
ENDBRANCH   1  20
TORSDOF 4
ENDMDL
MODEL 9
REMARK VINA RESULT:      -7.5      1.711      2.312
REMARK  Name = 
REMARK  7 active torsions:
REMARK  status: ('A' for Active; 'I' for Inactive)
REMARK    1  A    between atoms: C_1  and  C_2
REMARK    2  A    between atoms: C_2  and  C_3
REMARK    3  A    between atoms: C_3  and  C_4
REMARK    4  A    between atoms: C_3  and  N_5
REMARK    5  A    between atoms: N_5  and  C_6
REMARK    6  A    between atoms: C_7  and  C_9
REMARK    7  A    between atoms: C_11  and  C_12
REMARK                            x       y       z     vdW  Elec       q    Type
REMARK                         _______ _______ _______ _____ _____    ______ ____
ROOT
ATOM      1  C   UNL     1       2.184   6.591  19.765  0.00  0.00    +0.000 A 
ATOM      2  N   UNL     1       3.451   6.442  19.343  0.00  0.00    +0.000 NA
ATOM      3  C   UNL     1       3.907   5.187  19.128  0.00  0.00    +0.000 A 
ATOM      4  C   UNL     1       3.070   4.056  19.316  0.00  0.00    +0.000 A 
ATOM      5  C   UNL     1       3.427   2.681  19.208  0.00  0.00    +0.000 A 
ATOM      6  C   UNL     1       2.475   1.666  19.307  0.00  0.00    +0.000 A 
ATOM      7  C   UNL     1       1.156   1.996  19.567  0.00  0.00    +0.000 A 
ATOM      8  C   UNL     1       0.808   3.333  19.752  0.00  0.00    +0.000 A 
ATOM      9  C   UNL     1       1.738   4.358  19.642  0.00  0.00    +0.000 A 
ATOM     10  N   UNL     1       1.298   5.591  19.869  0.00  0.00    +0.000 NA
ENDROOT
BRANCH   3  11
ATOM     11  C   UNL     1       5.310   5.128  18.609  0.00  0.00    +0.000 A 
ATOM     12  C   UNL     1       6.393   5.506  19.441  0.00  0.00    +0.000 A 
ATOM     13  C   UNL     1       7.723   5.493  19.005  0.00  0.00    +0.000 A 
ATOM     14  C   UNL     1       8.030   5.020  17.740  0.00  0.00    +0.000 A 
ATOM     15  C   UNL     1       7.003   4.586  16.908  0.00  0.00    +0.000 A 
ATOM     16  C   UNL     1       5.660   4.660  17.321  0.00  0.00    +0.000 A 
ATOM     17 CL   UNL     1       4.495   4.185  16.125  0.00  0.00    +0.000 Cl
ENDBRANCH   3  11
BRANCH   1  20
ATOM     18  N   UNL     1       1.498   8.986  19.177  0.00  0.00    +0.000 N 
ATOM     19  C   UNL     1       1.599   8.726  17.746  0.00  0.00    +0.000 C 
ATOM     20  C   UNL     1       1.741   7.990  20.167  0.00  0.00    +0.000 C 
ATOM     21  O   UNL     1       1.586   8.235  21.367  0.00  0.00    +0.000 OA
BRANCH  18  22
ATOM     22  C   UNL     1       1.085  10.338  19.612  0.00  0.00    +0.000 C 
ATOM     23  C   UNL     1      -0.441  10.437  19.737  0.00  0.00    +0.000 C 
BRANCH  22  25
ATOM     24  C   UNL     1       0.832  12.753  18.808  0.00  0.00    +0.000 C 
ATOM     25  C   UNL     1       1.618  11.455  18.692  0.00  0.00    +0.000 C 
ENDBRANCH  22  25
ENDBRANCH  18  22
ENDBRANCH   1  20
TORSDOF 4
ENDMDL
