MODEL 1
REMARK VINA RESULT:      -8.1      0.000      0.000
REMARK  Name = 
REMARK  10 active torsions:
REMARK  status: ('A' for Active; 'I' for Inactive)
REMARK    1  A    between atoms: C_1  and  O_2
REMARK    2  A    between atoms: O_2  and  C_3
REMARK    3  A    between atoms: C_5  and  N_6
REMARK    4  A    between atoms: C_7  and  C_9
REMARK    5  A    between atoms: C_10  and  C_11
REMARK    6  A    between atoms: C_19  and  C_20
REMARK    7  A    between atoms: C_21  and  O_22
REMARK    8  A    between atoms: O_22  and  C_23
REMARK    9  A    between atoms: C_25  and  N_26
REMARK   10  A    between atoms: C_27  and  C_29
REMARK                            x       y       z     vdW  Elec       q    Type
REMARK                         _______ _______ _______ _____ _____    ______ ____
ROOT
ATOM      1  C   UNL     1       0.653   9.293  20.815  0.00  0.00    +0.000 A 
ATOM      2  C   UNL     1       1.304   8.069  21.048  0.00  0.00    +0.000 A 
ATOM      3  C   UNL     1       2.042   7.443  20.042  0.00  0.00    +0.000 A 
ATOM      4  C   UNL     1       2.163   8.057  18.791  0.00  0.00    +0.000 A 
ATOM      5  C   UNL     1       1.553   9.297  18.575  0.00  0.00    +0.000 A 
ATOM      6  C   UNL     1       0.802   9.936  19.573  0.00  0.00    +0.000 A 
ENDROOT
BRANCH   3   7
ATOM      7  N   UNL     1       2.689   6.200  20.247  0.00  0.00    +0.000 N 
ATOM      8  C   UNL     1       2.262   5.012  19.679  0.00  0.00    +0.000 C 
ATOM      9  O   UNL     1       1.285   4.907  18.944  0.00  0.00    +0.000 OA
ATOM     10  H   UNL     1       3.668   6.267  20.507  0.00  0.00    +0.000 HD
BRANCH   8  11
ATOM     11  C   UNL     1       3.122   3.880  19.940  0.00  0.00    +0.000 A 
ATOM     12  C   UNL     1       4.314   3.492  19.251  0.00  0.00    +0.000 A 
ATOM     13  N   UNL     1       4.757   2.312  19.719  0.00  0.00    +0.000 NA
ATOM     14  O   UNL     1       3.887   1.933  20.714  0.00  0.00    +0.000 OA
ATOM     15  C   UNL     1       2.911   2.866  20.853  0.00  0.00    +0.000 A 
ATOM     16  C   UNL     1       1.873   2.560  21.855  0.00  0.00    +0.000 C 
BRANCH  12  17
ATOM     17  C   UNL     1       5.057   4.202  18.205  0.00  0.00    +0.000 A 
ATOM     18  C   UNL     1       6.229   4.913  18.503  0.00  0.00    +0.000 A 
ATOM     19  C   UNL     1       6.937   5.575  17.496  0.00  0.00    +0.000 A 
ATOM     20  C   UNL     1       6.490   5.525  16.179  0.00  0.00    +0.000 A 
ATOM     21  C   UNL     1       5.336   4.810  15.864  0.00  0.00    +0.000 A 
ATOM     22  C   UNL     1       4.625   4.150  16.871  0.00  0.00    +0.000 A 
ENDBRANCH  12  17
ENDBRANCH   8  11
ENDBRANCH   3   7
BRANCH   6  23
ATOM     23  N   UNL     1       0.218  11.230  19.370  0.00  0.00    +0.000 N 
ATOM     24  C   UNL     1       0.878  12.443  19.550  0.00  0.00    +0.000 C 
ATOM     25  O   UNL     1       2.091  12.564  19.711  0.00  0.00    +0.000 OA
ATOM     26  H   UNL     1      -0.752  11.211  19.100  0.00  0.00    +0.000 HD
BRANCH  24  27
ATOM     27  C   UNL     1       0.089  13.713  19.551  0.00  0.00    +0.000 A 
ATOM     28  C   UNL     1      -0.963  13.804  20.482  0.00  0.00    +0.000 A 
ATOM     29  C   UNL     1      -1.732  14.964  20.595  0.00  0.00    +0.000 A 
ATOM     30  C   UNL     1      -1.455  16.051  19.775  0.00  0.00    +0.000 A 
ATOM     31  C   UNL     1      -0.415  15.973  18.843  0.00  0.00    +0.000 A 
ATOM     32  C   UNL     1       0.357  14.808  18.726  0.00  0.00    +0.000 A 
ENDBRANCH  24  27
ENDBRANCH   6  23
BRANCH   1  34
ATOM     33  C   UNL     1       0.137   9.484  23.110  0.00  0.00    +0.000 C 
ATOM     34  O   UNL     1      -0.145   9.895  21.765  0.00  0.00    +0.000 OA
ENDBRANCH   1  34
BRANCH   4  35
ATOM     35  O   UNL     1       2.855   7.340  17.843  0.00  0.00    +0.000 OA
ATOM     36  C   UNL     1       4.059   7.925  17.355  0.00  0.00    +0.000 C 
ENDBRANCH   4  35
TORSDOF 7
ENDMDL
MODEL 2
REMARK VINA RESULT:      -8.0      0.208      1.183
REMARK  Name = 
REMARK  10 active torsions:
REMARK  status: ('A' for Active; 'I' for Inactive)
REMARK    1  A    between atoms: C_1  and  O_2
REMARK    2  A    between atoms: O_2  and  C_3
REMARK    3  A    between atoms: C_5  and  N_6
REMARK    4  A    between atoms: C_7  and  C_9
REMARK    5  A    between atoms: C_10  and  C_11
REMARK    6  A    between atoms: C_19  and  C_20
REMARK    7  A    between atoms: C_21  and  O_22
REMARK    8  A    between atoms: O_22  and  C_23
REMARK    9  A    between atoms: C_25  and  N_26
REMARK   10  A    between atoms: C_27  and  C_29
REMARK                            x       y       z     vdW  Elec       q    Type
REMARK                         _______ _______ _______ _____ _____    ______ ____
ROOT
ATOM      1  C   UNL     1       0.699   9.404  20.925  0.00  0.00    +0.000 A 
ATOM      2  C   UNL     1       1.337   8.172  21.151  0.00  0.00    +0.000 A 
ATOM      3  C   UNL     1       2.030   7.521  20.128  0.00  0.00    +0.000 A 
ATOM      4  C   UNL     1       2.118   8.117  18.867  0.00  0.00    +0.000 A 
ATOM      5  C   UNL     1       1.522   9.365  18.655  0.00  0.00    +0.000 A 
ATOM      6  C   UNL     1       0.816  10.029  19.671  0.00  0.00    +0.000 A 
ENDROOT
BRANCH   3   7
ATOM      7  N   UNL     1       2.663   6.270  20.327  0.00  0.00    +0.000 N 
ATOM      8  C   UNL     1       2.224   5.090  19.752  0.00  0.00    +0.000 C 
ATOM      9  O   UNL     1       1.247   5.000  19.015  0.00  0.00    +0.000 OA
ATOM     10  H   UNL     1       3.642   6.325  20.590  0.00  0.00    +0.000 HD
BRANCH   8  11
ATOM     11  C   UNL     1       3.071   3.948  20.008  0.00  0.00    +0.000 A 
ATOM     12  C   UNL     1       4.273   3.563  19.334  0.00  0.00    +0.000 A 
ATOM     13  N   UNL     1       4.699   2.372  19.788  0.00  0.00    +0.000 NA
ATOM     14  O   UNL     1       3.808   1.981  20.760  0.00  0.00    +0.000 OA
ATOM     15  C   UNL     1       2.835   2.919  20.897  0.00  0.00    +0.000 A 
ATOM     16  C   UNL     1       1.777   2.601  21.875  0.00  0.00    +0.000 C 
BRANCH  12  17
ATOM     17  C   UNL     1       5.041   4.287  18.316  0.00  0.00    +0.000 A 
ATOM     18  C   UNL     1       4.671   4.245  16.963  0.00  0.00    +0.000 A 
ATOM     19  C   UNL     1       5.402   4.950  16.003  0.00  0.00    +0.000 A 
ATOM     20  C   UNL     1       6.502   5.713  16.382  0.00  0.00    +0.000 A 
ATOM     21  C   UNL     1       6.872   5.777  17.723  0.00  0.00    +0.000 A 
ATOM     22  C   UNL     1       6.145   5.070  18.686  0.00  0.00    +0.000 A 
ENDBRANCH  12  17
ENDBRANCH   8  11
ENDBRANCH   3   7
BRANCH   6  23
ATOM     23  N   UNL     1       0.247  11.330  19.470  0.00  0.00    +0.000 N 
ATOM     24  C   UNL     1       0.927  12.534  19.630  0.00  0.00    +0.000 C 
ATOM     25  O   UNL     1       2.146  12.638  19.766  0.00  0.00    +0.000 OA
ATOM     26  H   UNL     1      -0.729  11.324  19.220  0.00  0.00    +0.000 HD
BRANCH  24  27
ATOM     27  C   UNL     1       0.157  13.816  19.638  0.00  0.00    +0.000 A 
ATOM     28  C   UNL     1       0.642  14.851  18.816  0.00  0.00    +0.000 A 
ATOM     29  C   UNL     1      -0.028  16.071  18.716  0.00  0.00    +0.000 A 
ATOM     30  C   UNL     1      -1.197  16.271  19.440  0.00  0.00    +0.000 A 
ATOM     31  C   UNL     1      -1.688  15.253  20.264  0.00  0.00    +0.000 A 
ATOM     32  C   UNL     1      -1.016  14.027  20.367  0.00  0.00    +0.000 A 
ENDBRANCH  24  27
ENDBRANCH   6  23
BRANCH   1  34
ATOM     33  C   UNL     1       0.057   9.440  23.196  0.00  0.00    +0.000 C 
ATOM     34  O   UNL     1      -0.056  10.031  21.893  0.00  0.00    +0.000 OA
ENDBRANCH   1  34
BRANCH   4  35
ATOM     35  O   UNL     1       2.765   7.377  17.905  0.00  0.00    +0.000 OA
ATOM     36  C   UNL     1       3.907   7.978  17.300  0.00  0.00    +0.000 C 
ENDBRANCH   4  35
TORSDOF 7
ENDMDL
MODEL 3
REMARK VINA RESULT:      -7.9      0.721      1.128
REMARK  Name = 
REMARK  10 active torsions:
REMARK  status: ('A' for Active; 'I' for Inactive)
REMARK    1  A    between atoms: C_1  and  O_2
REMARK    2  A    between atoms: O_2  and  C_3
REMARK    3  A    between atoms: C_5  and  N_6
REMARK    4  A    between atoms: C_7  and  C_9
REMARK    5  A    between atoms: C_10  and  C_11
REMARK    6  A    between atoms: C_19  and  C_20
REMARK    7  A    between atoms: C_21  and  O_22
REMARK    8  A    between atoms: O_22  and  C_23
REMARK    9  A    between atoms: C_25  and  N_26
REMARK   10  A    between atoms: C_27  and  C_29
REMARK                            x       y       z     vdW  Elec       q    Type
REMARK                         _______ _______ _______ _____ _____    ______ ____
ROOT
ATOM      1  C   UNL     1       0.937   9.470  20.519  0.00  0.00    +0.000 A 
ATOM      2  C   UNL     1       1.467   8.193  20.773  0.00  0.00    +0.000 A 
ATOM      3  C   UNL     1       2.169   7.495  19.789  0.00  0.00    +0.000 A 
ATOM      4  C   UNL     1       2.376   8.086  18.539  0.00  0.00    +0.000 A 
ATOM      5  C   UNL     1       1.887   9.374  18.301  0.00  0.00    +0.000 A 
ATOM      6  C   UNL     1       1.174  10.087  19.277  0.00  0.00    +0.000 A 
ENDROOT
BRANCH   3   7
ATOM      7  N   UNL     1       2.694   6.199  20.016  0.00  0.00    +0.000 N 
ATOM      8  C   UNL     1       2.220   5.060  19.390  0.00  0.00    +0.000 C 
ATOM      9  O   UNL     1       1.300   5.048  18.577  0.00  0.00    +0.000 OA
ATOM     10  H   UNL     1       3.651   6.182  20.356  0.00  0.00    +0.000 HD
BRANCH   8  11
ATOM     11  C   UNL     1       2.961   3.857  19.692  0.00  0.00    +0.000 A 
ATOM     12  C   UNL     1       4.111   3.329  19.024  0.00  0.00    +0.000 A 
ATOM     13  N   UNL     1       4.432   2.127  19.533  0.00  0.00    +0.000 NA
ATOM     14  O   UNL     1       3.525   1.869  20.534  0.00  0.00    +0.000 OA
ATOM     15  C   UNL     1       2.646   2.900  20.636  0.00  0.00    +0.000 A 
ATOM     16  C   UNL     1       1.579   2.731  21.640  0.00  0.00    +0.000 C 
BRANCH  12  17
ATOM     17  C   UNL     1       4.925   3.927  17.961  0.00  0.00    +0.000 A 
ATOM     18  C   UNL     1       6.183   4.483  18.237  0.00  0.00    +0.000 A 
ATOM     19  C   UNL     1       6.957   5.038  17.214  0.00  0.00    +0.000 A 
ATOM     20  C   UNL     1       6.489   5.035  15.903  0.00  0.00    +0.000 A 
ATOM     21  C   UNL     1       5.248   4.473  15.611  0.00  0.00    +0.000 A 
ATOM     22  C   UNL     1       4.471   3.919  16.633  0.00  0.00    +0.000 A 
ENDBRANCH  12  17
ENDBRANCH   8  11
ENDBRANCH   3   7
BRANCH   6  23
ATOM     23  N   UNL     1       0.716  11.427  19.052  0.00  0.00    +0.000 N 
ATOM     24  C   UNL     1       1.534  12.512  18.745  0.00  0.00    +0.000 C 
ATOM     25  O   UNL     1       2.721  12.428  18.431  0.00  0.00    +0.000 OA
ATOM     26  H   UNL     1      -0.278  11.552  19.159  0.00  0.00    +0.000 HD
BRANCH  24  27
ATOM     27  C   UNL     1       0.965  13.894  18.785  0.00  0.00    +0.000 A 
ATOM     28  C   UNL     1       1.860  14.954  18.546  0.00  0.00    +0.000 A 
ATOM     29  C   UNL     1       1.422  16.279  18.516  0.00  0.00    +0.000 A 
ATOM     30  C   UNL     1       0.077  16.560  18.725  0.00  0.00    +0.000 A 
ATOM     31  C   UNL     1      -0.822  15.517  18.967  0.00  0.00    +0.000 A 
ATOM     32  C   UNL     1      -0.384  14.185  19.000  0.00  0.00    +0.000 A 
ENDBRANCH  24  27
ENDBRANCH   6  23
BRANCH   1  34
ATOM     33  C   UNL     1       0.096   9.503  22.723  0.00  0.00    +0.000 C 
ATOM     34  O   UNL     1       0.175  10.150  21.445  0.00  0.00    +0.000 OA
ENDBRANCH   1  34
BRANCH   4  35
ATOM     35  O   UNL     1       3.022   7.301  17.612  0.00  0.00    +0.000 OA
ATOM     36  C   UNL     1       4.377   7.635  17.329  0.00  0.00    +0.000 C 
ENDBRANCH   4  35
TORSDOF 7
ENDMDL
MODEL 4
REMARK VINA RESULT:      -7.7      0.748      1.152
REMARK  Name = 
REMARK  10 active torsions:
REMARK  status: ('A' for Active; 'I' for Inactive)
REMARK    1  A    between atoms: C_1  and  O_2
REMARK    2  A    between atoms: O_2  and  C_3
REMARK    3  A    between atoms: C_5  and  N_6
REMARK    4  A    between atoms: C_7  and  C_9
REMARK    5  A    between atoms: C_10  and  C_11
REMARK    6  A    between atoms: C_19  and  C_20
REMARK    7  A    between atoms: C_21  and  O_22
REMARK    8  A    between atoms: O_22  and  C_23
REMARK    9  A    between atoms: C_25  and  N_26
REMARK   10  A    between atoms: C_27  and  C_29
REMARK                            x       y       z     vdW  Elec       q    Type
REMARK                         _______ _______ _______ _____ _____    ______ ____
ROOT
ATOM      1  C   UNL     1       0.200   9.079  21.137  0.00  0.00    +0.000 A 
ATOM      2  C   UNL     1       0.889   7.868  21.324  0.00  0.00    +0.000 A 
ATOM      3  C   UNL     1       1.856   7.441  20.412  0.00  0.00    +0.000 A 
ATOM      4  C   UNL     1       2.167   8.243  19.310  0.00  0.00    +0.000 A 
ATOM      5  C   UNL     1       1.514   9.470  19.149  0.00  0.00    +0.000 A 
ATOM      6  C   UNL     1       0.536   9.911  20.054  0.00  0.00    +0.000 A 
ENDROOT
BRANCH   3   7
ATOM      7  N   UNL     1       2.547   6.215  20.568  0.00  0.00    +0.000 N 
ATOM      8  C   UNL     1       2.261   5.075  19.837  0.00  0.00    +0.000 C 
ATOM      9  O   UNL     1       1.384   5.003  18.981  0.00  0.00    +0.000 OA
ATOM     10  H   UNL     1       3.484   6.300  20.952  0.00  0.00    +0.000 HD
BRANCH   8  11
ATOM     11  C   UNL     1       3.150   3.964  20.085  0.00  0.00    +0.000 A 
ATOM     12  C   UNL     1       4.414   3.682  19.476  0.00  0.00    +0.000 A 
ATOM     13  N   UNL     1       4.873   2.489  19.891  0.00  0.00    +0.000 NA
ATOM     14  O   UNL     1       3.943   1.996  20.775  0.00  0.00    +0.000 OA
ATOM     15  C   UNL     1       2.914   2.873  20.897  0.00  0.00    +0.000 A 
ATOM     16  C   UNL     1       1.812   2.445  21.780  0.00  0.00    +0.000 C 
BRANCH  12  17
ATOM     17  C   UNL     1       5.206   4.504  18.555  0.00  0.00    +0.000 A 
ATOM     18  C   UNL     1       4.930   4.523  17.180  0.00  0.00    +0.000 A 
ATOM     19  C   UNL     1       5.683   5.319  16.313  0.00  0.00    +0.000 A 
ATOM     20  C   UNL     1       6.711   6.115  16.809  0.00  0.00    +0.000 A 
ATOM     21  C   UNL     1       6.987   6.119  18.175  0.00  0.00    +0.000 A 
ATOM     22  C   UNL     1       6.238   5.320  19.044  0.00  0.00    +0.000 A 
ENDBRANCH  12  17
ENDBRANCH   8  11
ENDBRANCH   3   7
BRANCH   6  23
ATOM     23  N   UNL     1      -0.099  11.190  19.918  0.00  0.00    +0.000 N 
ATOM     24  C   UNL     1       0.332  12.365  20.528  0.00  0.00    +0.000 C 
ATOM     25  O   UNL     1       1.415  12.505  21.094  0.00  0.00    +0.000 OA
ATOM     26  H   UNL     1      -0.930  11.185  19.349  0.00  0.00    +0.000 HD
BRANCH  24  27
ATOM     27  C   UNL     1      -0.556  13.568  20.510  0.00  0.00    +0.000 A 
ATOM     28  C   UNL     1      -1.788  13.455  21.184  0.00  0.00    +0.000 A 
ATOM     29  C   UNL     1      -2.670  14.534  21.266  0.00  0.00    +0.000 A 
ATOM     30  C   UNL     1      -2.328  15.743  20.673  0.00  0.00    +0.000 A 
ATOM     31  C   UNL     1      -1.110  15.868  19.998  0.00  0.00    +0.000 A 
ATOM     32  C   UNL     1      -0.223  14.786  19.912  0.00  0.00    +0.000 A 
ENDBRANCH  24  27
ENDBRANCH   6  23
BRANCH   1  34
ATOM     33  C   UNL     1      -0.363   9.874  23.287  0.00  0.00    +0.000 C 
ATOM     34  O   UNL     1      -0.811   9.489  21.979  0.00  0.00    +0.000 OA
ENDBRANCH   1  34
BRANCH   4  35
ATOM     35  O   UNL     1       3.084   7.715  18.432  0.00  0.00    +0.000 OA
ATOM     36  C   UNL     1       2.769   7.813  17.046  0.00  0.00    +0.000 C 
ENDBRANCH   4  35
TORSDOF 7
ENDMDL
MODEL 5
REMARK VINA RESULT:      -7.6      0.676      1.074
REMARK  Name = 
REMARK  10 active torsions:
REMARK  status: ('A' for Active; 'I' for Inactive)
REMARK    1  A    between atoms: C_1  and  O_2
REMARK    2  A    between atoms: O_2  and  C_3
REMARK    3  A    between atoms: C_5  and  N_6
REMARK    4  A    between atoms: C_7  and  C_9
REMARK    5  A    between atoms: C_10  and  C_11
REMARK    6  A    between atoms: C_19  and  C_20
REMARK    7  A    between atoms: C_21  and  O_22
REMARK    8  A    between atoms: O_22  and  C_23
REMARK    9  A    between atoms: C_25  and  N_26
REMARK   10  A    between atoms: C_27  and  C_29
REMARK                            x       y       z     vdW  Elec       q    Type
REMARK                         _______ _______ _______ _____ _____    ______ ____
ROOT
ATOM      1  C   UNL     1       0.287   9.149  21.154  0.00  0.00    +0.000 A 
ATOM      2  C   UNL     1       0.962   7.930  21.340  0.00  0.00    +0.000 A 
ATOM      3  C   UNL     1       1.879   7.463  20.396  0.00  0.00    +0.000 A 
ATOM      4  C   UNL     1       2.154   8.233  19.262  0.00  0.00    +0.000 A 
ATOM      5  C   UNL     1       1.515   9.467  19.100  0.00  0.00    +0.000 A 
ATOM      6  C   UNL     1       0.586   9.947  20.036  0.00  0.00    +0.000 A 
ENDROOT
BRANCH   3   7
ATOM      7  N   UNL     1       2.556   6.229  20.552  0.00  0.00    +0.000 N 
ATOM      8  C   UNL     1       2.240   5.087  19.837  0.00  0.00    +0.000 C 
ATOM      9  O   UNL     1       1.348   5.019  18.997  0.00  0.00    +0.000 OA
ATOM     10  H   UNL     1       3.500   6.304  20.918  0.00  0.00    +0.000 HD
BRANCH   8  11
ATOM     11  C   UNL     1       3.119   3.966  20.080  0.00  0.00    +0.000 A 
ATOM     12  C   UNL     1       4.387   3.682  19.482  0.00  0.00    +0.000 A 
ATOM     13  N   UNL     1       4.833   2.480  19.885  0.00  0.00    +0.000 NA
ATOM     14  O   UNL     1       3.888   1.981  20.751  0.00  0.00    +0.000 OA
ATOM     15  C   UNL     1       2.864   2.865  20.874  0.00  0.00    +0.000 A 
ATOM     16  C   UNL     1       1.749   2.433  21.737  0.00  0.00    +0.000 C 
BRANCH  12  17
ATOM     17  C   UNL     1       5.197   4.511  18.582  0.00  0.00    +0.000 A 
ATOM     18  C   UNL     1       6.253   5.293  19.070  0.00  0.00    +0.000 A 
ATOM     19  C   UNL     1       7.026   6.069  18.202  0.00  0.00    +0.000 A 
ATOM     20  C   UNL     1       6.762   6.063  16.836  0.00  0.00    +0.000 A 
ATOM     21  C   UNL     1       5.726   5.279  16.333  0.00  0.00    +0.000 A 
ATOM     22  C   UNL     1       4.949   4.505  17.200  0.00  0.00    +0.000 A 
ENDBRANCH  12  17
ENDBRANCH   8  11
ENDBRANCH   3   7
BRANCH   6  23
ATOM     23  N   UNL     1      -0.031  11.234  19.897  0.00  0.00    +0.000 N 
ATOM     24  C   UNL     1       0.411  12.404  20.509  0.00  0.00    +0.000 C 
ATOM     25  O   UNL     1       1.493  12.531  21.080  0.00  0.00    +0.000 OA
ATOM     26  H   UNL     1      -0.860  11.239  19.324  0.00  0.00    +0.000 HD
BRANCH  24  27
ATOM     27  C   UNL     1      -0.462  13.618  20.487  0.00  0.00    +0.000 A 
ATOM     28  C   UNL     1       0.005  14.720  19.745  0.00  0.00    +0.000 A 
ATOM     29  C   UNL     1      -0.754  15.885  19.623  0.00  0.00    +0.000 A 
ATOM     30  C   UNL     1      -1.996  15.961  20.244  0.00  0.00    +0.000 A 
ATOM     31  C   UNL     1      -2.470  14.875  20.987  0.00  0.00    +0.000 A 
ATOM     32  C   UNL     1      -1.708  13.705  21.113  0.00  0.00    +0.000 A 
ENDBRANCH  24  27
ENDBRANCH   6  23
BRANCH   1  34
ATOM     33  C   UNL     1      -0.229   9.704  23.389  0.00  0.00    +0.000 C 
ATOM     34  O   UNL     1      -0.678   9.597  22.031  0.00  0.00    +0.000 OA
ENDBRANCH   1  34
BRANCH   4  35
ATOM     35  O   UNL     1       3.021   7.666  18.357  0.00  0.00    +0.000 OA
ATOM     36  C   UNL     1       2.966   8.166  17.024  0.00  0.00    +0.000 C 
ENDBRANCH   4  35
TORSDOF 7
ENDMDL
MODEL 6
REMARK VINA RESULT:      -7.3      3.973     10.741
REMARK  Name = 
REMARK  10 active torsions:
REMARK  status: ('A' for Active; 'I' for Inactive)
REMARK    1  A    between atoms: C_1  and  O_2
REMARK    2  A    between atoms: O_2  and  C_3
REMARK    3  A    between atoms: C_5  and  N_6
REMARK    4  A    between atoms: C_7  and  C_9
REMARK    5  A    between atoms: C_10  and  C_11
REMARK    6  A    between atoms: C_19  and  C_20
REMARK    7  A    between atoms: C_21  and  O_22
REMARK    8  A    between atoms: O_22  and  C_23
REMARK    9  A    between atoms: C_25  and  N_26
REMARK   10  A    between atoms: C_27  and  C_29
REMARK                            x       y       z     vdW  Elec       q    Type
REMARK                         _______ _______ _______ _____ _____    ______ ____
ROOT
ATOM      1  C   UNL     1      -0.484  10.702  20.545  0.00  0.00    +0.000 A 
ATOM      2  C   UNL     1      -1.583  11.579  20.533  0.00  0.00    +0.000 A 
ATOM      3  C   UNL     1      -2.274  11.852  19.350  0.00  0.00    +0.000 A 
ATOM      4  C   UNL     1      -1.888  11.221  18.164  0.00  0.00    +0.000 A 
ATOM      5  C   UNL     1      -0.824  10.313  18.186  0.00  0.00    +0.000 A 
ATOM      6  C   UNL     1      -0.115  10.032  19.364  0.00  0.00    +0.000 A 
ENDROOT
BRANCH   3   7
ATOM      7  N   UNL     1      -3.370  12.748  19.310  0.00  0.00    +0.000 N 
ATOM      8  C   UNL     1      -4.691  12.340  19.263  0.00  0.00    +0.000 C 
ATOM      9  O   UNL     1      -5.055  11.168  19.250  0.00  0.00    +0.000 OA
ATOM     10  H   UNL     1      -3.179  13.671  19.690  0.00  0.00    +0.000 HD
BRANCH   8  11
ATOM     11  C   UNL     1      -5.653  13.417  19.327  0.00  0.00    +0.000 A 
ATOM     12  C   UNL     1      -5.966  14.266  20.435  0.00  0.00    +0.000 A 
ATOM     13  N   UNL     1      -7.004  15.064  20.129  0.00  0.00    +0.000 NA
ATOM     14  O   UNL     1      -7.361  14.765  18.835  0.00  0.00    +0.000 OA
ATOM     15  C   UNL     1      -6.556  13.785  18.350  0.00  0.00    +0.000 A 
ATOM     16  C   UNL     1      -6.864  13.327  16.982  0.00  0.00    +0.000 C 
BRANCH  12  17
ATOM     17  C   UNL     1      -5.308  14.372  21.741  0.00  0.00    +0.000 A 
ATOM     18  C   UNL     1      -4.703  15.568  22.154  0.00  0.00    +0.000 A 
ATOM     19  C   UNL     1      -4.090  15.661  23.406  0.00  0.00    +0.000 A 
ATOM     20  C   UNL     1      -4.083  14.566  24.265  0.00  0.00    +0.000 A 
ATOM     21  C   UNL     1      -4.693  13.376  23.876  0.00  0.00    +0.000 A 
ATOM     22  C   UNL     1      -5.305  13.279  22.622  0.00  0.00    +0.000 A 
ENDBRANCH  12  17
ENDBRANCH   8  11
ENDBRANCH   3   7
BRANCH   6  23
ATOM     23  N   UNL     1       0.944   9.066  19.399  0.00  0.00    +0.000 N 
ATOM     24  C   UNL     1       1.847   8.831  18.366  0.00  0.00    +0.000 C 
ATOM     25  O   UNL     1       1.984   9.551  17.377  0.00  0.00    +0.000 OA
ATOM     26  H   UNL     1       0.983   8.520  20.245  0.00  0.00    +0.000 HD
BRANCH  24  27
ATOM     27  C   UNL     1       2.736   7.630  18.427  0.00  0.00    +0.000 A 
ATOM     28  C   UNL     1       2.537   6.751  19.509  0.00  0.00    +0.000 A 
ATOM     29  C   UNL     1       3.283   5.578  19.635  0.00  0.00    +0.000 A 
ATOM     30  C   UNL     1       4.240   5.269  18.676  0.00  0.00    +0.000 A 
ATOM     31  C   UNL     1       4.451   6.135  17.599  0.00  0.00    +0.000 A 
ATOM     32  C   UNL     1       3.705   7.315  17.471  0.00  0.00    +0.000 A 
ENDBRANCH  24  27
ENDBRANCH   6  23
BRANCH   1  34
ATOM     33  C   UNL     1      -0.522  10.229  22.857  0.00  0.00    +0.000 C 
ATOM     34  O   UNL     1       0.263  10.472  21.681  0.00  0.00    +0.000 OA
ENDBRANCH   1  34
BRANCH   4  35
ATOM     35  O   UNL     1      -2.583  11.597  17.039  0.00  0.00    +0.000 OA
ATOM     36  C   UNL     1      -2.853  10.574  16.085  0.00  0.00    +0.000 C 
ENDBRANCH   4  35
TORSDOF 7
ENDMDL
MODEL 7
REMARK VINA RESULT:      -7.2      2.165      4.361
REMARK  Name = 
REMARK  10 active torsions:
REMARK  status: ('A' for Active; 'I' for Inactive)
REMARK    1  A    between atoms: C_1  and  O_2
REMARK    2  A    between atoms: O_2  and  C_3
REMARK    3  A    between atoms: C_5  and  N_6
REMARK    4  A    between atoms: C_7  and  C_9
REMARK    5  A    between atoms: C_10  and  C_11
REMARK    6  A    between atoms: C_19  and  C_20
REMARK    7  A    between atoms: C_21  and  O_22
REMARK    8  A    between atoms: O_22  and  C_23
REMARK    9  A    between atoms: C_25  and  N_26
REMARK   10  A    between atoms: C_27  and  C_29
REMARK                            x       y       z     vdW  Elec       q    Type
REMARK                         _______ _______ _______ _____ _____    ______ ____
ROOT
ATOM      1  C   UNL     1       1.620   9.717  18.357  0.00  0.00    +0.000 A 
ATOM      2  C   UNL     1       2.236   8.680  17.635  0.00  0.00    +0.000 A 
ATOM      3  C   UNL     1       2.514   7.450  18.234  0.00  0.00    +0.000 A 
ATOM      4  C   UNL     1       2.147   7.234  19.566  0.00  0.00    +0.000 A 
ATOM      5  C   UNL     1       1.494   8.250  20.271  0.00  0.00    +0.000 A 
ATOM      6  C   UNL     1       1.213   9.494  19.685  0.00  0.00    +0.000 A 
ENDROOT
BRANCH   3   7
ATOM      7  N   UNL     1       3.152   6.399  17.532  0.00  0.00    +0.000 N 
ATOM      8  C   UNL     1       4.524   6.302  17.379  0.00  0.00    +0.000 C 
ATOM      9  O   UNL     1       5.330   7.110  17.829  0.00  0.00    +0.000 OA
ATOM     10  H   UNL     1       2.614   5.540  17.472  0.00  0.00    +0.000 HD
BRANCH   8  11
ATOM     11  C   UNL     1       4.969   5.100  16.713  0.00  0.00    +0.000 A 
ATOM     12  C   UNL     1       4.635   3.741  17.011  0.00  0.00    +0.000 A 
ATOM     13  N   UNL     1       5.350   2.907  16.237  0.00  0.00    +0.000 NA
ATOM     14  O   UNL     1       6.131   3.696  15.425  0.00  0.00    +0.000 OA
ATOM     15  C   UNL     1       5.905   5.006  15.702  0.00  0.00    +0.000 A 
ATOM     16  C   UNL     1       6.720   5.969  14.937  0.00  0.00    +0.000 C 
BRANCH  12  17
ATOM     17  C   UNL     1       3.653   3.213  17.964  0.00  0.00    +0.000 A 
ATOM     18  C   UNL     1       2.315   3.016  17.593  0.00  0.00    +0.000 A 
ATOM     19  C   UNL     1       1.391   2.500  18.505  0.00  0.00    +0.000 A 
ATOM     20  C   UNL     1       1.794   2.163  19.794  0.00  0.00    +0.000 A 
ATOM     21  C   UNL     1       3.123   2.337  20.173  0.00  0.00    +0.000 A 
ATOM     22  C   UNL     1       4.049   2.857  19.263  0.00  0.00    +0.000 A 
ENDBRANCH  12  17
ENDBRANCH   8  11
ENDBRANCH   3   7
BRANCH   6  23
ATOM     23  N   UNL     1       0.500  10.519  20.389  0.00  0.00    +0.000 N 
ATOM     24  C   UNL     1       0.377  10.601  21.774  0.00  0.00    +0.000 C 
ATOM     25  O   UNL     1       1.024   9.929  22.576  0.00  0.00    +0.000 OA
ATOM     26  H   UNL     1       0.048  11.196  19.796  0.00  0.00    +0.000 HD
BRANCH  24  27
ATOM     27  C   UNL     1      -0.598  11.567  22.368  0.00  0.00    +0.000 A 
ATOM     28  C   UNL     1      -0.367  12.933  22.118  0.00  0.00    +0.000 A 
ATOM     29  C   UNL     1      -1.243  13.913  22.588  0.00  0.00    +0.000 A 
ATOM     30  C   UNL     1      -2.365  13.536  23.316  0.00  0.00    +0.000 A 
ATOM     31  C   UNL     1      -2.605  12.183  23.575  0.00  0.00    +0.000 A 
ATOM     32  C   UNL     1      -1.726  11.197  23.105  0.00  0.00    +0.000 A 
ENDBRANCH  24  27
ENDBRANCH   6  23
BRANCH   1  34
ATOM     33  C   UNL     1       2.479  11.891  18.029  0.00  0.00    +0.000 C 
ATOM     34  O   UNL     1       1.404  10.966  17.814  0.00  0.00    +0.000 OA
ENDBRANCH   1  34
BRANCH   4  35
ATOM     35  O   UNL     1       2.516   6.018  20.092  0.00  0.00    +0.000 OA
ATOM     36  C   UNL     1       1.558   5.365  20.921  0.00  0.00    +0.000 C 
ENDBRANCH   4  35
TORSDOF 7
ENDMDL
MODEL 8
REMARK VINA RESULT:      -7.2      3.821     10.594
REMARK  Name = 
REMARK  10 active torsions:
REMARK  status: ('A' for Active; 'I' for Inactive)
REMARK    1  A    between atoms: C_1  and  O_2
REMARK    2  A    between atoms: O_2  and  C_3
REMARK    3  A    between atoms: C_5  and  N_6
REMARK    4  A    between atoms: C_7  and  C_9
REMARK    5  A    between atoms: C_10  and  C_11
REMARK    6  A    between atoms: C_19  and  C_20
REMARK    7  A    between atoms: C_21  and  O_22
REMARK    8  A    between atoms: O_22  and  C_23
REMARK    9  A    between atoms: C_25  and  N_26
REMARK   10  A    between atoms: C_27  and  C_29
REMARK                            x       y       z     vdW  Elec       q    Type
REMARK                         _______ _______ _______ _____ _____    ______ ____
ROOT
ATOM      1  C   UNL     1       0.559  10.170  21.099  0.00  0.00    +0.000 A 
ATOM      2  C   UNL     1      -0.373  11.155  21.470  0.00  0.00    +0.000 A 
ATOM      3  C   UNL     1      -1.293  11.660  20.548  0.00  0.00    +0.000 A 
ATOM      4  C   UNL     1      -1.308  11.158  19.243  0.00  0.00    +0.000 A 
ATOM      5  C   UNL     1      -0.411  10.145  18.888  0.00  0.00    +0.000 A 
ATOM      6  C   UNL     1       0.524   9.632  19.801  0.00  0.00    +0.000 A 
ENDROOT
BRANCH   3   7
ATOM      7  N   UNL     1      -2.227  12.667  20.892  0.00  0.00    +0.000 N 
ATOM      8  C   UNL     1      -2.802  12.782  22.146  0.00  0.00    +0.000 C 
ATOM      9  O   UNL     1      -2.569  12.030  23.087  0.00  0.00    +0.000 OA
ATOM     10  H   UNL     1      -2.176  13.507  20.323  0.00  0.00    +0.000 HD
BRANCH   8  11
ATOM     11  C   UNL     1      -3.653  13.938  22.311  0.00  0.00    +0.000 A 
ATOM     12  C   UNL     1      -5.060  14.048  22.076  0.00  0.00    +0.000 A 
ATOM     13  N   UNL     1      -5.458  15.323  22.230  0.00  0.00    +0.000 NA
ATOM     14  O   UNL     1      -4.340  16.043  22.582  0.00  0.00    +0.000 OA
ATOM     15  C   UNL     1      -3.261  15.221  22.635  0.00  0.00    +0.000 A 
ATOM     16  C   UNL     1      -1.977  15.875  22.951  0.00  0.00    +0.000 C 
BRANCH  12  17
ATOM     17  C   UNL     1      -6.033  13.001  21.747  0.00  0.00    +0.000 A 
ATOM     18  C   UNL     1      -6.986  12.577  22.685  0.00  0.00    +0.000 A 
ATOM     19  C   UNL     1      -7.916  11.588  22.357  0.00  0.00    +0.000 A 
ATOM     20  C   UNL     1      -7.915  11.019  21.087  0.00  0.00    +0.000 A 
ATOM     21  C   UNL     1      -6.985  11.441  20.139  0.00  0.00    +0.000 A 
ATOM     22  C   UNL     1      -6.050  12.429  20.466  0.00  0.00    +0.000 A 
ENDBRANCH  12  17
ENDBRANCH   8  11
ENDBRANCH   3   7
BRANCH   6  23
ATOM     23  N   UNL     1       1.410   8.560  19.453  0.00  0.00    +0.000 N 
ATOM     24  C   UNL     1       2.138   8.475  18.269  0.00  0.00    +0.000 C 
ATOM     25  O   UNL     1       2.272   9.393  17.461  0.00  0.00    +0.000 OA
ATOM     26  H   UNL     1       1.461   7.822  20.138  0.00  0.00    +0.000 HD
BRANCH  24  27
ATOM     27  C   UNL     1       2.824   7.193  17.921  0.00  0.00    +0.000 A 
ATOM     28  C   UNL     1       4.074   7.298  17.279  0.00  0.00    +0.000 A 
ATOM     29  C   UNL     1       4.817   6.163  16.952  0.00  0.00    +0.000 A 
ATOM     30  C   UNL     1       4.318   4.904  17.264  0.00  0.00    +0.000 A 
ATOM     31  C   UNL     1       3.077   4.785  17.898  0.00  0.00    +0.000 A 
ATOM     32  C   UNL     1       2.327   5.923  18.226  0.00  0.00    +0.000 A 
ENDBRANCH  24  27
ENDBRANCH   6  23
BRANCH   1  34
ATOM     33  C   UNL     1       1.015   9.267  23.232  0.00  0.00    +0.000 C 
ATOM     34  O   UNL     1       1.527   9.709  21.966  0.00  0.00    +0.000 OA
ENDBRANCH   1  34
BRANCH   4  35
ATOM     35  O   UNL     1      -2.203  11.756  18.388  0.00  0.00    +0.000 OA
ATOM     36  C   UNL     1      -2.270  11.232  17.065  0.00  0.00    +0.000 C 
ENDBRANCH   4  35
TORSDOF 7
ENDMDL
MODEL 9
REMARK VINA RESULT:      -7.2      3.949     10.746
REMARK  Name = 
REMARK  10 active torsions:
REMARK  status: ('A' for Active; 'I' for Inactive)
REMARK    1  A    between atoms: C_1  and  O_2
REMARK    2  A    between atoms: O_2  and  C_3
REMARK    3  A    between atoms: C_5  and  N_6
REMARK    4  A    between atoms: C_7  and  C_9
REMARK    5  A    between atoms: C_10  and  C_11
REMARK    6  A    between atoms: C_19  and  C_20
REMARK    7  A    between atoms: C_21  and  O_22
REMARK    8  A    between atoms: O_22  and  C_23
REMARK    9  A    between atoms: C_25  and  N_26
REMARK   10  A    between atoms: C_27  and  C_29
REMARK                            x       y       z     vdW  Elec       q    Type
REMARK                         _______ _______ _______ _____ _____    ______ ____
ROOT
ATOM      1  C   UNL     1      -0.433  10.650  20.575  0.00  0.00    +0.000 A 
ATOM      2  C   UNL     1      -1.529  11.530  20.562  0.00  0.00    +0.000 A 
ATOM      3  C   UNL     1      -2.232  11.790  19.383  0.00  0.00    +0.000 A 
ATOM      4  C   UNL     1      -1.859  11.142  18.201  0.00  0.00    +0.000 A 
ATOM      5  C   UNL     1      -0.796  10.233  18.224  0.00  0.00    +0.000 A 
ATOM      6  C   UNL     1      -0.076   9.966  19.399  0.00  0.00    +0.000 A 
ENDROOT
BRANCH   3   7
ATOM      7  N   UNL     1      -3.326  12.688  19.343  0.00  0.00    +0.000 N 
ATOM      8  C   UNL     1      -4.647  12.282  19.277  0.00  0.00    +0.000 C 
ATOM      9  O   UNL     1      -5.012  11.111  19.247  0.00  0.00    +0.000 OA
ATOM     10  H   UNL     1      -3.138  13.605  19.735  0.00  0.00    +0.000 HD
BRANCH   8  11
ATOM     11  C   UNL     1      -5.609  13.359  19.344  0.00  0.00    +0.000 A 
ATOM     12  C   UNL     1      -5.942  14.186  20.463  0.00  0.00    +0.000 A 
ATOM     13  N   UNL     1      -6.972  14.992  20.153  0.00  0.00    +0.000 NA
ATOM     14  O   UNL     1      -7.305  14.720  18.847  0.00  0.00    +0.000 OA
ATOM     15  C   UNL     1      -6.492  13.749  18.357  0.00  0.00    +0.000 A 
ATOM     16  C   UNL     1      -6.773  13.319  16.974  0.00  0.00    +0.000 C 
BRANCH  12  17
ATOM     17  C   UNL     1      -5.309  14.264  21.783  0.00  0.00    +0.000 A 
ATOM     18  C   UNL     1      -5.433  13.218  22.710  0.00  0.00    +0.000 A 
ATOM     19  C   UNL     1      -4.815  13.297  23.960  0.00  0.00    +0.000 A 
ATOM     20  C   UNL     1      -4.056  14.414  24.297  0.00  0.00    +0.000 A 
ATOM     21  C   UNL     1      -3.911  15.454  23.381  0.00  0.00    +0.000 A 
ATOM     22  C   UNL     1      -4.531  15.379  22.130  0.00  0.00    +0.000 A 
ENDBRANCH  12  17
ENDBRANCH   8  11
ENDBRANCH   3   7
BRANCH   6  23
ATOM     23  N   UNL     1       0.981   8.997  19.435  0.00  0.00    +0.000 N 
ATOM     24  C   UNL     1       1.845   8.715  18.380  0.00  0.00    +0.000 C 
ATOM     25  O   UNL     1       1.946   9.392  17.358  0.00  0.00    +0.000 OA
ATOM     26  H   UNL     1       1.050   8.488  20.302  0.00  0.00    +0.000 HD
BRANCH  24  27
ATOM     27  C   UNL     1       2.732   7.515  18.460  0.00  0.00    +0.000 A 
ATOM     28  C   UNL     1       3.705   7.378  17.450  0.00  0.00    +0.000 A 
ATOM     29  C   UNL     1       4.612   6.318  17.457  0.00  0.00    +0.000 A 
ATOM     30  C   UNL     1       4.558   5.378  18.480  0.00  0.00    +0.000 A 
ATOM     31  C   UNL     1       3.596   5.499  19.487  0.00  0.00    +0.000 A 
ATOM     32  C   UNL     1       2.681   6.562  19.481  0.00  0.00    +0.000 A 
ENDBRANCH  24  27
ENDBRANCH   6  23
BRANCH   1  34
ATOM     33  C   UNL     1      -0.365   9.725  22.744  0.00  0.00    +0.000 C 
ATOM     34  O   UNL     1       0.325  10.434  21.705  0.00  0.00    +0.000 OA
ENDBRANCH   1  34
BRANCH   4  35
ATOM     35  O   UNL     1      -2.565  11.506  17.079  0.00  0.00    +0.000 OA
ATOM     36  C   UNL     1      -2.691  10.519  16.058  0.00  0.00    +0.000 C 
ENDBRANCH   4  35
TORSDOF 7
ENDMDL
