MODEL 1
REMARK VINA RESULT:      -9.5      0.000      0.000
REMARK  Name = 
REMARK  4 active torsions:
REMARK  status: ('A' for Active; 'I' for Inactive)
REMARK    1  A    between atoms: C_1  and  N_2
REMARK    2  A    between atoms: C_8  and  N_9
REMARK    3  A    between atoms: C_12  and  C_13
REMARK    4  A    between atoms: C_16  and  C_17
REMARK                            x       y       z     vdW  Elec       q    Type
REMARK                         _______ _______ _______ _____ _____    ______ ____
ROOT
ATOM      1  C   UNL     1       2.122   5.383  20.845  0.00  0.00    +0.000 C 
ATOM      2  N   UNL     1       2.558   6.143  19.694  0.00  0.00    +0.000 N 
ATOM      3  C   UNL     1       3.444   5.731  18.733  0.00  0.00    +0.000 A 
ATOM      4  C   UNL     1       3.672   6.780  17.871  0.00  0.00    +0.000 A 
ATOM      5  C   UNL     1       2.804   7.832  18.246  0.00  0.00    +0.000 A 
ATOM      6  C   UNL     1       2.541   9.099  17.695  0.00  0.00    +0.000 A 
ATOM      7  C   UNL     1       1.610   9.927  18.312  0.00  0.00    +0.000 A 
ATOM      8  C   UNL     1       0.981   9.533  19.497  0.00  0.00    +0.000 A 
ATOM      9  C   UNL     1       1.250   8.288  20.083  0.00  0.00    +0.000 A 
ATOM     10  C   UNL     1       2.144   7.435  19.411  0.00  0.00    +0.000 A 
ATOM     11  C   UNL     1       4.621   6.733  16.734  0.00  0.00    +0.000 C 
ATOM     12  N   UNL     1       5.703   5.757  16.984  0.00  0.00    +0.000 NA
ATOM     13  C   UNL     1       6.378   5.446  15.703  0.00  0.00    +0.000 C 
ATOM     14  C   UNL     1       6.252   3.939  15.520  0.00  0.00    +0.000 C 
ATOM     15  C   UNL     1       4.983   3.620  16.297  0.00  0.00    +0.000 C 
ATOM     16  C   UNL     1       5.243   4.454  17.547  0.00  0.00    +0.000 C 
ATOM     17  C   UNL     1       4.146   4.425  18.644  0.00  0.00    +0.000 C 
ENDROOT
BRANCH   8  18
ATOM     18  N   UNL     1       0.059  10.438  20.097  0.00  0.00    +0.000 N 
ATOM     19  C   UNL     1       0.097  10.643  21.475  0.00  0.00    +0.000 A 
ATOM     20  C   UNL     1      -0.824  11.374  22.100  0.00  0.00    +0.000 A 
ATOM     21  C   UNL     1      -1.935  11.931  21.361  0.00  0.00    +0.000 A 
ATOM     22  C   UNL     1      -1.980  11.785  20.027  0.00  0.00    +0.000 A 
ATOM     23  C   UNL     1      -0.927  11.025  19.295  0.00  0.00    +0.000 A 
ATOM     24  O   UNL     1      -1.043  10.917  18.075  0.00  0.00    +0.000 OA
BRANCH  21  25
ATOM     25  C   UNL     1      -3.056  12.618  22.000  0.00  0.00    +0.000 A 
ATOM     26  C   UNL     1      -3.292  12.478  23.367  0.00  0.00    +0.000 A 
ATOM     27  C   UNL     1      -4.426  13.064  23.933  0.00  0.00    +0.000 A 
ATOM     28  C   UNL     1      -5.302  13.780  23.114  0.00  0.00    +0.000 A 
ATOM     29  N   UNL     1      -5.049  13.968  21.785  0.00  0.00    +0.000 NA
ATOM     30  C   UNL     1      -3.945  13.391  21.263  0.00  0.00    +0.000 A 
BRANCH  28  31
ATOM     31  C   UNL     1      -6.599  14.324  23.694  0.00  0.00    +0.000 C 
ATOM     32  F   UNL     1      -7.544  14.596  22.742  0.00  0.00    +0.000 F 
ATOM     33  F   UNL     1      -7.203  13.468  24.567  0.00  0.00    +0.000 F 
ATOM     34  F   UNL     1      -6.427  15.496  24.372  0.00  0.00    +0.000 F 
ENDBRANCH  28  31
ENDBRANCH  21  25
ENDBRANCH   8  18
TORSDOF 3
ENDMDL
MODEL 2
REMARK VINA RESULT:      -9.5      1.392      1.873
REMARK  Name = 
REMARK  4 active torsions:
REMARK  status: ('A' for Active; 'I' for Inactive)
REMARK    1  A    between atoms: C_1  and  N_2
REMARK    2  A    between atoms: C_8  and  N_9
REMARK    3  A    between atoms: C_12  and  C_13
REMARK    4  A    between atoms: C_16  and  C_17
REMARK                            x       y       z     vdW  Elec       q    Type
REMARK                         _______ _______ _______ _____ _____    ______ ____
ROOT
ATOM      1  C   UNL     1       2.449   5.000  20.818  0.00  0.00    +0.000 C 
ATOM      2  N   UNL     1       2.774   5.836  19.683  0.00  0.00    +0.000 N 
ATOM      3  C   UNL     1       3.611   5.515  18.647  0.00  0.00    +0.000 A 
ATOM      4  C   UNL     1       3.735   6.616  17.829  0.00  0.00    +0.000 A 
ATOM      5  C   UNL     1       2.849   7.606  18.314  0.00  0.00    +0.000 A 
ATOM      6  C   UNL     1       2.495   8.885  17.849  0.00  0.00    +0.000 A 
ATOM      7  C   UNL     1       1.571   9.636  18.567  0.00  0.00    +0.000 A 
ATOM      8  C   UNL     1       1.039   9.153  19.767  0.00  0.00    +0.000 A 
ATOM      9  C   UNL     1       1.401   7.895  20.268  0.00  0.00    +0.000 A 
ATOM     10  C   UNL     1       2.285   7.120  19.496  0.00  0.00    +0.000 A 
ATOM     11  C   UNL     1       4.609   6.671  16.633  0.00  0.00    +0.000 C 
ATOM     12  N   UNL     1       5.746   5.737  16.761  0.00  0.00    +0.000 NA
ATOM     13  C   UNL     1       6.348   5.523  15.425  0.00  0.00    +0.000 C 
ATOM     14  C   UNL     1       6.277   4.022  15.170  0.00  0.00    +0.000 C 
ATOM     15  C   UNL     1       5.077   3.605  16.009  0.00  0.00    +0.000 C 
ATOM     16  C   UNL     1       5.382   4.386  17.282  0.00  0.00    +0.000 C 
ATOM     17  C   UNL     1       4.363   4.251  18.444  0.00  0.00    +0.000 C 
ENDROOT
BRANCH   8  18
ATOM     18  N   UNL     1       0.120   9.982  20.472  0.00  0.00    +0.000 N 
ATOM     19  C   UNL     1      -0.867  10.668  19.766  0.00  0.00    +0.000 A 
ATOM     20  C   UNL     1      -1.663  11.556  20.358  0.00  0.00    +0.000 A 
ATOM     21  C   UNL     1      -1.482  11.876  21.756  0.00  0.00    +0.000 A 
ATOM     22  C   UNL     1      -0.567  11.205  22.474  0.00  0.00    +0.000 A 
ATOM     23  C   UNL     1       0.294  10.162  21.850  0.00  0.00    +0.000 A 
ATOM     24  O   UNL     1       1.123   9.600  22.565  0.00  0.00    +0.000 OA
BRANCH  21  25
ATOM     25  C   UNL     1      -2.219  12.941  22.435  0.00  0.00    +0.000 A 
ATOM     26  C   UNL     1      -2.953  12.675  23.591  0.00  0.00    +0.000 A 
ATOM     27  C   UNL     1      -3.727  13.688  24.162  0.00  0.00    +0.000 A 
ATOM     28  C   UNL     1      -3.748  14.948  23.561  0.00  0.00    +0.000 A 
ATOM     29  N   UNL     1      -2.989  15.232  22.462  0.00  0.00    +0.000 NA
ATOM     30  C   UNL     1      -2.249  14.235  21.930  0.00  0.00    +0.000 A 
BRANCH  28  31
ATOM     31  C   UNL     1      -4.676  16.025  24.104  0.00  0.00    +0.000 C 
ATOM     32  F   UNL     1      -4.346  16.437  25.366  0.00  0.00    +0.000 F 
ATOM     33  F   UNL     1      -4.691  17.160  23.347  0.00  0.00    +0.000 F 
ATOM     34  F   UNL     1      -5.974  15.611  24.191  0.00  0.00    +0.000 F 
ENDBRANCH  28  31
ENDBRANCH  21  25
ENDBRANCH   8  18
TORSDOF 3
ENDMDL
MODEL 3
REMARK VINA RESULT:      -9.1      0.639      1.156
REMARK  Name = 
REMARK  4 active torsions:
REMARK  status: ('A' for Active; 'I' for Inactive)
REMARK    1  A    between atoms: C_1  and  N_2
REMARK    2  A    between atoms: C_8  and  N_9
REMARK    3  A    between atoms: C_12  and  C_13
REMARK    4  A    between atoms: C_16  and  C_17
REMARK                            x       y       z     vdW  Elec       q    Type
REMARK                         _______ _______ _______ _____ _____    ______ ____
ROOT
ATOM      1  C   UNL     1       1.936   5.492  20.879  0.00  0.00    +0.000 C 
ATOM      2  N   UNL     1       2.419   6.236  19.736  0.00  0.00    +0.000 N 
ATOM      3  C   UNL     1       3.331   5.805  18.810  0.00  0.00    +0.000 A 
ATOM      4  C   UNL     1       3.601   6.842  17.945  0.00  0.00    +0.000 A 
ATOM      5  C   UNL     1       2.733   7.908  18.281  0.00  0.00    +0.000 A 
ATOM      6  C   UNL     1       2.504   9.172  17.709  0.00  0.00    +0.000 A 
ATOM      7  C   UNL     1       1.562  10.017  18.286  0.00  0.00    +0.000 A 
ATOM      8  C   UNL     1       0.888   9.642  19.453  0.00  0.00    +0.000 A 
ATOM      9  C   UNL     1       1.124   8.400  20.060  0.00  0.00    +0.000 A 
ATOM     10  C   UNL     1       2.030   7.530  19.426  0.00  0.00    +0.000 A 
ATOM     11  C   UNL     1       4.587   6.774  16.842  0.00  0.00    +0.000 C 
ATOM     12  N   UNL     1       5.648   5.788  17.137  0.00  0.00    +0.000 NA
ATOM     13  C   UNL     1       6.363   5.457  15.883  0.00  0.00    +0.000 C 
ATOM     14  C   UNL     1       6.225   3.949  15.710  0.00  0.00    +0.000 C 
ATOM     15  C   UNL     1       4.927   3.652  16.446  0.00  0.00    +0.000 C 
ATOM     16  C   UNL     1       5.154   4.496  17.697  0.00  0.00    +0.000 C 
ATOM     17  C   UNL     1       4.021   4.491  18.756  0.00  0.00    +0.000 C 
ENDROOT
BRANCH   8  18
ATOM     18  N   UNL     1      -0.042  10.563  20.013  0.00  0.00    +0.000 N 
ATOM     19  C   UNL     1       0.013  10.851  21.376  0.00  0.00    +0.000 A 
ATOM     20  C   UNL     1      -0.913  11.600  21.972  0.00  0.00    +0.000 A 
ATOM     21  C   UNL     1      -2.046  12.090  21.219  0.00  0.00    +0.000 A 
ATOM     22  C   UNL     1      -2.109  11.863  19.897  0.00  0.00    +0.000 A 
ATOM     23  C   UNL     1      -1.053  11.082  19.194  0.00  0.00    +0.000 A 
ATOM     24  O   UNL     1      -1.184  10.899  17.985  0.00  0.00    +0.000 OA
BRANCH  21  25
ATOM     25  C   UNL     1      -3.172  12.792  21.834  0.00  0.00    +0.000 A 
ATOM     26  C   UNL     1      -4.161  13.380  21.047  0.00  0.00    +0.000 A 
ATOM     27  C   UNL     1      -5.171  14.128  21.656  0.00  0.00    +0.000 A 
ATOM     28  C   UNL     1      -5.168  14.270  23.045  0.00  0.00    +0.000 A 
ATOM     29  N   UNL     1      -4.234  13.651  23.827  0.00  0.00    +0.000 NA
ATOM     30  C   UNL     1      -3.270  12.933  23.213  0.00  0.00    +0.000 A 
BRANCH  28  31
ATOM     31  C   UNL     1      -6.192  15.177  23.712  0.00  0.00    +0.000 C 
ATOM     32  F   UNL     1      -5.645  16.019  24.641  0.00  0.00    +0.000 F 
ATOM     33  F   UNL     1      -6.851  15.987  22.834  0.00  0.00    +0.000 F 
ATOM     34  F   UNL     1      -7.157  14.483  24.383  0.00  0.00    +0.000 F 
ENDBRANCH  28  31
ENDBRANCH  21  25
ENDBRANCH   8  18
TORSDOF 3
ENDMDL
MODEL 4
REMARK VINA RESULT:      -9.0      5.925     11.883
REMARK  Name = 
REMARK  4 active torsions:
REMARK  status: ('A' for Active; 'I' for Inactive)
REMARK    1  A    between atoms: C_1  and  N_2
REMARK    2  A    between atoms: C_8  and  N_9
REMARK    3  A    between atoms: C_12  and  C_13
REMARK    4  A    between atoms: C_16  and  C_17
REMARK                            x       y       z     vdW  Elec       q    Type
REMARK                         _______ _______ _______ _____ _____    ______ ____
ROOT
ATOM      1  C   UNL     1      -4.072  11.458  17.816  0.00  0.00    +0.000 C 
ATOM      2  N   UNL     1      -3.532  11.930  19.072  0.00  0.00    +0.000 N 
ATOM      3  C   UNL     1      -4.155  12.759  19.967  0.00  0.00    +0.000 A 
ATOM      4  C   UNL     1      -3.270  13.054  20.980  0.00  0.00    +0.000 A 
ATOM      5  C   UNL     1      -2.104  12.282  20.760  0.00  0.00    +0.000 A 
ATOM      6  C   UNL     1      -0.917  12.112  21.494  0.00  0.00    +0.000 A 
ATOM      7  C   UNL     1       0.069  11.264  21.002  0.00  0.00    +0.000 A 
ATOM      8  C   UNL     1      -0.090  10.629  19.765  0.00  0.00    +0.000 A 
ATOM      9  C   UNL     1      -1.250  10.809  19.000  0.00  0.00    +0.000 A 
ATOM     10  C   UNL     1      -2.266  11.617  19.544  0.00  0.00    +0.000 A 
ATOM     11  C   UNL     1      -3.565  13.973  22.105  0.00  0.00    +0.000 C 
ATOM     12  N   UNL     1      -4.579  14.976  21.719  0.00  0.00    +0.000 NA
ATOM     13  C   UNL     1      -5.133  15.597  22.944  0.00  0.00    +0.000 C 
ATOM     14  C   UNL     1      -6.635  15.346  22.897  0.00  0.00    +0.000 C 
ATOM     15  C   UNL     1      -6.728  14.071  22.070  0.00  0.00    +0.000 C 
ATOM     16  C   UNL     1      -5.741  14.424  20.962  0.00  0.00    +0.000 C 
ATOM     17  C   UNL     1      -5.513  13.352  19.864  0.00  0.00    +0.000 C 
ENDROOT
BRANCH   8  18
ATOM     18  N   UNL     1       0.968   9.797  19.301  0.00  0.00    +0.000 N 
ATOM     19  C   UNL     1       1.645  10.136  18.131  0.00  0.00    +0.000 A 
ATOM     20  C   UNL     1       2.549   9.325  17.584  0.00  0.00    +0.000 A 
ATOM     21  C   UNL     1       2.811   8.028  18.169  0.00  0.00    +0.000 A 
ATOM     22  C   UNL     1       2.205   7.688  19.318  0.00  0.00    +0.000 A 
ATOM     23  C   UNL     1       1.236   8.604  19.984  0.00  0.00    +0.000 A 
ATOM     24  O   UNL     1       0.706   8.218  21.025  0.00  0.00    +0.000 OA
BRANCH  21  25
ATOM     25  C   UNL     1       3.678   7.030  17.545  0.00  0.00    +0.000 A 
ATOM     26  C   UNL     1       3.776   5.742  18.071  0.00  0.00    +0.000 A 
ATOM     27  C   UNL     1       4.685   4.840  17.516  0.00  0.00    +0.000 A 
ATOM     28  C   UNL     1       5.479   5.248  16.442  0.00  0.00    +0.000 A 
ATOM     29  N   UNL     1       5.350   6.489  15.886  0.00  0.00    +0.000 NA
ATOM     30  C   UNL     1       4.463   7.342  16.441  0.00  0.00    +0.000 A 
BRANCH  28  31
ATOM     31  C   UNL     1       6.555   4.317  15.904  0.00  0.00    +0.000 C 
ATOM     32  F   UNL     1       6.078   3.080  15.564  0.00  0.00    +0.000 F 
ATOM     33  F   UNL     1       7.167   4.788  14.779  0.00  0.00    +0.000 F 
ATOM     34  F   UNL     1       7.551   4.080  16.805  0.00  0.00    +0.000 F 
ENDBRANCH  28  31
ENDBRANCH  21  25
ENDBRANCH   8  18
TORSDOF 3
ENDMDL
MODEL 5
REMARK VINA RESULT:      -9.0      5.803     11.866
REMARK  Name = 
REMARK  4 active torsions:
REMARK  status: ('A' for Active; 'I' for Inactive)
REMARK    1  A    between atoms: C_1  and  N_2
REMARK    2  A    between atoms: C_8  and  N_9
REMARK    3  A    between atoms: C_12  and  C_13
REMARK    4  A    between atoms: C_16  and  C_17
REMARK                            x       y       z     vdW  Elec       q    Type
REMARK                         _______ _______ _______ _____ _____    ______ ____
ROOT
ATOM      1  C   UNL     1      -3.956  11.826  18.140  0.00  0.00    +0.000 C 
ATOM      2  N   UNL     1      -3.467  12.079  19.477  0.00  0.00    +0.000 N 
ATOM      3  C   UNL     1      -4.100  12.804  20.452  0.00  0.00    +0.000 A 
ATOM      4  C   UNL     1      -3.261  12.898  21.541  0.00  0.00    +0.000 A 
ATOM      5  C   UNL     1      -2.124  12.102  21.268  0.00  0.00    +0.000 A 
ATOM      6  C   UNL     1      -0.991  11.760  22.027  0.00  0.00    +0.000 A 
ATOM      7  C   UNL     1      -0.021  10.938  21.465  0.00  0.00    +0.000 A 
ATOM      8  C   UNL     1      -0.139  10.498  20.142  0.00  0.00    +0.000 A 
ATOM      9  C   UNL     1      -1.243  10.853  19.355  0.00  0.00    +0.000 A 
ATOM     10  C   UNL     1      -2.248  11.630  19.960  0.00  0.00    +0.000 A 
ATOM     11  C   UNL     1      -3.575  13.660  22.772  0.00  0.00    +0.000 C 
ATOM     12  N   UNL     1      -4.515  14.765  22.489  0.00  0.00    +0.000 NA
ATOM     13  C   UNL     1      -5.108  15.233  23.764  0.00  0.00    +0.000 C 
ATOM     14  C   UNL     1      -6.616  15.076  23.605  0.00  0.00    +0.000 C 
ATOM     15  C   UNL     1      -6.722  13.942  22.595  0.00  0.00    +0.000 C 
ATOM     16  C   UNL     1      -5.657  14.395  21.602  0.00  0.00    +0.000 C 
ATOM     17  C   UNL     1      -5.419  13.482  20.371  0.00  0.00    +0.000 C 
ENDROOT
BRANCH   8  18
ATOM     18  N   UNL     1       0.903   9.683  19.613  0.00  0.00    +0.000 N 
ATOM     19  C   UNL     1       1.439   9.980  18.362  0.00  0.00    +0.000 A 
ATOM     20  C   UNL     1       2.317   9.176  17.766  0.00  0.00    +0.000 A 
ATOM     21  C   UNL     1       2.697   7.927  18.389  0.00  0.00    +0.000 A 
ATOM     22  C   UNL     1       2.229   7.630  19.612  0.00  0.00    +0.000 A 
ATOM     23  C   UNL     1       1.294   8.543  20.327  0.00  0.00    +0.000 A 
ATOM     24  O   UNL     1       0.893   8.198  21.437  0.00  0.00    +0.000 OA
BRANCH  21  25
ATOM     25  C   UNL     1       3.539   6.930  17.731  0.00  0.00    +0.000 A 
ATOM     26  C   UNL     1       4.679   7.313  17.024  0.00  0.00    +0.000 A 
ATOM     27  C   UNL     1       5.410   6.352  16.323  0.00  0.00    +0.000 A 
ATOM     28  C   UNL     1       4.983   5.023  16.346  0.00  0.00    +0.000 A 
ATOM     29  N   UNL     1       3.900   4.630  17.081  0.00  0.00    +0.000 NA
ATOM     30  C   UNL     1       3.211   5.579  17.750  0.00  0.00    +0.000 A 
BRANCH  28  31
ATOM     31  C   UNL     1       5.700   3.987  15.494  0.00  0.00    +0.000 C 
ATOM     32  F   UNL     1       7.048   4.202  15.403  0.00  0.00    +0.000 F 
ATOM     33  F   UNL     1       5.570   2.713  15.965  0.00  0.00    +0.000 F 
ATOM     34  F   UNL     1       5.254   3.960  14.205  0.00  0.00    +0.000 F 
ENDBRANCH  28  31
ENDBRANCH  21  25
ENDBRANCH   8  18
TORSDOF 3
ENDMDL
MODEL 6
REMARK VINA RESULT:      -8.8      5.991     11.863
REMARK  Name = 
REMARK  4 active torsions:
REMARK  status: ('A' for Active; 'I' for Inactive)
REMARK    1  A    between atoms: C_1  and  N_2
REMARK    2  A    between atoms: C_8  and  N_9
REMARK    3  A    between atoms: C_12  and  C_13
REMARK    4  A    between atoms: C_16  and  C_17
REMARK                            x       y       z     vdW  Elec       q    Type
REMARK                         _______ _______ _______ _____ _____    ______ ____
ROOT
ATOM      1  C   UNL     1      -0.462  14.633  19.356  0.00  0.00    +0.000 C 
ATOM      2  N   UNL     1      -0.841  13.925  20.559  0.00  0.00    +0.000 N 
ATOM      3  C   UNL     1      -1.546  14.435  21.617  0.00  0.00    +0.000 A 
ATOM      4  C   UNL     1      -1.608  13.476  22.604  0.00  0.00    +0.000 A 
ATOM      5  C   UNL     1      -1.025  12.296  22.084  0.00  0.00    +0.000 A 
ATOM      6  C   UNL     1      -0.877  10.995  22.597  0.00  0.00    +0.000 A 
ATOM      7  C   UNL     1      -0.240  10.030  21.825  0.00  0.00    +0.000 A 
ATOM      8  C   UNL     1       0.298  10.358  20.576  0.00  0.00    +0.000 A 
ATOM      9  C   UNL     1       0.192  11.656  20.058  0.00  0.00    +0.000 A 
ATOM     10  C   UNL     1      -0.514  12.603  20.821  0.00  0.00    +0.000 A 
ATOM     11  C   UNL     1      -2.240  13.682  23.928  0.00  0.00    +0.000 C 
ATOM     12  N   UNL     1      -2.221  15.109  24.310  0.00  0.00    +0.000 NA
ATOM     13  C   UNL     1      -3.192  15.328  25.408  0.00  0.00    +0.000 C 
ATOM     14  C   UNL     1      -4.168  16.381  24.897  0.00  0.00    +0.000 C 
ATOM     15  C   UNL     1      -4.112  16.177  23.390  0.00  0.00    +0.000 C 
ATOM     16  C   UNL     1      -2.602  16.049  23.215  0.00  0.00    +0.000 C 
ATOM     17  C   UNL     1      -2.085  15.810  21.772  0.00  0.00    +0.000 C 
ENDROOT
BRANCH   8  18
ATOM     18  N   UNL     1       0.965   9.332  19.847  0.00  0.00    +0.000 N 
ATOM     19  C   UNL     1       1.548   8.269  20.534  0.00  0.00    +0.000 A 
ATOM     20  C   UNL     1       2.294   7.358  19.912  0.00  0.00    +0.000 A 
ATOM     21  C   UNL     1       2.569   7.486  18.498  0.00  0.00    +0.000 A 
ATOM     22  C   UNL     1       1.990   8.476  17.800  0.00  0.00    +0.000 A 
ATOM     23  C   UNL     1       1.100   9.471  18.460  0.00  0.00    +0.000 A 
ATOM     24  O   UNL     1       0.618  10.362  17.760  0.00  0.00    +0.000 OA
BRANCH  21  25
ATOM     25  C   UNL     1       3.494   6.610  17.781  0.00  0.00    +0.000 A 
ATOM     26  C   UNL     1       4.448   7.138  16.913  0.00  0.00    +0.000 A 
ATOM     27  C   UNL     1       5.253   6.275  16.166  0.00  0.00    +0.000 A 
ATOM     28  C   UNL     1       5.084   4.896  16.308  0.00  0.00    +0.000 A 
ATOM     29  N   UNL     1       4.191   4.370  17.197  0.00  0.00    +0.000 NA
ATOM     30  C   UNL     1       3.425   5.227  17.907  0.00  0.00    +0.000 A 
BRANCH  28  31
ATOM     31  C   UNL     1       5.871   3.946  15.417  0.00  0.00    +0.000 C 
ATOM     32  F   UNL     1       5.486   3.992  14.105  0.00  0.00    +0.000 F 
ATOM     33  F   UNL     1       7.212   4.197  15.409  0.00  0.00    +0.000 F 
ATOM     34  F   UNL     1       5.733   2.639  15.785  0.00  0.00    +0.000 F 
ENDBRANCH  28  31
ENDBRANCH  21  25
ENDBRANCH   8  18
TORSDOF 3
ENDMDL
MODEL 7
REMARK VINA RESULT:      -8.7      6.064     11.845
REMARK  Name = 
REMARK  4 active torsions:
REMARK  status: ('A' for Active; 'I' for Inactive)
REMARK    1  A    between atoms: C_1  and  N_2
REMARK    2  A    between atoms: C_8  and  N_9
REMARK    3  A    between atoms: C_12  and  C_13
REMARK    4  A    between atoms: C_16  and  C_17
REMARK                            x       y       z     vdW  Elec       q    Type
REMARK                         _______ _______ _______ _____ _____    ______ ____
ROOT
ATOM      1  C   UNL     1       0.346  14.896  19.819  0.00  0.00    +0.000 C 
ATOM      2  N   UNL     1      -0.264  14.148  20.897  0.00  0.00    +0.000 N 
ATOM      3  C   UNL     1      -1.016  14.661  21.921  0.00  0.00    +0.000 A 
ATOM      4  C   UNL     1      -1.322  13.639  22.792  0.00  0.00    +0.000 A 
ATOM      5  C   UNL     1      -0.843  12.438  22.220  0.00  0.00    +0.000 A 
ATOM      6  C   UNL     1      -0.932  11.089  22.610  0.00  0.00    +0.000 A 
ATOM      7  C   UNL     1      -0.342  10.113  21.815  0.00  0.00    +0.000 A 
ATOM      8  C   UNL     1       0.380  10.467  20.670  0.00  0.00    +0.000 A 
ATOM      9  C   UNL     1       0.510  11.806  20.278  0.00  0.00    +0.000 A 
ATOM     10  C   UNL     1      -0.150  12.776  21.056  0.00  0.00    +0.000 A 
ATOM     11  C   UNL     1      -2.074  13.819  24.056  0.00  0.00    +0.000 C 
ATOM     12  N   UNL     1      -1.911  15.190  24.582  0.00  0.00    +0.000 NA
ATOM     13  C   UNL     1      -2.968  15.451  25.588  0.00  0.00    +0.000 C 
ATOM     14  C   UNL     1      -3.728  16.673  25.087  0.00  0.00    +0.000 C 
ATOM     15  C   UNL     1      -3.520  16.593  23.581  0.00  0.00    +0.000 C 
ATOM     16  C   UNL     1      -2.031  16.266  23.555  0.00  0.00    +0.000 C 
ATOM     17  C   UNL     1      -1.383  16.080  22.157  0.00  0.00    +0.000 C 
ENDROOT
BRANCH   8  18
ATOM     18  N   UNL     1       0.986   9.423  19.914  0.00  0.00    +0.000 N 
ATOM     19  C   UNL     1       1.544   8.331  20.576  0.00  0.00    +0.000 A 
ATOM     20  C   UNL     1       2.238   7.398  19.927  0.00  0.00    +0.000 A 
ATOM     21  C   UNL     1       2.481   7.528  18.507  0.00  0.00    +0.000 A 
ATOM     22  C   UNL     1       1.924   8.547  17.833  0.00  0.00    +0.000 A 
ATOM     23  C   UNL     1       1.091   9.571  18.525  0.00  0.00    +0.000 A 
ATOM     24  O   UNL     1       0.628  10.486  17.847  0.00  0.00    +0.000 OA
BRANCH  21  25
ATOM     25  C   UNL     1       3.352   6.624  17.759  0.00  0.00    +0.000 A 
ATOM     26  C   UNL     1       3.227   5.241  17.891  0.00  0.00    +0.000 A 
ATOM     27  C   UNL     1       4.136   4.403  17.242  0.00  0.00    +0.000 A 
ATOM     28  C   UNL     1       5.152   4.969  16.471  0.00  0.00    +0.000 A 
ATOM     29  N   UNL     1       5.248   6.320  16.291  0.00  0.00    +0.000 NA
ATOM     30  C   UNL     1       4.357   7.108  16.930  0.00  0.00    +0.000 A 
BRANCH  28  31
ATOM     31  C   UNL     1       6.217   4.075  15.854  0.00  0.00    +0.000 C 
ATOM     32  F   UNL     1       5.878   2.749  15.859  0.00  0.00    +0.000 F 
ATOM     33  F   UNL     1       6.487   4.373  14.551  0.00  0.00    +0.000 F 
ATOM     34  F   UNL     1       7.411   4.140  16.512  0.00  0.00    +0.000 F 
ENDBRANCH  28  31
ENDBRANCH  21  25
ENDBRANCH   8  18
TORSDOF 3
ENDMDL
MODEL 8
REMARK VINA RESULT:      -8.7      5.609     11.847
REMARK  Name = 
REMARK  4 active torsions:
REMARK  status: ('A' for Active; 'I' for Inactive)
REMARK    1  A    between atoms: C_1  and  N_2
REMARK    2  A    between atoms: C_8  and  N_9
REMARK    3  A    between atoms: C_12  and  C_13
REMARK    4  A    between atoms: C_16  and  C_17
REMARK                            x       y       z     vdW  Elec       q    Type
REMARK                         _______ _______ _______ _____ _____    ______ ____
ROOT
ATOM      1  C   UNL     1      -4.673  12.072  19.213  0.00  0.00    +0.000 C 
ATOM      2  N   UNL     1      -3.874  12.721  20.229  0.00  0.00    +0.000 N 
ATOM      3  C   UNL     1      -4.281  13.724  21.069  0.00  0.00    +0.000 A 
ATOM      4  C   UNL     1      -3.198  14.139  21.812  0.00  0.00    +0.000 A 
ATOM      5  C   UNL     1      -2.119  13.278  21.502  0.00  0.00    +0.000 A 
ATOM      6  C   UNL     1      -0.807  13.171  21.999  0.00  0.00    +0.000 A 
ATOM      7  C   UNL     1       0.038  12.199  21.476  0.00  0.00    +0.000 A 
ATOM      8  C   UNL     1      -0.387  11.372  20.432  0.00  0.00    +0.000 A 
ATOM      9  C   UNL     1      -1.678  11.481  19.898  0.00  0.00    +0.000 A 
ATOM     10  C   UNL     1      -2.544  12.424  20.483  0.00  0.00    +0.000 A 
ATOM     11  C   UNL     1      -3.235  15.251  22.791  0.00  0.00    +0.000 C 
ATOM     12  N   UNL     1      -4.289  16.228  22.446  0.00  0.00    +0.000 NA
ATOM     13  C   UNL     1      -4.564  17.079  23.627  0.00  0.00    +0.000 C 
ATOM     14  C   UNL     1      -6.047  16.905  23.931  0.00  0.00    +0.000 C 
ATOM     15  C   UNL     1      -6.333  15.515  23.381  0.00  0.00    +0.000 C 
ATOM     16  C   UNL     1      -5.593  15.619  22.051  0.00  0.00    +0.000 C 
ATOM     17  C   UNL     1      -5.620  14.364  21.140  0.00  0.00    +0.000 C 
ENDROOT
BRANCH   8  18
ATOM     18  N   UNL     1       0.536  10.416  19.919  0.00  0.00    +0.000 N 
ATOM     19  C   UNL     1       1.056  10.583  18.637  0.00  0.00    +0.000 A 
ATOM     20  C   UNL     1       1.816   9.652  18.062  0.00  0.00    +0.000 A 
ATOM     21  C   UNL     1       2.074   8.403  18.742  0.00  0.00    +0.000 A 
ATOM     22  C   UNL     1       1.621   8.226  19.993  0.00  0.00    +0.000 A 
ATOM     23  C   UNL     1       0.821   9.278  20.683  0.00  0.00    +0.000 A 
ATOM     24  O   UNL     1       0.424   9.040  21.823  0.00  0.00    +0.000 OA
BRANCH  21  25
ATOM     25  C   UNL     1       2.774   7.282  18.116  0.00  0.00    +0.000 A 
ATOM     26  C   UNL     1       2.389   5.967  18.376  0.00  0.00    +0.000 A 
ATOM     27  C   UNL     1       3.137   4.914  17.844  0.00  0.00    +0.000 A 
ATOM     28  C   UNL     1       4.256   5.202  17.061  0.00  0.00    +0.000 A 
ATOM     29  N   UNL     1       4.607   6.487  16.757  0.00  0.00    +0.000 NA
ATOM     30  C   UNL     1       3.867   7.487  17.283  0.00  0.00    +0.000 A 
BRANCH  28  31
ATOM     31  C   UNL     1       5.146   4.069  16.573  0.00  0.00    +0.000 C 
ATOM     32  F   UNL     1       6.391   4.077  17.139  0.00  0.00    +0.000 F 
ATOM     33  F   UNL     1       4.638   2.830  16.836  0.00  0.00    +0.000 F 
ATOM     34  F   UNL     1       5.365   4.109  15.226  0.00  0.00    +0.000 F 
ENDBRANCH  28  31
ENDBRANCH  21  25
ENDBRANCH   8  18
TORSDOF 3
ENDMDL
MODEL 9
REMARK VINA RESULT:      -8.5      5.851     11.862
REMARK  Name = 
REMARK  4 active torsions:
REMARK  status: ('A' for Active; 'I' for Inactive)
REMARK    1  A    between atoms: C_1  and  N_2
REMARK    2  A    between atoms: C_8  and  N_9
REMARK    3  A    between atoms: C_12  and  C_13
REMARK    4  A    between atoms: C_16  and  C_17
REMARK                            x       y       z     vdW  Elec       q    Type
REMARK                         _______ _______ _______ _____ _____    ______ ____
ROOT
ATOM      1  C   UNL     1      -3.882  12.251  18.798  0.00  0.00    +0.000 C 
ATOM      2  N   UNL     1      -3.175  12.441  20.045  0.00  0.00    +0.000 N 
ATOM      3  C   UNL     1      -3.533  13.282  21.065  0.00  0.00    +0.000 A 
ATOM      4  C   UNL     1      -2.546  13.249  22.025  0.00  0.00    +0.000 A 
ATOM      5  C   UNL     1      -1.610  12.263  21.636  0.00  0.00    +0.000 A 
ATOM      6  C   UNL     1      -0.456  11.743  22.249  0.00  0.00    +0.000 A 
ATOM      7  C   UNL     1       0.273  10.755  21.596  0.00  0.00    +0.000 A 
ATOM      8  C   UNL     1      -0.102  10.319  20.321  0.00  0.00    +0.000 A 
ATOM      9  C   UNL     1      -1.230  10.845  19.676  0.00  0.00    +0.000 A 
ATOM     10  C   UNL     1      -1.994  11.795  20.378  0.00  0.00    +0.000 A 
ATOM     11  C   UNL     1      -2.551  14.076  23.255  0.00  0.00    +0.000 C 
ATOM     12  N   UNL     1      -3.321  15.322  23.055  0.00  0.00    +0.000 NA
ATOM     13  C   UNL     1      -3.642  15.909  24.376  0.00  0.00    +0.000 C 
ATOM     14  C   UNL     1      -5.161  16.014  24.429  0.00  0.00    +0.000 C 
ATOM     15  C   UNL     1      -5.599  14.896  23.492  0.00  0.00    +0.000 C 
ATOM     16  C   UNL     1      -4.622  15.139  22.346  0.00  0.00    +0.000 C 
ATOM     17  C   UNL     1      -4.717  14.176  21.134  0.00  0.00    +0.000 C 
ENDROOT
BRANCH   8  18
ATOM     18  N   UNL     1       0.702   9.326  19.692  0.00  0.00    +0.000 N 
ATOM     19  C   UNL     1       1.280   8.320  20.464  0.00  0.00    +0.000 A 
ATOM     20  C   UNL     1       2.144   7.449  19.947  0.00  0.00    +0.000 A 
ATOM     21  C   UNL     1       2.553   7.564  18.565  0.00  0.00    +0.000 A 
ATOM     22  C   UNL     1       1.985   8.496  17.784  0.00  0.00    +0.000 A 
ATOM     23  C   UNL     1       0.969   9.444  18.322  0.00  0.00    +0.000 A 
ATOM     24  O   UNL     1       0.504  10.284  17.553  0.00  0.00    +0.000 OA
BRANCH  21  25
ATOM     25  C   UNL     1       3.603   6.737  17.970  0.00  0.00    +0.000 A 
ATOM     26  C   UNL     1       4.760   7.318  17.453  0.00  0.00    +0.000 A 
ATOM     27  C   UNL     1       5.700   6.516  16.803  0.00  0.00    +0.000 A 
ATOM     28  C   UNL     1       5.460   5.146  16.685  0.00  0.00    +0.000 A 
ATOM     29  N   UNL     1       4.356   4.561  17.237  0.00  0.00    +0.000 NA
ATOM     30  C   UNL     1       3.463   5.359  17.861  0.00  0.00    +0.000 A 
BRANCH  28  31
ATOM     31  C   UNL     1       6.417   4.280  15.878  0.00  0.00    +0.000 C 
ATOM     32  F   UNL     1       7.609   4.057  16.512  0.00  0.00    +0.000 F 
ATOM     33  F   UNL     1       5.921   3.041  15.597  0.00  0.00    +0.000 F 
ATOM     34  F   UNL     1       6.749   4.836  14.677  0.00  0.00    +0.000 F 
ENDBRANCH  28  31
ENDBRANCH  21  25
ENDBRANCH   8  18
TORSDOF 3
ENDMDL
