MODEL 1
REMARK VINA RESULT:      -6.3      0.000      0.000
REMARK  Name = 
REMARK  8 active torsions:
REMARK  status: ('A' for Active; 'I' for Inactive)
REMARK    1  A    between atoms: C_2  and  O_3
REMARK    2  A    between atoms: C_2  and  C_4
REMARK    3  A    between atoms: C_4  and  C_5
REMARK    4  A    between atoms: C_9  and  O_10
REMARK    5  A    between atoms: O_10  and  C_11
REMARK    6  A    between atoms: C_11  and  C_12
REMARK    7  A    between atoms: C_12  and  C_13
REMARK    8  A    between atoms: C_13  and  C_14
REMARK                            x       y       z     vdW  Elec       q    Type
REMARK                         _______ _______ _______ _____ _____    ______ ____
ROOT
ATOM      1  C   UNL     1       2.334   6.921  18.569  0.00  0.00    +0.000 A 
ATOM      2  C   UNL     1       2.287   6.907  19.968  0.00  0.00    +0.000 A 
ATOM      3  C   UNL     1       1.860   5.764  20.642  0.00  0.00    +0.000 A 
ATOM      4  C   UNL     1       1.476   4.629  19.924  0.00  0.00    +0.000 A 
ATOM      5  C   UNL     1       1.510   4.629  18.529  0.00  0.00    +0.000 A 
ATOM      6  C   UNL     1       1.933   5.777  17.858  0.00  0.00    +0.000 A 
ENDROOT
BRANCH   1   7
ATOM      7  C   UNL     1       2.787   8.155  17.821  0.00  0.00    +0.000 C 
BRANCH   7   9
ATOM      8  O   UNL     1       0.575   9.100  17.934  0.00  0.00    +0.000 OA
ATOM      9  C   UNL     1       1.770   9.272  17.729  0.00  0.00    +0.000 C 
BRANCH   9  10
ATOM     10  O   UNL     1       2.271  10.500  17.469  0.00  0.00    +0.000 OA
ATOM     11  H   UNL     1       1.598  11.168  17.234  0.00  0.00    +0.000 HD
ENDBRANCH   9  10
ENDBRANCH   7   9
ENDBRANCH   1   7
BRANCH   5  12
ATOM     12  O   UNL     1       1.108   3.461  17.938  0.00  0.00    +0.000 OA
BRANCH  12  13
ATOM     13  C   UNL     1       1.599   2.252  18.520  0.00  0.00    +0.000 C 
BRANCH  13  14
ATOM     14  C   UNL     1       2.930   1.899  17.867  0.00  0.00    +0.000 C 
BRANCH  14  15
ATOM     15  C   UNL     1       4.098   2.366  18.735  0.00  0.00    +0.000 C 
BRANCH  15  16
ATOM     16  C   UNL     1       4.717   3.636  18.212  0.00  0.00    +0.000 A 
ATOM     17  C   UNL     1       4.737   3.908  16.838  0.00  0.00    +0.000 A 
ATOM     18  C   UNL     1       5.327   5.079  16.359  0.00  0.00    +0.000 A 
ATOM     19  C   UNL     1       5.906   5.984  17.247  0.00  0.00    +0.000 A 
ATOM     20  C   UNL     1       5.894   5.721  18.616  0.00  0.00    +0.000 A 
ATOM     21  C   UNL     1       5.304   4.551  19.097  0.00  0.00    +0.000 A 
ENDBRANCH  15  16
ENDBRANCH  14  15
ENDBRANCH  13  14
ENDBRANCH  12  13
ENDBRANCH   5  12
TORSDOF 8
ENDMDL
MODEL 2
REMARK VINA RESULT:      -6.1      2.687      4.584
REMARK  Name = 
REMARK  8 active torsions:
REMARK  status: ('A' for Active; 'I' for Inactive)
REMARK    1  A    between atoms: C_2  and  O_3
REMARK    2  A    between atoms: C_2  and  C_4
REMARK    3  A    between atoms: C_4  and  C_5
REMARK    4  A    between atoms: C_9  and  O_10
REMARK    5  A    between atoms: O_10  and  C_11
REMARK    6  A    between atoms: C_11  and  C_12
REMARK    7  A    between atoms: C_12  and  C_13
REMARK    8  A    between atoms: C_13  and  C_14
REMARK                            x       y       z     vdW  Elec       q    Type
REMARK                         _______ _______ _______ _____ _____    ______ ____
ROOT
ATOM      1  C   UNL     1       5.436   5.638  17.675  0.00  0.00    +0.000 A 
ATOM      2  C   UNL     1       5.005   5.031  16.489  0.00  0.00    +0.000 A 
ATOM      3  C   UNL     1       4.506   3.729  16.510  0.00  0.00    +0.000 A 
ATOM      4  C   UNL     1       4.436   3.025  17.714  0.00  0.00    +0.000 A 
ATOM      5  C   UNL     1       4.868   3.612  18.904  0.00  0.00    +0.000 A 
ATOM      6  C   UNL     1       5.372   4.913  18.878  0.00  0.00    +0.000 A 
ENDROOT
BRANCH   1   7
ATOM      7  C   UNL     1       5.987   7.045  17.670  0.00  0.00    +0.000 C 
BRANCH   7   9
ATOM      8  O   UNL     1       7.974   6.799  16.331  0.00  0.00    +0.000 OA
ATOM      9  C   UNL     1       7.469   7.165  17.385  0.00  0.00    +0.000 C 
BRANCH   9  10
ATOM     10  O   UNL     1       8.203   7.769  18.345  0.00  0.00    +0.000 OA
ATOM     11  H   UNL     1       9.040   7.312  18.558  0.00  0.00    +0.000 HD
ENDBRANCH   9  10
ENDBRANCH   7   9
ENDBRANCH   1   7
BRANCH   5  12
ATOM     12  O   UNL     1       4.752   2.823  20.016  0.00  0.00    +0.000 OA
BRANCH  12  13
ATOM     13  C   UNL     1       3.518   2.119  20.171  0.00  0.00    +0.000 C 
BRANCH  13  14
ATOM     14  C   UNL     1       2.769   2.702  21.364  0.00  0.00    +0.000 C 
BRANCH  14  15
ATOM     15  C   UNL     1       1.457   3.346  20.914  0.00  0.00    +0.000 C 
BRANCH  15  16
ATOM     16  C   UNL     1       1.690   4.523  20.003  0.00  0.00    +0.000 A 
ATOM     17  C   UNL     1       2.163   5.739  20.513  0.00  0.00    +0.000 A 
ATOM     18  C   UNL     1       2.361   6.831  19.666  0.00  0.00    +0.000 A 
ATOM     19  C   UNL     1       2.084   6.718  18.304  0.00  0.00    +0.000 A 
ATOM     20  C   UNL     1       1.610   5.514  17.788  0.00  0.00    +0.000 A 
ATOM     21  C   UNL     1       1.411   4.421  18.633  0.00  0.00    +0.000 A 
ENDBRANCH  15  16
ENDBRANCH  14  15
ENDBRANCH  13  14
ENDBRANCH  12  13
ENDBRANCH   5  12
TORSDOF 8
ENDMDL
MODEL 3
REMARK VINA RESULT:      -6.1      2.979      5.388
REMARK  Name = 
REMARK  8 active torsions:
REMARK  status: ('A' for Active; 'I' for Inactive)
REMARK    1  A    between atoms: C_2  and  O_3
REMARK    2  A    between atoms: C_2  and  C_4
REMARK    3  A    between atoms: C_4  and  C_5
REMARK    4  A    between atoms: C_9  and  O_10
REMARK    5  A    between atoms: O_10  and  C_11
REMARK    6  A    between atoms: C_11  and  C_12
REMARK    7  A    between atoms: C_12  and  C_13
REMARK    8  A    between atoms: C_13  and  C_14
REMARK                            x       y       z     vdW  Elec       q    Type
REMARK                         _______ _______ _______ _____ _____    ______ ____
ROOT
ATOM      1  C   UNL     1       5.957   4.721  15.888  0.00  0.00    +0.000 A 
ATOM      2  C   UNL     1       6.859   4.345  16.891  0.00  0.00    +0.000 A 
ATOM      3  C   UNL     1       6.829   4.979  18.132  0.00  0.00    +0.000 A 
ATOM      4  C   UNL     1       5.901   5.992  18.380  0.00  0.00    +0.000 A 
ATOM      5  C   UNL     1       4.999   6.384  17.390  0.00  0.00    +0.000 A 
ATOM      6  C   UNL     1       5.036   5.751  16.146  0.00  0.00    +0.000 A 
ENDROOT
BRANCH   1   7
ATOM      7  C   UNL     1       5.979   4.051  14.534  0.00  0.00    +0.000 C 
BRANCH   7   9
ATOM      8  O   UNL     1       7.786   5.483  13.837  0.00  0.00    +0.000 OA
ATOM      9  C   UNL     1       6.968   4.622  13.539  0.00  0.00    +0.000 C 
BRANCH   9  10
ATOM     10  O   UNL     1       6.940   4.072  12.305  0.00  0.00    +0.000 OA
ATOM     11  H   UNL     1       6.508   4.628  11.627  0.00  0.00    +0.000 HD
ENDBRANCH   9  10
ENDBRANCH   7   9
ENDBRANCH   1   7
BRANCH   5  12
ATOM     12  O   UNL     1       4.142   7.388  17.750  0.00  0.00    +0.000 OA
BRANCH  12  13
ATOM     13  C   UNL     1       2.782   7.013  17.975  0.00  0.00    +0.000 C 
BRANCH  13  14
ATOM     14  C   UNL     1       2.527   6.975  19.477  0.00  0.00    +0.000 C 
BRANCH  14  15
ATOM     15  C   UNL     1       1.884   5.648  19.881  0.00  0.00    +0.000 C 
BRANCH  15  16
ATOM     16  C   UNL     1       2.502   4.479  19.158  0.00  0.00    +0.000 A 
ATOM     17  C   UNL     1       2.017   4.076  17.907  0.00  0.00    +0.000 A 
ATOM     18  C   UNL     1       2.584   2.982  17.250  0.00  0.00    +0.000 A 
ATOM     19  C   UNL     1       3.634   2.280  17.839  0.00  0.00    +0.000 A 
ATOM     20  C   UNL     1       4.120   2.671  19.085  0.00  0.00    +0.000 A 
ATOM     21  C   UNL     1       3.556   3.765  19.743  0.00  0.00    +0.000 A 
ENDBRANCH  15  16
ENDBRANCH  14  15
ENDBRANCH  13  14
ENDBRANCH  12  13
ENDBRANCH   5  12
TORSDOF 8
ENDMDL
MODEL 4
REMARK VINA RESULT:      -6.1      2.795      4.421
REMARK  Name = 
REMARK  8 active torsions:
REMARK  status: ('A' for Active; 'I' for Inactive)
REMARK    1  A    between atoms: C_2  and  O_3
REMARK    2  A    between atoms: C_2  and  C_4
REMARK    3  A    between atoms: C_4  and  C_5
REMARK    4  A    between atoms: C_9  and  O_10
REMARK    5  A    between atoms: O_10  and  C_11
REMARK    6  A    between atoms: C_11  and  C_12
REMARK    7  A    between atoms: C_12  and  C_13
REMARK    8  A    between atoms: C_13  and  C_14
REMARK                            x       y       z     vdW  Elec       q    Type
REMARK                         _______ _______ _______ _____ _____    ______ ____
ROOT
ATOM      1  C   UNL     1       2.897   4.879  19.954  0.00  0.00    +0.000 A 
ATOM      2  C   UNL     1       2.822   6.229  19.589  0.00  0.00    +0.000 A 
ATOM      3  C   UNL     1       3.267   6.641  18.334  0.00  0.00    +0.000 A 
ATOM      4  C   UNL     1       3.790   5.709  17.436  0.00  0.00    +0.000 A 
ATOM      5  C   UNL     1       3.879   4.361  17.785  0.00  0.00    +0.000 A 
ATOM      6  C   UNL     1       3.437   3.953  19.045  0.00  0.00    +0.000 A 
ENDROOT
BRANCH   1   7
ATOM      7  C   UNL     1       2.427   4.416  21.314  0.00  0.00    +0.000 C 
BRANCH   7   9
ATOM      8  O   UNL     1       1.503   2.343  22.119  0.00  0.00    +0.000 OA
ATOM      9  C   UNL     1       1.451   3.259  21.308  0.00  0.00    +0.000 C 
BRANCH   9  10
ATOM     10  O   UNL     1       0.466   3.329  20.386  0.00  0.00    +0.000 OA
ATOM     11  H   UNL     1       0.763   3.620  19.501  0.00  0.00    +0.000 HD
ENDBRANCH   9  10
ENDBRANCH   7   9
ENDBRANCH   1   7
BRANCH   5  12
ATOM     12  O   UNL     1       4.411   3.545  16.823  0.00  0.00    +0.000 OA
BRANCH  12  13
ATOM     13  C   UNL     1       4.676   4.147  15.554  0.00  0.00    +0.000 C 
BRANCH  13  14
ATOM     14  C   UNL     1       6.072   3.737  15.100  0.00  0.00    +0.000 C 
BRANCH  14  15
ATOM     15  C   UNL     1       7.000   4.951  15.047  0.00  0.00    +0.000 C 
BRANCH  15  16
ATOM     16  C   UNL     1       7.333   5.466  16.423  0.00  0.00    +0.000 A 
ATOM     17  C   UNL     1       7.620   4.578  17.468  0.00  0.00    +0.000 A 
ATOM     18  C   UNL     1       7.912   5.061  18.745  0.00  0.00    +0.000 A 
ATOM     19  C   UNL     1       7.916   6.433  18.989  0.00  0.00    +0.000 A 
ATOM     20  C   UNL     1       7.629   7.325  17.957  0.00  0.00    +0.000 A 
ATOM     21  C   UNL     1       7.337   6.843  16.680  0.00  0.00    +0.000 A 
ENDBRANCH  15  16
ENDBRANCH  14  15
ENDBRANCH  13  14
ENDBRANCH  12  13
ENDBRANCH   5  12
TORSDOF 8
ENDMDL
MODEL 5
REMARK VINA RESULT:      -6.0      2.711      4.711
REMARK  Name = 
REMARK  8 active torsions:
REMARK  status: ('A' for Active; 'I' for Inactive)
REMARK    1  A    between atoms: C_2  and  O_3
REMARK    2  A    between atoms: C_2  and  C_4
REMARK    3  A    between atoms: C_4  and  C_5
REMARK    4  A    between atoms: C_9  and  O_10
REMARK    5  A    between atoms: O_10  and  C_11
REMARK    6  A    between atoms: C_11  and  C_12
REMARK    7  A    between atoms: C_12  and  C_13
REMARK    8  A    between atoms: C_13  and  C_14
REMARK                            x       y       z     vdW  Elec       q    Type
REMARK                         _______ _______ _______ _____ _____    ______ ____
ROOT
ATOM      1  C   UNL     1       5.191   4.256  18.028  0.00  0.00    +0.000 A 
ATOM      2  C   UNL     1       4.656   3.526  16.959  0.00  0.00    +0.000 A 
ATOM      3  C   UNL     1       3.926   2.364  17.202  0.00  0.00    +0.000 A 
ATOM      4  C   UNL     1       3.725   1.923  18.512  0.00  0.00    +0.000 A 
ATOM      5  C   UNL     1       4.257   2.634  19.588  0.00  0.00    +0.000 A 
ATOM      6  C   UNL     1       4.993   3.794  19.340  0.00  0.00    +0.000 A 
ENDROOT
BRANCH   1   7
ATOM      7  C   UNL     1       5.993   5.514  17.782  0.00  0.00    +0.000 C 
BRANCH   7   9
ATOM      8  O   UNL     1       8.061   4.400  17.250  0.00  0.00    +0.000 OA
ATOM      9  C   UNL     1       7.290   5.323  17.024  0.00  0.00    +0.000 C 
BRANCH   9  10
ATOM     10  O   UNL     1       7.517   6.204  16.025  0.00  0.00    +0.000 OA
ATOM     11  H   UNL     1       8.431   6.549  15.994  0.00  0.00    +0.000 HD
ENDBRANCH   9  10
ENDBRANCH   7   9
ENDBRANCH   1   7
BRANCH   5  12
ATOM     12  O   UNL     1       3.996   2.103  20.822  0.00  0.00    +0.000 OA
BRANCH  12  13
ATOM     13  C   UNL     1       2.847   2.609  21.503  0.00  0.00    +0.000 C 
BRANCH  13  14
ATOM     14  C   UNL     1       1.626   2.425  20.609  0.00  0.00    +0.000 C 
BRANCH  14  15
ATOM     15  C   UNL     1       0.750   3.678  20.629  0.00  0.00    +0.000 C 
BRANCH  15  16
ATOM     16  C   UNL     1       1.369   4.812  19.854  0.00  0.00    +0.000 A 
ATOM     17  C   UNL     1       1.479   4.747  18.459  0.00  0.00    +0.000 A 
ATOM     18  C   UNL     1       2.068   5.794  17.748  0.00  0.00    +0.000 A 
ATOM     19  C   UNL     1       2.556   6.911  18.425  0.00  0.00    +0.000 A 
ATOM     20  C   UNL     1       2.454   6.983  19.813  0.00  0.00    +0.000 A 
ATOM     21  C   UNL     1       1.865   5.937  20.525  0.00  0.00    +0.000 A 
ENDBRANCH  15  16
ENDBRANCH  14  15
ENDBRANCH  13  14
ENDBRANCH  12  13
ENDBRANCH   5  12
TORSDOF 8
ENDMDL
MODEL 6
REMARK VINA RESULT:      -6.0      4.818      7.467
REMARK  Name = 
REMARK  8 active torsions:
REMARK  status: ('A' for Active; 'I' for Inactive)
REMARK    1  A    between atoms: C_2  and  O_3
REMARK    2  A    between atoms: C_2  and  C_4
REMARK    3  A    between atoms: C_4  and  C_5
REMARK    4  A    between atoms: C_9  and  O_10
REMARK    5  A    between atoms: O_10  and  C_11
REMARK    6  A    between atoms: C_11  and  C_12
REMARK    7  A    between atoms: C_12  and  C_13
REMARK    8  A    between atoms: C_13  and  C_14
REMARK                            x       y       z     vdW  Elec       q    Type
REMARK                         _______ _______ _______ _____ _____    ______ ____
ROOT
ATOM      1  C   UNL     1       4.951   4.307  16.781  0.00  0.00    +0.000 A 
ATOM      2  C   UNL     1       5.162   3.663  15.556  0.00  0.00    +0.000 A 
ATOM      3  C   UNL     1       6.210   4.063  14.727  0.00  0.00    +0.000 A 
ATOM      4  C   UNL     1       7.051   5.107  15.115  0.00  0.00    +0.000 A 
ATOM      5  C   UNL     1       6.850   5.764  16.329  0.00  0.00    +0.000 A 
ATOM      6  C   UNL     1       5.797   5.365  17.154  0.00  0.00    +0.000 A 
ENDROOT
BRANCH   1   7
ATOM      7  C   UNL     1       3.815   3.892  17.689  0.00  0.00    +0.000 C 
BRANCH   7   9
ATOM      8  O   UNL     1       3.597   4.418  20.029  0.00  0.00    +0.000 OA
ATOM      9  C   UNL     1       4.164   3.771  19.157  0.00  0.00    +0.000 C 
BRANCH   9  10
ATOM     10  O   UNL     1       5.102   2.848  19.462  0.00  0.00    +0.000 OA
ATOM     11  H   UNL     1       5.182   2.125  18.808  0.00  0.00    +0.000 HD
ENDBRANCH   9  10
ENDBRANCH   7   9
ENDBRANCH   1   7
BRANCH   5  12
ATOM     12  O   UNL     1       7.736   6.772  16.598  0.00  0.00    +0.000 OA
BRANCH  12  13
ATOM     13  C   UNL     1       7.247   7.854  17.394  0.00  0.00    +0.000 C 
BRANCH  13  14
ATOM     14  C   UNL     1       8.428   8.526  18.085  0.00  0.00    +0.000 C 
BRANCH  14  15
ATOM     15  C   UNL     1       8.210  10.036  18.177  0.00  0.00    +0.000 C 
BRANCH  15  16
ATOM     16  C   UNL     1       9.404  10.743  18.764  0.00  0.00    +0.000 A 
ATOM     17  C   UNL     1       9.438  11.078  20.124  0.00  0.00    +0.000 A 
ATOM     18  C   UNL     1      10.540  11.748  20.658  0.00  0.00    +0.000 A 
ATOM     19  C   UNL     1      11.614  12.093  19.838  0.00  0.00    +0.000 A 
ATOM     20  C   UNL     1      11.587  11.767  18.483  0.00  0.00    +0.000 A 
ATOM     21  C   UNL     1      10.486  11.097  17.947  0.00  0.00    +0.000 A 
ENDBRANCH  15  16
ENDBRANCH  14  15
ENDBRANCH  13  14
ENDBRANCH  12  13
ENDBRANCH   5  12
TORSDOF 8
ENDMDL
MODEL 7
REMARK VINA RESULT:      -6.0      3.291      5.805
REMARK  Name = 
REMARK  8 active torsions:
REMARK  status: ('A' for Active; 'I' for Inactive)
REMARK    1  A    between atoms: C_2  and  O_3
REMARK    2  A    between atoms: C_2  and  C_4
REMARK    3  A    between atoms: C_4  and  C_5
REMARK    4  A    between atoms: C_9  and  O_10
REMARK    5  A    between atoms: O_10  and  C_11
REMARK    6  A    between atoms: C_11  and  C_12
REMARK    7  A    between atoms: C_12  and  C_13
REMARK    8  A    between atoms: C_13  and  C_14
REMARK                            x       y       z     vdW  Elec       q    Type
REMARK                         _______ _______ _______ _____ _____    ______ ____
ROOT
ATOM      1  C   UNL     1       6.311   4.795  15.509  0.00  0.00    +0.000 A 
ATOM      2  C   UNL     1       7.139   4.450  16.584  0.00  0.00    +0.000 A 
ATOM      3  C   UNL     1       6.940   5.031  17.836  0.00  0.00    +0.000 A 
ATOM      4  C   UNL     1       5.914   5.960  18.021  0.00  0.00    +0.000 A 
ATOM      5  C   UNL     1       5.084   6.321  16.959  0.00  0.00    +0.000 A 
ATOM      6  C   UNL     1       5.291   5.741  15.706  0.00  0.00    +0.000 A 
ENDROOT
BRANCH   1   7
ATOM      7  C   UNL     1       6.518   4.180  14.143  0.00  0.00    +0.000 C 
BRANCH   7   9
ATOM      8  O   UNL     1       8.294   5.732  13.653  0.00  0.00    +0.000 OA
ATOM      9  C   UNL     1       7.481   4.917  13.236  0.00  0.00    +0.000 C 
BRANCH   9  10
ATOM     10  O   UNL     1       7.438   4.568  11.931  0.00  0.00    +0.000 OA
ATOM     11  H   UNL     1       6.546   4.331  11.608  0.00  0.00    +0.000 HD
ENDBRANCH   9  10
ENDBRANCH   7   9
ENDBRANCH   1   7
BRANCH   5  12
ATOM     12  O   UNL     1       4.119   7.242  17.263  0.00  0.00    +0.000 OA
BRANCH  12  13
ATOM     13  C   UNL     1       3.356   6.997  18.445  0.00  0.00    +0.000 C 
BRANCH  13  14
ATOM     14  C   UNL     1       2.041   6.333  18.052  0.00  0.00    +0.000 C 
BRANCH  14  15
ATOM     15  C   UNL     1       2.246   4.840  17.798  0.00  0.00    +0.000 C 
BRANCH  15  16
ATOM     16  C   UNL     1       2.346   4.058  19.081  0.00  0.00    +0.000 A 
ATOM     17  C   UNL     1       3.484   3.291  19.364  0.00  0.00    +0.000 A 
ATOM     18  C   UNL     1       3.563   2.555  20.548  0.00  0.00    +0.000 A 
ATOM     19  C   UNL     1       2.506   2.576  21.455  0.00  0.00    +0.000 A 
ATOM     20  C   UNL     1       1.368   3.333  21.182  0.00  0.00    +0.000 A 
ATOM     21  C   UNL     1       1.287   4.069  19.999  0.00  0.00    +0.000 A 
ENDBRANCH  15  16
ENDBRANCH  14  15
ENDBRANCH  13  14
ENDBRANCH  12  13
ENDBRANCH   5  12
TORSDOF 8
ENDMDL
MODEL 8
REMARK VINA RESULT:      -6.0      4.869      7.524
REMARK  Name = 
REMARK  8 active torsions:
REMARK  status: ('A' for Active; 'I' for Inactive)
REMARK    1  A    between atoms: C_2  and  O_3
REMARK    2  A    between atoms: C_2  and  C_4
REMARK    3  A    between atoms: C_4  and  C_5
REMARK    4  A    between atoms: C_9  and  O_10
REMARK    5  A    between atoms: O_10  and  C_11
REMARK    6  A    between atoms: C_11  and  C_12
REMARK    7  A    between atoms: C_12  and  C_13
REMARK    8  A    between atoms: C_13  and  C_14
REMARK                            x       y       z     vdW  Elec       q    Type
REMARK                         _______ _______ _______ _____ _____    ______ ____
ROOT
ATOM      1  C   UNL     1       4.794   4.555  17.378  0.00  0.00    +0.000 A 
ATOM      2  C   UNL     1       4.914   3.825  16.189  0.00  0.00    +0.000 A 
ATOM      3  C   UNL     1       5.952   4.100  15.300  0.00  0.00    +0.000 A 
ATOM      4  C   UNL     1       6.876   5.105  15.591  0.00  0.00    +0.000 A 
ATOM      5  C   UNL     1       6.768   5.847  16.768  0.00  0.00    +0.000 A 
ATOM      6  C   UNL     1       5.724   5.572  17.653  0.00  0.00    +0.000 A 
ENDROOT
BRANCH   1   7
ATOM      7  C   UNL     1       3.670   4.275  18.349  0.00  0.00    +0.000 C 
BRANCH   7   9
ATOM      8  O   UNL     1       4.912   2.783  19.776  0.00  0.00    +0.000 OA
ATOM      9  C   UNL     1       3.852   3.052  19.223  0.00  0.00    +0.000 C 
BRANCH   9  10
ATOM     10  O   UNL     1       2.746   2.301  19.416  0.00  0.00    +0.000 OA
ATOM     11  H   UNL     1       2.648   1.560  18.787  0.00  0.00    +0.000 HD
ENDBRANCH   9  10
ENDBRANCH   7   9
ENDBRANCH   1   7
BRANCH   5  12
ATOM     12  O   UNL     1       7.729   6.805  16.941  0.00  0.00    +0.000 OA
BRANCH  12  13
ATOM     13  C   UNL     1       7.280   8.082  17.400  0.00  0.00    +0.000 C 
BRANCH  13  14
ATOM     14  C   UNL     1       8.415   8.757  18.161  0.00  0.00    +0.000 C 
BRANCH  14  15
ATOM     15  C   UNL     1       8.445  10.257  17.866  0.00  0.00    +0.000 C 
BRANCH  15  16
ATOM     16  C   UNL     1       9.589  10.945  18.563  0.00  0.00    +0.000 A 
ATOM     17  C   UNL     1      10.662  11.469  17.829  0.00  0.00    +0.000 A 
ATOM     18  C   UNL     1      11.727  12.091  18.481  0.00  0.00    +0.000 A 
ATOM     19  C   UNL     1      11.732  12.191  19.872  0.00  0.00    +0.000 A 
ATOM     20  C   UNL     1      10.672  11.671  20.611  0.00  0.00    +0.000 A 
ATOM     21  C   UNL     1       9.606  11.048  19.960  0.00  0.00    +0.000 A 
ENDBRANCH  15  16
ENDBRANCH  14  15
ENDBRANCH  13  14
ENDBRANCH  12  13
ENDBRANCH   5  12
TORSDOF 8
ENDMDL
MODEL 9
REMARK VINA RESULT:      -5.8      2.614      4.349
REMARK  Name = 
REMARK  8 active torsions:
REMARK  status: ('A' for Active; 'I' for Inactive)
REMARK    1  A    between atoms: C_2  and  O_3
REMARK    2  A    between atoms: C_2  and  C_4
REMARK    3  A    between atoms: C_4  and  C_5
REMARK    4  A    between atoms: C_9  and  O_10
REMARK    5  A    between atoms: O_10  and  C_11
REMARK    6  A    between atoms: C_11  and  C_12
REMARK    7  A    between atoms: C_12  and  C_13
REMARK    8  A    between atoms: C_13  and  C_14
REMARK                            x       y       z     vdW  Elec       q    Type
REMARK                         _______ _______ _______ _____ _____    ______ ____
ROOT
ATOM      1  C   UNL     1       5.108   6.255  18.060  0.00  0.00    +0.000 A 
ATOM      2  C   UNL     1       4.237   7.163  17.446  0.00  0.00    +0.000 A 
ATOM      3  C   UNL     1       2.952   7.353  17.954  0.00  0.00    +0.000 A 
ATOM      4  C   UNL     1       2.530   6.638  19.076  0.00  0.00    +0.000 A 
ATOM      5  C   UNL     1       3.382   5.724  19.697  0.00  0.00    +0.000 A 
ATOM      6  C   UNL     1       4.665   5.532  19.182  0.00  0.00    +0.000 A 
ENDROOT
BRANCH   1   7
ATOM      7  C   UNL     1       6.501   6.030  17.518  0.00  0.00    +0.000 C 
BRANCH   7   9
ATOM      8  O   UNL     1       7.792   5.505  19.483  0.00  0.00    +0.000 OA
ATOM      9  C   UNL     1       7.402   5.164  18.373  0.00  0.00    +0.000 C 
BRANCH   9  10
ATOM     10  O   UNL     1       7.700   3.949  17.864  0.00  0.00    +0.000 OA
ATOM     11  H   UNL     1       8.517   3.927  17.327  0.00  0.00    +0.000 HD
ENDBRANCH   9  10
ENDBRANCH   7   9
ENDBRANCH   1   7
BRANCH   5  12
ATOM     12  O   UNL     1       2.854   5.083  20.784  0.00  0.00    +0.000 OA
BRANCH  12  13
ATOM     13  C   UNL     1       1.439   4.885  20.781  0.00  0.00    +0.000 C 
BRANCH  13  14
ATOM     14  C   UNL     1       1.152   3.402  20.980  0.00  0.00    +0.000 C 
BRANCH  14  15
ATOM     15  C   UNL     1       0.790   2.740  19.650  0.00  0.00    +0.000 C 
BRANCH  15  16
ATOM     16  C   UNL     1       1.928   2.795  18.665  0.00  0.00    +0.000 A 
ATOM     17  C   UNL     1       1.831   3.572  17.502  0.00  0.00    +0.000 A 
ATOM     18  C   UNL     1       2.883   3.605  16.586  0.00  0.00    +0.000 A 
ATOM     19  C   UNL     1       4.038   2.860  16.820  0.00  0.00    +0.000 A 
ATOM     20  C   UNL     1       4.143   2.082  17.971  0.00  0.00    +0.000 A 
ATOM     21  C   UNL     1       3.092   2.048  18.889  0.00  0.00    +0.000 A 
ENDBRANCH  15  16
ENDBRANCH  14  15
ENDBRANCH  13  14
ENDBRANCH  12  13
ENDBRANCH   5  12
TORSDOF 8
ENDMDL
