MODEL 1
REMARK VINA RESULT:      -7.9      0.000      0.000
REMARK  Name = 
REMARK  3 active torsions:
REMARK  status: ('A' for Active; 'I' for Inactive)
REMARK    1  A    between atoms: C_1  and  N_2
REMARK    2  A    between atoms: C_7  and  N_8
REMARK    3  A    between atoms: C_9  and  C_11
REMARK                            x       y       z     vdW  Elec       q    Type
REMARK                         _______ _______ _______ _____ _____    ______ ____
ROOT
ATOM      1  N   UNL     1       5.103   3.758  16.547  0.00  0.00    +0.000 N 
ATOM      2  C   UNL     1       5.509   5.026  16.157  0.00  0.00    +0.000 C 
ATOM      3  O   UNL     1       5.180   6.084  16.685  0.00  0.00    +0.000 OA
ATOM      4  H   UNL     1       5.575   3.006  16.051  0.00  0.00    +0.000 HD
ENDROOT
BRANCH   1  11
ATOM      5  C   UNL     1       1.494   2.509  22.009  0.00  0.00    +0.000 C 
ATOM      6  N   UNL     1       1.488   2.615  20.573  0.00  0.00    +0.000 N 
ATOM      7  C   UNL     1       0.389   2.462  19.776  0.00  0.00    +0.000 A 
ATOM      8  N   UNL     1       0.684   2.629  18.509  0.00  0.00    +0.000 NA
ATOM      9  C   UNL     1       2.029   2.907  18.487  0.00  0.00    +0.000 A 
ATOM     10  C   UNL     1       2.860   3.186  17.391  0.00  0.00    +0.000 A 
ATOM     11  C   UNL     1       4.220   3.443  17.600  0.00  0.00    +0.000 A 
ATOM     12  C   UNL     1       4.741   3.388  18.903  0.00  0.00    +0.000 A 
ATOM     13  C   UNL     1       3.924   3.124  20.017  0.00  0.00    +0.000 A 
ATOM     14  C   UNL     1       2.567   2.891  19.770  0.00  0.00    +0.000 A 
ENDBRANCH   1  11
BRANCH   2  15
ATOM     15  C   UNL     1       6.458   5.010  15.035  0.00  0.00    +0.000 A 
ATOM     16  N   UNL     1       7.637   5.692  15.049  0.00  0.00    +0.000 NA
ATOM     17  N   UNL     1       8.197   5.430  13.835  0.00  0.00    +0.000 N 
ATOM     18  C   UNL     1       7.408   4.645  13.078  0.00  0.00    +0.000 A 
ATOM     19  C   UNL     1       6.302   4.348  13.807  0.00  0.00    +0.000 A 
ATOM     20  C   UNL     1       5.348   3.510  13.065  0.00  0.00    +0.000 C 
ATOM     21  C   UNL     1       6.071   3.324  11.679  0.00  0.00    +0.000 C 
ATOM     22  C   UNL     1       7.440   4.095  11.719  0.00  0.00    +0.000 C 
ATOM     23  H   UNL     1       9.099   5.842  13.614  0.00  0.00    +0.000 HD
ENDBRANCH   2  15
TORSDOF 2
ENDMDL
MODEL 2
REMARK VINA RESULT:      -7.8      1.426      1.601
REMARK  Name = 
REMARK  3 active torsions:
REMARK  status: ('A' for Active; 'I' for Inactive)
REMARK    1  A    between atoms: C_1  and  N_2
REMARK    2  A    between atoms: C_7  and  N_8
REMARK    3  A    between atoms: C_9  and  C_11
REMARK                            x       y       z     vdW  Elec       q    Type
REMARK                         _______ _______ _______ _____ _____    ______ ____
ROOT
ATOM      1  N   UNL     1       5.012   4.479  16.295  0.00  0.00    +0.000 N 
ATOM      2  C   UNL     1       6.396   4.576  16.297  0.00  0.00    +0.000 C 
ATOM      3  O   UNL     1       7.126   4.467  17.278  0.00  0.00    +0.000 OA
ATOM      4  H   UNL     1       4.602   4.487  15.364  0.00  0.00    +0.000 HD
ENDROOT
BRANCH   1  11
ATOM      5  C   UNL     1       1.342   2.734  21.577  0.00  0.00    +0.000 C 
ATOM      6  N   UNL     1       1.819   3.821  20.762  0.00  0.00    +0.000 N 
ATOM      7  C   UNL     1       1.564   5.144  20.986  0.00  0.00    +0.000 A 
ATOM      8  N   UNL     1       2.142   5.906  20.087  0.00  0.00    +0.000 NA
ATOM      9  C   UNL     1       2.802   5.037  19.251  0.00  0.00    +0.000 A 
ATOM     10  C   UNL     1       3.597   5.317  18.129  0.00  0.00    +0.000 A 
ATOM     11  C   UNL     1       4.181   4.265  17.413  0.00  0.00    +0.000 A 
ATOM     12  C   UNL     1       3.938   2.941  17.813  0.00  0.00    +0.000 A 
ATOM     13  C   UNL     1       3.157   2.638  18.942  0.00  0.00    +0.000 A 
ATOM     14  C   UNL     1       2.606   3.717  19.643  0.00  0.00    +0.000 A 
ENDBRANCH   1  11
BRANCH   2  15
ATOM     15  C   UNL     1       6.964   4.775  14.956  0.00  0.00    +0.000 A 
ATOM     16  N   UNL     1       7.978   5.647  14.701  0.00  0.00    +0.000 NA
ATOM     17  N   UNL     1       8.188   5.543  13.359  0.00  0.00    +0.000 N 
ATOM     18  C   UNL     1       7.338   4.671  12.785  0.00  0.00    +0.000 A 
ATOM     19  C   UNL     1       6.553   4.156  13.766  0.00  0.00    +0.000 A 
ATOM     20  C   UNL     1       5.559   3.203  13.248  0.00  0.00    +0.000 C 
ATOM     21  C   UNL     1       5.861   3.209  11.703  0.00  0.00    +0.000 C 
ATOM     22  C   UNL     1       7.050   4.200  11.427  0.00  0.00    +0.000 C 
ATOM     23  H   UNL     1       8.912   6.112  12.932  0.00  0.00    +0.000 HD
ENDBRANCH   2  15
TORSDOF 2
ENDMDL
MODEL 3
REMARK VINA RESULT:      -7.4      5.771      7.133
REMARK  Name = 
REMARK  3 active torsions:
REMARK  status: ('A' for Active; 'I' for Inactive)
REMARK    1  A    between atoms: C_1  and  N_2
REMARK    2  A    between atoms: C_7  and  N_8
REMARK    3  A    between atoms: C_9  and  C_11
REMARK                            x       y       z     vdW  Elec       q    Type
REMARK                         _______ _______ _______ _____ _____    ______ ____
ROOT
ATOM      1  N   UNL     1       2.226   7.041  20.144  0.00  0.00    +0.000 N 
ATOM      2  C   UNL     1       2.990   6.814  19.009  0.00  0.00    +0.000 C 
ATOM      3  O   UNL     1       3.176   7.610  18.092  0.00  0.00    +0.000 OA
ATOM      4  H   UNL     1       2.289   6.298  20.836  0.00  0.00    +0.000 HD
ENDROOT
BRANCH   1  11
ATOM      5  C   UNL     1      -1.339  12.631  20.821  0.00  0.00    +0.000 C 
ATOM      6  N   UNL     1      -0.724  11.518  21.497  0.00  0.00    +0.000 N 
ATOM      7  C   UNL     1      -0.784  11.283  22.842  0.00  0.00    +0.000 A 
ATOM      8  N   UNL     1      -0.143  10.186  23.169  0.00  0.00    +0.000 NA
ATOM      9  C   UNL     1       0.348   9.690  21.985  0.00  0.00    +0.000 A 
ATOM     10  C   UNL     1       1.096   8.526  21.753  0.00  0.00    +0.000 A 
ATOM     11  C   UNL     1       1.497   8.208  20.450  0.00  0.00    +0.000 A 
ATOM     12  C   UNL     1       1.170   9.076  19.396  0.00  0.00    +0.000 A 
ATOM     13  C   UNL     1       0.409  10.241  19.603  0.00  0.00    +0.000 A 
ATOM     14  C   UNL     1       0.010  10.515  20.917  0.00  0.00    +0.000 A 
ENDBRANCH   1  11
BRANCH   2  15
ATOM     15  C   UNL     1       3.646   5.499  19.006  0.00  0.00    +0.000 A 
ATOM     16  N   UNL     1       4.938   5.311  19.393  0.00  0.00    +0.000 NA
ATOM     17  N   UNL     1       5.155   3.977  19.225  0.00  0.00    +0.000 N 
ATOM     18  C   UNL     1       4.069   3.351  18.734  0.00  0.00    +0.000 A 
ATOM     19  C   UNL     1       3.089   4.280  18.591  0.00  0.00    +0.000 A 
ATOM     20  C   UNL     1       1.853   3.711  18.031  0.00  0.00    +0.000 C 
ATOM     21  C   UNL     1       2.240   2.198  17.831  0.00  0.00    +0.000 C 
ATOM     22  C   UNL     1       3.724   1.992  18.306  0.00  0.00    +0.000 C 
ATOM     23  H   UNL     1       6.068   3.597  19.454  0.00  0.00    +0.000 HD
ENDBRANCH   2  15
TORSDOF 2
ENDMDL
MODEL 4
REMARK VINA RESULT:      -7.3      5.355      6.172
REMARK  Name = 
REMARK  3 active torsions:
REMARK  status: ('A' for Active; 'I' for Inactive)
REMARK    1  A    between atoms: C_1  and  N_2
REMARK    2  A    between atoms: C_7  and  N_8
REMARK    3  A    between atoms: C_9  and  C_11
REMARK                            x       y       z     vdW  Elec       q    Type
REMARK                         _______ _______ _______ _____ _____    ______ ____
ROOT
ATOM      1  N   UNL     1       3.116   7.171  18.717  0.00  0.00    +0.000 N 
ATOM      2  C   UNL     1       2.958   5.794  18.781  0.00  0.00    +0.000 C 
ATOM      3  O   UNL     1       1.919   5.197  19.046  0.00  0.00    +0.000 OA
ATOM      4  H   UNL     1       4.027   7.463  18.372  0.00  0.00    +0.000 HD
ENDROOT
BRANCH   1  11
ATOM      5  C   UNL     1      -1.691  11.768  19.138  0.00  0.00    +0.000 C 
ATOM      6  N   UNL     1      -0.826  10.875  19.865  0.00  0.00    +0.000 N 
ATOM      7  C   UNL     1      -0.828  10.708  21.221  0.00  0.00    +0.000 A 
ATOM      8  N   UNL     1       0.059   9.818  21.599  0.00  0.00    +0.000 NA
ATOM      9  C   UNL     1       0.655   9.389  20.437  0.00  0.00    +0.000 A 
ATOM     10  C   UNL     1       1.662   8.428  20.257  0.00  0.00    +0.000 A 
ATOM     11  C   UNL     1       2.127   8.144  18.968  0.00  0.00    +0.000 A 
ATOM     12  C   UNL     1       1.600   8.847  17.874  0.00  0.00    +0.000 A 
ATOM     13  C   UNL     1       0.581   9.804  18.028  0.00  0.00    +0.000 A 
ATOM     14  C   UNL     1       0.128  10.047  19.330  0.00  0.00    +0.000 A 
ENDBRANCH   1  11
BRANCH   2  15
ATOM     15  C   UNL     1       4.181   5.055  18.435  0.00  0.00    +0.000 A 
ATOM     16  N   UNL     1       4.746   4.126  19.257  0.00  0.00    +0.000 NA
ATOM     17  N   UNL     1       5.851   3.702  18.583  0.00  0.00    +0.000 N 
ATOM     18  C   UNL     1       5.997   4.342  17.407  0.00  0.00    +0.000 A 
ATOM     19  C   UNL     1       4.954   5.200  17.273  0.00  0.00    +0.000 A 
ATOM     20  C   UNL     1       5.024   5.979  16.028  0.00  0.00    +0.000 C 
ATOM     21  C   UNL     1       6.352   5.447  15.372  0.00  0.00    +0.000 C 
ATOM     22  C   UNL     1       6.979   4.359  16.318  0.00  0.00    +0.000 C 
ATOM     23  H   UNL     1       6.442   2.995  19.009  0.00  0.00    +0.000 HD
ENDBRANCH   2  15
TORSDOF 2
ENDMDL
MODEL 5
REMARK VINA RESULT:      -7.3      5.581      6.717
REMARK  Name = 
REMARK  3 active torsions:
REMARK  status: ('A' for Active; 'I' for Inactive)
REMARK    1  A    between atoms: C_1  and  N_2
REMARK    2  A    between atoms: C_7  and  N_8
REMARK    3  A    between atoms: C_9  and  C_11
REMARK                            x       y       z     vdW  Elec       q    Type
REMARK                         _______ _______ _______ _____ _____    ______ ____
ROOT
ATOM      1  N   UNL     1       2.633   7.134  19.798  0.00  0.00    +0.000 N 
ATOM      2  C   UNL     1       2.451   5.762  19.906  0.00  0.00    +0.000 C 
ATOM      3  O   UNL     1       1.479   5.199  20.399  0.00  0.00    +0.000 OA
ATOM      4  H   UNL     1       3.453   7.397  19.258  0.00  0.00    +0.000 HD
ENDROOT
BRANCH   1  11
ATOM      5  C   UNL     1      -1.666  12.027  21.206  0.00  0.00    +0.000 C 
ATOM      6  N   UNL     1      -0.883  10.939  21.731  0.00  0.00    +0.000 N 
ATOM      7  C   UNL     1      -0.874  10.533  23.035  0.00  0.00    +0.000 A 
ATOM      8  N   UNL     1      -0.075   9.508  23.216  0.00  0.00    +0.000 NA
ATOM      9  C   UNL     1       0.449   9.237  21.975  0.00  0.00    +0.000 A 
ATOM     10  C   UNL     1       1.348   8.231  21.591  0.00  0.00    +0.000 A 
ATOM     11  C   UNL     1       1.755   8.138  20.254  0.00  0.00    +0.000 A 
ATOM     12  C   UNL     1       1.280   9.073  19.322  0.00  0.00    +0.000 A 
ATOM     13  C   UNL     1       0.368  10.082  19.681  0.00  0.00    +0.000 A 
ATOM     14  C   UNL     1      -0.030  10.131  21.022  0.00  0.00    +0.000 A 
ENDBRANCH   1  11
BRANCH   2  15
ATOM     15  C   UNL     1       3.544   4.985  19.303  0.00  0.00    +0.000 A 
ATOM     16  N   UNL     1       4.026   3.834  19.849  0.00  0.00    +0.000 NA
ATOM     17  N   UNL     1       5.025   3.450  19.007  0.00  0.00    +0.000 N 
ATOM     18  C   UNL     1       5.189   4.320  17.993  0.00  0.00    +0.000 A 
ATOM     19  C   UNL     1       4.262   5.302  18.140  0.00  0.00    +0.000 A 
ATOM     20  C   UNL     1       4.365   6.332  17.096  0.00  0.00    +0.000 C 
ATOM     21  C   UNL     1       5.572   5.813  16.228  0.00  0.00    +0.000 C 
ATOM     22  C   UNL     1       6.101   4.472  16.855  0.00  0.00    +0.000 C 
ATOM     23  H   UNL     1       5.540   2.600  19.216  0.00  0.00    +0.000 HD
ENDBRANCH   2  15
TORSDOF 2
ENDMDL
MODEL 6
REMARK VINA RESULT:      -7.3      5.045      5.833
REMARK  Name = 
REMARK  3 active torsions:
REMARK  status: ('A' for Active; 'I' for Inactive)
REMARK    1  A    between atoms: C_1  and  N_2
REMARK    2  A    between atoms: C_7  and  N_8
REMARK    3  A    between atoms: C_9  and  C_11
REMARK                            x       y       z     vdW  Elec       q    Type
REMARK                         _______ _______ _______ _____ _____    ______ ____
ROOT
ATOM      1  N   UNL     1       3.011   6.697  18.401  0.00  0.00    +0.000 N 
ATOM      2  C   UNL     1       2.553   5.464  17.962  0.00  0.00    +0.000 C 
ATOM      3  O   UNL     1       1.382   5.095  17.936  0.00  0.00    +0.000 OA
ATOM      4  H   UNL     1       4.003   6.848  18.237  0.00  0.00    +0.000 HD
ENDROOT
BRANCH   1  11
ATOM      5  C   UNL     1      -0.820  11.868  20.135  0.00  0.00    +0.000 C 
ATOM      6  N   UNL     1      -0.137  10.684  20.587  0.00  0.00    +0.000 N 
ATOM      7  C   UNL     1      -0.158  10.202  21.865  0.00  0.00    +0.000 A 
ATOM      8  N   UNL     1       0.544   9.100  21.978  0.00  0.00    +0.000 NA
ATOM      9  C   UNL     1       1.036   8.858  20.718  0.00  0.00    +0.000 A 
ATOM     10  C   UNL     1       1.838   7.798  20.267  0.00  0.00    +0.000 A 
ATOM     11  C   UNL     1       2.230   7.748  18.924  0.00  0.00    +0.000 A 
ATOM     12  C   UNL     1       1.838   8.776  18.052  0.00  0.00    +0.000 A 
ATOM     13  C   UNL     1       1.022   9.840  18.479  0.00  0.00    +0.000 A 
ATOM     14  C   UNL     1       0.636   9.845  19.824  0.00  0.00    +0.000 A 
ENDBRANCH   1  11
BRANCH   2  15
ATOM     15  C   UNL     1       3.625   4.598  17.448  0.00  0.00    +0.000 A 
ATOM     16  N   UNL     1       3.769   3.295  17.817  0.00  0.00    +0.000 NA
ATOM     17  N   UNL     1       4.872   2.870  17.142  0.00  0.00    +0.000 N 
ATOM     18  C   UNL     1       5.416   3.853  16.400  0.00  0.00    +0.000 A 
ATOM     19  C   UNL     1       4.648   4.961  16.560  0.00  0.00    +0.000 A 
ATOM     20  C   UNL     1       5.167   6.116  15.811  0.00  0.00    +0.000 C 
ATOM     21  C   UNL     1       6.453   5.523  15.125  0.00  0.00    +0.000 C 
ATOM     22  C   UNL     1       6.593   4.014  15.541  0.00  0.00    +0.000 C 
ATOM     23  H   UNL     1       5.180   1.909  17.263  0.00  0.00    +0.000 HD
ENDBRANCH   2  15
TORSDOF 2
ENDMDL
MODEL 7
REMARK VINA RESULT:      -7.3      3.806      3.915
REMARK  Name = 
REMARK  3 active torsions:
REMARK  status: ('A' for Active; 'I' for Inactive)
REMARK    1  A    between atoms: C_1  and  N_2
REMARK    2  A    between atoms: C_7  and  N_8
REMARK    3  A    between atoms: C_9  and  C_11
REMARK                            x       y       z     vdW  Elec       q    Type
REMARK                         _______ _______ _______ _____ _____    ______ ____
ROOT
ATOM      1  N   UNL     1       4.652   6.623  16.781  0.00  0.00    +0.000 N 
ATOM      2  C   UNL     1       4.835   5.306  16.385  0.00  0.00    +0.000 C 
ATOM      3  O   UNL     1       4.168   4.342  16.748  0.00  0.00    +0.000 OA
ATOM      4  H   UNL     1       5.237   7.287  16.282  0.00  0.00    +0.000 HD
ENDROOT
BRANCH   1  11
ATOM      5  C   UNL     1       0.365   8.351  21.583  0.00  0.00    +0.000 C 
ATOM      6  N   UNL     1       0.922   8.694  20.300  0.00  0.00    +0.000 N 
ATOM      7  C   UNL     1       0.612   9.813  19.581  0.00  0.00    +0.000 A 
ATOM      8  N   UNL     1       1.286   9.867  18.456  0.00  0.00    +0.000 NA
ATOM      9  C   UNL     1       2.067   8.736  18.451  0.00  0.00    +0.000 A 
ATOM     10  C   UNL     1       2.994   8.301  17.492  0.00  0.00    +0.000 A 
ATOM     11  C   UNL     1       3.687   7.101  17.691  0.00  0.00    +0.000 A 
ATOM     12  C   UNL     1       3.423   6.334  18.837  0.00  0.00    +0.000 A 
ATOM     13  C   UNL     1       2.508   6.756  19.818  0.00  0.00    +0.000 A 
ATOM     14  C   UNL     1       1.849   7.970  19.592  0.00  0.00    +0.000 A 
ENDBRANCH   1  11
BRANCH   2  15
ATOM     15  C   UNL     1       5.915   5.144  15.400  0.00  0.00    +0.000 A 
ATOM     16  N   UNL     1       7.140   5.722  15.538  0.00  0.00    +0.000 NA
ATOM     17  N   UNL     1       7.823   5.344  14.422  0.00  0.00    +0.000 N 
ATOM     18  C   UNL     1       7.067   4.587  13.604  0.00  0.00    +0.000 A 
ATOM     19  C   UNL     1       5.855   4.430  14.193  0.00  0.00    +0.000 A 
ATOM     20  C   UNL     1       4.929   3.636  13.371  0.00  0.00    +0.000 C 
ATOM     21  C   UNL     1       5.802   3.309  12.102  0.00  0.00    +0.000 C 
ATOM     22  C   UNL     1       7.221   3.960  12.288  0.00  0.00    +0.000 C 
ATOM     23  H   UNL     1       8.780   5.662  14.303  0.00  0.00    +0.000 HD
ENDBRANCH   2  15
TORSDOF 2
ENDMDL
MODEL 8
REMARK VINA RESULT:      -7.1      5.966      7.352
REMARK  Name = 
REMARK  3 active torsions:
REMARK  status: ('A' for Active; 'I' for Inactive)
REMARK    1  A    between atoms: C_1  and  N_2
REMARK    2  A    between atoms: C_7  and  N_8
REMARK    3  A    between atoms: C_9  and  C_11
REMARK                            x       y       z     vdW  Elec       q    Type
REMARK                         _______ _______ _______ _____ _____    ______ ____
ROOT
ATOM      1  N   UNL     1       2.235   7.441  19.945  0.00  0.00    +0.000 N 
ATOM      2  C   UNL     1       2.055   6.096  20.232  0.00  0.00    +0.000 C 
ATOM      3  O   UNL     1       1.138   5.613  20.889  0.00  0.00    +0.000 OA
ATOM      4  H   UNL     1       2.994   7.624  19.294  0.00  0.00    +0.000 HD
ENDROOT
BRANCH   1  11
ATOM      5  C   UNL     1      -1.796  12.594  21.215  0.00  0.00    +0.000 C 
ATOM      6  N   UNL     1      -1.032  11.511  21.776  0.00  0.00    +0.000 N 
ATOM      7  C   UNL     1      -0.975  11.191  23.103  0.00  0.00    +0.000 A 
ATOM      8  N   UNL     1      -0.209  10.147  23.316  0.00  0.00    +0.000 NA
ATOM      9  C   UNL     1       0.243   9.774  22.073  0.00  0.00    +0.000 A 
ATOM     10  C   UNL     1       1.082   8.708  21.717  0.00  0.00    +0.000 A 
ATOM     11  C   UNL     1       1.420   8.510  20.373  0.00  0.00    +0.000 A 
ATOM     12  C   UNL     1       0.938   9.401  19.402  0.00  0.00    +0.000 A 
ATOM     13  C   UNL     1       0.084  10.469  19.734  0.00  0.00    +0.000 A 
ATOM     14  C   UNL     1      -0.246  10.622  21.085  0.00  0.00    +0.000 A 
ENDBRANCH   1  11
BRANCH   2  15
ATOM     15  C   UNL     1       3.070   5.232  19.611  0.00  0.00    +0.000 A 
ATOM     16  N   UNL     1       4.400   5.524  19.618  0.00  0.00    +0.000 NA
ATOM     17  N   UNL     1       4.978   4.498  18.934  0.00  0.00    +0.000 N 
ATOM     18  C   UNL     1       4.065   3.612  18.494  0.00  0.00    +0.000 A 
ATOM     19  C   UNL     1       2.845   4.037  18.911  0.00  0.00    +0.000 A 
ATOM     20  C   UNL     1       1.759   3.153  18.461  0.00  0.00    +0.000 C 
ATOM     21  C   UNL     1       2.535   2.052  17.648  0.00  0.00    +0.000 C 
ATOM     22  C   UNL     1       4.070   2.388  17.686  0.00  0.00    +0.000 C 
ATOM     23  H   UNL     1       5.986   4.500  18.809  0.00  0.00    +0.000 HD
ENDBRANCH   2  15
TORSDOF 2
ENDMDL
MODEL 9
REMARK VINA RESULT:      -7.1      5.559      6.485
REMARK  Name = 
REMARK  3 active torsions:
REMARK  status: ('A' for Active; 'I' for Inactive)
REMARK    1  A    between atoms: C_1  and  N_2
REMARK    2  A    between atoms: C_7  and  N_8
REMARK    3  A    between atoms: C_9  and  C_11
REMARK                            x       y       z     vdW  Elec       q    Type
REMARK                         _______ _______ _______ _____ _____    ______ ____
ROOT
ATOM      1  N   UNL     1       2.953   7.054  19.603  0.00  0.00    +0.000 N 
ATOM      2  C   UNL     1       2.746   5.801  19.045  0.00  0.00    +0.000 C 
ATOM      3  O   UNL     1       1.667   5.340  18.684  0.00  0.00    +0.000 OA
ATOM      4  H   UNL     1       3.934   7.290  19.730  0.00  0.00    +0.000 HD
ENDROOT
BRANCH   1  11
ATOM      5  C   UNL     1      -1.576  11.472  21.698  0.00  0.00    +0.000 C 
ATOM      6  N   UNL     1      -0.820  10.978  20.576  0.00  0.00    +0.000 N 
ATOM      7  C   UNL     1      -0.865  11.490  19.310  0.00  0.00    +0.000 A 
ATOM      8  N   UNL     1      -0.058  10.845  18.500  0.00  0.00    +0.000 NA
ATOM      9  C   UNL     1       0.536   9.880  19.278  0.00  0.00    +0.000 A 
ATOM     10  C   UNL     1       1.496   8.921  18.923  0.00  0.00    +0.000 A 
ATOM     11  C   UNL     1       1.969   8.023  19.887  0.00  0.00    +0.000 A 
ATOM     12  C   UNL     1       1.452   8.076  21.191  0.00  0.00    +0.000 A 
ATOM     13  C   UNL     1       0.499   9.037  21.574  0.00  0.00    +0.000 A 
ATOM     14  C   UNL     1       0.065   9.930  20.586  0.00  0.00    +0.000 A 
ENDBRANCH   1  11
BRANCH   2  15
ATOM     15  C   UNL     1       3.990   5.041  18.854  0.00  0.00    +0.000 A 
ATOM     16  N   UNL     1       4.195   3.805  19.390  0.00  0.00    +0.000 NA
ATOM     17  N   UNL     1       5.455   3.469  18.998  0.00  0.00    +0.000 N 
ATOM     18  C   UNL     1       6.032   4.445  18.272  0.00  0.00    +0.000 A 
ATOM     19  C   UNL     1       5.131   5.454  18.151  0.00  0.00    +0.000 A 
ATOM     20  C   UNL     1       5.666   6.596  17.394  0.00  0.00    +0.000 C 
ATOM     21  C   UNL     1       7.125   6.117  17.047  0.00  0.00    +0.000 C 
ATOM     22  C   UNL     1       7.338   4.681  17.650  0.00  0.00    +0.000 C 
ATOM     23  H   UNL     1       5.833   2.571  19.286  0.00  0.00    +0.000 HD
ENDBRANCH   2  15
TORSDOF 2
ENDMDL
