MODEL 1
REMARK VINA RESULT:      -8.4      0.000      0.000
REMARK  Name = 
REMARK  7 active torsions:
REMARK  status: ('A' for Active; 'I' for Inactive)
REMARK    1  A    between atoms: C_1  and  C_2
REMARK    2  A    between atoms: C_5  and  N_6
REMARK    3  A    between atoms: C_8  and  C_9
REMARK    4  A    between atoms: C_15  and  S_16
REMARK    5  A    between atoms: S_16  and  C_17
REMARK    6  A    between atoms: C_17  and  C_18
REMARK    7  A    between atoms: C_26  and  C_27
REMARK                            x       y       z     vdW  Elec       q    Type
REMARK                         _______ _______ _______ _____ _____    ______ ____
ROOT
ATOM      1  C   UNL     1       5.022   3.917  17.886  0.00  0.00    +0.000 C 
ATOM      2  O   UNL     1       4.486   3.010  17.250  0.00  0.00    +0.000 OA
ATOM      3  N   UNL     1       5.986   4.770  17.400  0.00  0.00    +0.000 N 
ATOM      4  C   UNL     1       6.436   4.812  16.098  0.00  0.00    +0.000 A 
ATOM      5  N   UNL     1       7.535   5.446  15.746  0.00  0.00    +0.000 NA
ATOM      6  N   UNL     1       7.787   5.329  14.390  0.00  0.00    +0.000 NA
ATOM      7  C   UNL     1       6.840   4.660  13.771  0.00  0.00    +0.000 A 
ATOM      8  S   UNL     1       5.580   4.120  14.792  0.00  0.00    +0.000 S 
ATOM      9  H   UNL     1       6.560   5.316  18.034  0.00  0.00    +0.000 HD
ENDROOT
BRANCH   1  12
ATOM     10  N   UNL     1       2.939   5.715  19.468  0.00  0.00    +0.000 N 
ATOM     11  C   UNL     1       4.358   5.562  19.688  0.00  0.00    +0.000 C 
ATOM     12  C   UNL     1       4.621   4.114  19.349  0.00  0.00    +0.000 C 
ATOM     13  C   UNL     1       3.328   3.403  19.707  0.00  0.00    +0.000 C 
ATOM     14  C   UNL     1       2.281   4.477  19.536  0.00  0.00    +0.000 C 
ATOM     15  O   UNL     1       1.087   4.231  19.475  0.00  0.00    +0.000 OA
BRANCH  10  20
ATOM     16  C   UNL     1       0.592  10.930  18.825  0.00  0.00    +0.000 C 
ATOM     17  C   UNL     1       1.173   9.559  19.019  0.00  0.00    +0.000 A 
ATOM     18  C   UNL     1       1.766   8.908  17.931  0.00  0.00    +0.000 A 
ATOM     19  C   UNL     1       2.331   7.639  18.073  0.00  0.00    +0.000 A 
ATOM     20  C   UNL     1       2.323   6.982  19.305  0.00  0.00    +0.000 A 
ATOM     21  C   UNL     1       1.722   7.635  20.393  0.00  0.00    +0.000 A 
ATOM     22  C   UNL     1       1.151   8.915  20.268  0.00  0.00    +0.000 A 
ATOM     23  C   UNL     1       0.540   9.571  21.476  0.00  0.00    +0.000 C 
ENDBRANCH  10  20
ENDBRANCH   1  12
BRANCH   7  24
ATOM     24  S   UNL     1       6.952   4.321  12.060  0.00  0.00    +0.000 S 
BRANCH  24  25
ATOM     25  C   UNL     1       5.743   2.984  11.866  0.00  0.00    +0.000 C 
BRANCH  25  26
ATOM     26  C   UNL     1       6.339   1.684  11.359  0.00  0.00    +0.000 C 
ATOM     27  N   UNL     1       7.686   1.644  11.152  0.00  0.00    +0.000 N 
ATOM     28  O   UNL     1       5.664   0.666  11.220  0.00  0.00    +0.000 OA
ATOM     29  H   UNL     1       8.242   2.490  11.095  0.00  0.00    +0.000 HD
ATOM     30  H   UNL     1       8.071   0.798  10.753  0.00  0.00    +0.000 HD
ENDBRANCH  25  26
ENDBRANCH  24  25
ENDBRANCH   7  24
TORSDOF 5
ENDMDL
MODEL 2
REMARK VINA RESULT:      -8.0      0.942      1.533
REMARK  Name = 
REMARK  7 active torsions:
REMARK  status: ('A' for Active; 'I' for Inactive)
REMARK    1  A    between atoms: C_1  and  C_2
REMARK    2  A    between atoms: C_5  and  N_6
REMARK    3  A    between atoms: C_8  and  C_9
REMARK    4  A    between atoms: C_15  and  S_16
REMARK    5  A    between atoms: S_16  and  C_17
REMARK    6  A    between atoms: C_17  and  C_18
REMARK    7  A    between atoms: C_26  and  C_27
REMARK                            x       y       z     vdW  Elec       q    Type
REMARK                         _______ _______ _______ _____ _____    ______ ____
ROOT
ATOM      1  C   UNL     1       4.693   3.426  18.081  0.00  0.00    +0.000 C 
ATOM      2  O   UNL     1       4.064   2.721  17.292  0.00  0.00    +0.000 OA
ATOM      3  N   UNL     1       5.778   4.210  17.760  0.00  0.00    +0.000 N 
ATOM      4  C   UNL     1       6.273   4.411  16.489  0.00  0.00    +0.000 A 
ATOM      5  N   UNL     1       7.456   4.940  16.263  0.00  0.00    +0.000 NA
ATOM      6  N   UNL     1       7.737   5.021  14.910  0.00  0.00    +0.000 NA
ATOM      7  C   UNL     1       6.731   4.601  14.175  0.00  0.00    +0.000 A 
ATOM      8  S   UNL     1       5.378   4.072  15.075  0.00  0.00    +0.000 S 
ATOM      9  H   UNL     1       6.397   4.558  18.485  0.00  0.00    +0.000 HD
ENDROOT
BRANCH   1  12
ATOM     10  N   UNL     1       2.724   5.125  19.902  0.00  0.00    +0.000 N 
ATOM     11  C   UNL     1       4.120   4.819  20.112  0.00  0.00    +0.000 C 
ATOM     12  C   UNL     1       4.273   3.425  19.552  0.00  0.00    +0.000 C 
ATOM     13  C   UNL     1       2.917   2.780  19.777  0.00  0.00    +0.000 C 
ATOM     14  C   UNL     1       1.966   3.952  19.765  0.00  0.00    +0.000 C 
ATOM     15  O   UNL     1       0.758   3.820  19.651  0.00  0.00    +0.000 OA
BRANCH  10  20
ATOM     16  C   UNL     1       0.519  10.440  19.976  0.00  0.00    +0.000 C 
ATOM     17  C   UNL     1       1.128   9.068  19.937  0.00  0.00    +0.000 A 
ATOM     18  C   UNL     1       0.970   8.218  21.037  0.00  0.00    +0.000 A 
ATOM     19  C   UNL     1       1.508   6.929  21.033  0.00  0.00    +0.000 A 
ATOM     20  C   UNL     1       2.218   6.449  19.932  0.00  0.00    +0.000 A 
ATOM     21  C   UNL     1       2.380   7.307  18.832  0.00  0.00    +0.000 A 
ATOM     22  C   UNL     1       1.842   8.606  18.817  0.00  0.00    +0.000 A 
ATOM     23  C   UNL     1       2.032   9.470  17.600  0.00  0.00    +0.000 C 
ENDBRANCH  10  20
ENDBRANCH   1  12
BRANCH   7  24
ATOM     24  S   UNL     1       6.855   4.544  12.432  0.00  0.00    +0.000 S 
BRANCH  24  25
ATOM     25  C   UNL     1       5.830   3.103  12.033  0.00  0.00    +0.000 C 
BRANCH  25  26
ATOM     26  C   UNL     1       6.611   1.930  11.469  0.00  0.00    +0.000 C 
ATOM     27  N   UNL     1       5.974   0.728  11.385  0.00  0.00    +0.000 N 
ATOM     28  O   UNL     1       7.746   2.059  11.016  0.00  0.00    +0.000 OA
ATOM     29  H   UNL     1       5.114   0.544  11.890  0.00  0.00    +0.000 HD
ATOM     30  H   UNL     1       6.517  -0.066  11.070  0.00  0.00    +0.000 HD
ENDBRANCH  25  26
ENDBRANCH  24  25
ENDBRANCH   7  24
TORSDOF 5
ENDMDL
MODEL 3
REMARK VINA RESULT:      -7.9      4.071      8.989
REMARK  Name = 
REMARK  7 active torsions:
REMARK  status: ('A' for Active; 'I' for Inactive)
REMARK    1  A    between atoms: C_1  and  C_2
REMARK    2  A    between atoms: C_5  and  N_6
REMARK    3  A    between atoms: C_8  and  C_9
REMARK    4  A    between atoms: C_15  and  S_16
REMARK    5  A    between atoms: S_16  and  C_17
REMARK    6  A    between atoms: C_17  and  C_18
REMARK    7  A    between atoms: C_26  and  C_27
REMARK                            x       y       z     vdW  Elec       q    Type
REMARK                         _______ _______ _______ _____ _____    ______ ____
ROOT
ATOM      1  C   UNL     1       2.278   6.591  19.208  0.00  0.00    +0.000 C 
ATOM      2  O   UNL     1       2.473   7.302  18.222  0.00  0.00    +0.000 OA
ATOM      3  N   UNL     1       1.856   7.034  20.441  0.00  0.00    +0.000 N 
ATOM      4  C   UNL     1       1.489   8.327  20.744  0.00  0.00    +0.000 A 
ATOM      5  N   UNL     1       1.356   8.757  21.981  0.00  0.00    +0.000 NA
ATOM      6  N   UNL     1       0.999  10.093  22.029  0.00  0.00    +0.000 NA
ATOM      7  C   UNL     1       0.823  10.597  20.827  0.00  0.00    +0.000 A 
ATOM      8  S   UNL     1       1.087   9.486  19.555  0.00  0.00    +0.000 S 
ATOM      9  H   UNL     1       1.961   6.450  21.263  0.00  0.00    +0.000 HD
ENDROOT
BRANCH   1  12
ATOM     10  N   UNL     1       4.486   4.766  17.841  0.00  0.00    +0.000 N 
ATOM     11  C   UNL     1       3.049   4.700  17.716  0.00  0.00    +0.000 C 
ATOM     12  C   UNL     1       2.549   5.090  19.086  0.00  0.00    +0.000 C 
ATOM     13  C   UNL     1       3.635   4.609  20.033  0.00  0.00    +0.000 C 
ATOM     14  C   UNL     1       4.882   4.650  19.183  0.00  0.00    +0.000 C 
ATOM     15  O   UNL     1       6.005   4.587  19.656  0.00  0.00    +0.000 OA
BRANCH  10  20
ATOM     16  C   UNL     1       7.911   5.219  13.238  0.00  0.00    +0.000 C 
ATOM     17  C   UNL     1       7.011   5.061  14.430  0.00  0.00    +0.000 A 
ATOM     18  C   UNL     1       7.323   5.734  15.616  0.00  0.00    +0.000 A 
ATOM     19  C   UNL     1       6.503   5.625  16.742  0.00  0.00    +0.000 A 
ATOM     20  C   UNL     1       5.349   4.841  16.718  0.00  0.00    +0.000 A 
ATOM     21  C   UNL     1       5.042   4.162  15.528  0.00  0.00    +0.000 A 
ATOM     22  C   UNL     1       5.854   4.263  14.384  0.00  0.00    +0.000 A 
ATOM     23  C   UNL     1       5.462   3.526  13.132  0.00  0.00    +0.000 C 
ENDBRANCH  10  20
ENDBRANCH   1  12
BRANCH   7  24
ATOM     24  S   UNL     1       0.426  12.286  20.611  0.00  0.00    +0.000 S 
BRANCH  24  25
ATOM     25  C   UNL     1       0.181  12.383  18.818  0.00  0.00    +0.000 C 
BRANCH  25  26
ATOM     26  C   UNL     1      -1.271  12.277  18.389  0.00  0.00    +0.000 C 
ATOM     27  N   UNL     1      -1.530  12.161  17.055  0.00  0.00    +0.000 N 
ATOM     28  O   UNL     1      -2.189  12.205  19.203  0.00  0.00    +0.000 OA
ATOM     29  H   UNL     1      -0.830  12.380  16.355  0.00  0.00    +0.000 HD
ATOM     30  H   UNL     1      -2.500  12.156  16.768  0.00  0.00    +0.000 HD
ENDBRANCH  25  26
ENDBRANCH  24  25
ENDBRANCH   7  24
TORSDOF 5
ENDMDL
MODEL 4
REMARK VINA RESULT:      -7.7      3.755      8.282
REMARK  Name = 
REMARK  7 active torsions:
REMARK  status: ('A' for Active; 'I' for Inactive)
REMARK    1  A    between atoms: C_1  and  C_2
REMARK    2  A    between atoms: C_5  and  N_6
REMARK    3  A    between atoms: C_8  and  C_9
REMARK    4  A    between atoms: C_15  and  S_16
REMARK    5  A    between atoms: S_16  and  C_17
REMARK    6  A    between atoms: C_17  and  C_18
REMARK    7  A    between atoms: C_26  and  C_27
REMARK                            x       y       z     vdW  Elec       q    Type
REMARK                         _______ _______ _______ _____ _____    ______ ____
ROOT
ATOM      1  C   UNL     1       2.127   5.264  19.084  0.00  0.00    +0.000 C 
ATOM      2  O   UNL     1       1.342   5.442  20.016  0.00  0.00    +0.000 OA
ATOM      3  N   UNL     1       2.545   6.229  18.197  0.00  0.00    +0.000 N 
ATOM      4  C   UNL     1       2.234   7.570  18.268  0.00  0.00    +0.000 A 
ATOM      5  N   UNL     1       2.427   8.398  17.263  0.00  0.00    +0.000 NA
ATOM      6  N   UNL     1       2.020   9.685  17.569  0.00  0.00    +0.000 NA
ATOM      7  C   UNL     1       1.590   9.783  18.807  0.00  0.00    +0.000 A 
ATOM      8  S   UNL     1       1.643   8.317  19.685  0.00  0.00    +0.000 S 
ATOM      9  H   UNL     1       2.979   5.970  17.318  0.00  0.00    +0.000 HD
ENDROOT
BRANCH   1  12
ATOM     10  N   UNL     1       4.629   3.990  17.603  0.00  0.00    +0.000 N 
ATOM     11  C   UNL     1       3.228   3.667  17.461  0.00  0.00    +0.000 C 
ATOM     12  C   UNL     1       2.672   3.853  18.853  0.00  0.00    +0.000 C 
ATOM     13  C   UNL     1       3.834   3.513  19.769  0.00  0.00    +0.000 C 
ATOM     14  C   UNL     1       5.047   3.849  18.935  0.00  0.00    +0.000 C 
ATOM     15  O   UNL     1       6.164   3.962  19.412  0.00  0.00    +0.000 OA
BRANCH  10  20
ATOM     16  C   UNL     1       7.889   5.427  13.083  0.00  0.00    +0.000 C 
ATOM     17  C   UNL     1       7.038   5.013  14.249  0.00  0.00    +0.000 A 
ATOM     18  C   UNL     1       7.281   5.574  15.507  0.00  0.00    +0.000 A 
ATOM     19  C   UNL     1       6.501   5.227  16.613  0.00  0.00    +0.000 A 
ATOM     20  C   UNL     1       5.456   4.310  16.496  0.00  0.00    +0.000 A 
ATOM     21  C   UNL     1       5.218   3.743  15.233  0.00  0.00    +0.000 A 
ATOM     22  C   UNL     1       5.991   4.084  14.109  0.00  0.00    +0.000 A 
ATOM     23  C   UNL     1       5.675   3.457  12.778  0.00  0.00    +0.000 C 
ENDBRANCH  10  20
ENDBRANCH   1  12
BRANCH   7  24
ATOM     24  S   UNL     1       0.961  11.293  19.423  0.00  0.00    +0.000 S 
BRANCH  24  25
ATOM     25  C   UNL     1      -0.827  10.997  19.379  0.00  0.00    +0.000 C 
BRANCH  25  26
ATOM     26  C   UNL     1      -1.420  11.020  17.983  0.00  0.00    +0.000 C 
ATOM     27  N   UNL     1      -1.550  12.230  17.369  0.00  0.00    +0.000 N 
ATOM     28  O   UNL     1      -1.697   9.989  17.374  0.00  0.00    +0.000 OA
ATOM     29  H   UNL     1      -1.491  13.100  17.888  0.00  0.00    +0.000 HD
ATOM     30  H   UNL     1      -2.005  12.249  16.466  0.00  0.00    +0.000 HD
ENDBRANCH  25  26
ENDBRANCH  24  25
ENDBRANCH   7  24
TORSDOF 5
ENDMDL
MODEL 5
REMARK VINA RESULT:      -7.6      4.215      8.911
REMARK  Name = 
REMARK  7 active torsions:
REMARK  status: ('A' for Active; 'I' for Inactive)
REMARK    1  A    between atoms: C_1  and  C_2
REMARK    2  A    between atoms: C_5  and  N_6
REMARK    3  A    between atoms: C_8  and  C_9
REMARK    4  A    between atoms: C_15  and  S_16
REMARK    5  A    between atoms: S_16  and  C_17
REMARK    6  A    between atoms: C_17  and  C_18
REMARK    7  A    between atoms: C_26  and  C_27
REMARK                            x       y       z     vdW  Elec       q    Type
REMARK                         _______ _______ _______ _____ _____    ______ ____
ROOT
ATOM      1  C   UNL     1       2.277   6.654  19.150  0.00  0.00    +0.000 C 
ATOM      2  O   UNL     1       2.443   7.326  18.132  0.00  0.00    +0.000 OA
ATOM      3  N   UNL     1       1.885   7.145  20.375  0.00  0.00    +0.000 N 
ATOM      4  C   UNL     1       1.520   8.448  20.636  0.00  0.00    +0.000 A 
ATOM      5  N   UNL     1       1.417   8.926  21.858  0.00  0.00    +0.000 NA
ATOM      6  N   UNL     1       1.055  10.262  21.861  0.00  0.00    +0.000 NA
ATOM      7  C   UNL     1       0.846  10.717  20.646  0.00  0.00    +0.000 A 
ATOM      8  S   UNL     1       1.082   9.557  19.413  0.00  0.00    +0.000 S 
ATOM      9  H   UNL     1       2.013   6.594  21.218  0.00  0.00    +0.000 HD
ENDROOT
BRANCH   1  12
ATOM     10  N   UNL     1       4.483   4.787  17.838  0.00  0.00    +0.000 N 
ATOM     11  C   UNL     1       3.045   4.713  17.723  0.00  0.00    +0.000 C 
ATOM     12  C   UNL     1       2.552   5.151  19.082  0.00  0.00    +0.000 C 
ATOM     13  C   UNL     1       3.645   4.708  20.039  0.00  0.00    +0.000 C 
ATOM     14  C   UNL     1       4.887   4.721  19.181  0.00  0.00    +0.000 C 
ATOM     15  O   UNL     1       6.013   4.679  19.648  0.00  0.00    +0.000 OA
BRANCH  10  20
ATOM     16  C   UNL     1       7.890   5.091  13.210  0.00  0.00    +0.000 C 
ATOM     17  C   UNL     1       6.992   4.972  14.407  0.00  0.00    +0.000 A 
ATOM     18  C   UNL     1       7.366   5.590  15.606  0.00  0.00    +0.000 A 
ATOM     19  C   UNL     1       6.550   5.516  16.738  0.00  0.00    +0.000 A 
ATOM     20  C   UNL     1       5.339   4.824  16.708  0.00  0.00    +0.000 A 
ATOM     21  C   UNL     1       4.970   4.200  15.505  0.00  0.00    +0.000 A 
ATOM     22  C   UNL     1       5.777   4.267  14.355  0.00  0.00    +0.000 A 
ATOM     23  C   UNL     1       5.317   3.594  13.090  0.00  0.00    +0.000 C 
ENDBRANCH  10  20
ENDBRANCH   1  12
BRANCH   7  24
ATOM     24  S   UNL     1       0.436  12.394  20.373  0.00  0.00    +0.000 S 
BRANCH  24  25
ATOM     25  C   UNL     1       2.065  13.133  20.082  0.00  0.00    +0.000 C 
BRANCH  25  26
ATOM     26  C   UNL     1       2.306  13.546  18.642  0.00  0.00    +0.000 C 
ATOM     27  N   UNL     1       2.400  12.558  17.708  0.00  0.00    +0.000 N 
ATOM     28  O   UNL     1       2.328  14.725  18.296  0.00  0.00    +0.000 OA
ATOM     29  H   UNL     1       2.551  11.590  17.969  0.00  0.00    +0.000 HD
ATOM     30  H   UNL     1       2.625  12.832  16.760  0.00  0.00    +0.000 HD
ENDBRANCH  25  26
ENDBRANCH  24  25
ENDBRANCH   7  24
TORSDOF 5
ENDMDL
MODEL 6
REMARK VINA RESULT:      -7.6      4.564      7.109
REMARK  Name = 
REMARK  7 active torsions:
REMARK  status: ('A' for Active; 'I' for Inactive)
REMARK    1  A    between atoms: C_1  and  C_2
REMARK    2  A    between atoms: C_5  and  N_6
REMARK    3  A    between atoms: C_8  and  C_9
REMARK    4  A    between atoms: C_15  and  S_16
REMARK    5  A    between atoms: S_16  and  C_17
REMARK    6  A    between atoms: C_17  and  C_18
REMARK    7  A    between atoms: C_26  and  C_27
REMARK                            x       y       z     vdW  Elec       q    Type
REMARK                         _______ _______ _______ _____ _____    ______ ____
ROOT
ATOM      1  C   UNL     1       1.833   8.900  18.496  0.00  0.00    +0.000 C 
ATOM      2  O   UNL     1       1.550   8.576  19.650  0.00  0.00    +0.000 OA
ATOM      3  N   UNL     1       2.698   8.223  17.666  0.00  0.00    +0.000 N 
ATOM      4  C   UNL     1       3.308   7.022  17.954  0.00  0.00    +0.000 A 
ATOM      5  N   UNL     1       4.322   6.555  17.257  0.00  0.00    +0.000 NA
ATOM      6  N   UNL     1       4.773   5.343  17.749  0.00  0.00    +0.000 NA
ATOM      7  C   UNL     1       4.047   4.923  18.761  0.00  0.00    +0.000 A 
ATOM      8  S   UNL     1       2.768   5.973  19.190  0.00  0.00    +0.000 S 
ATOM      9  H   UNL     1       3.079   8.672  16.840  0.00  0.00    +0.000 HD
ENDROOT
BRANCH   1  12
ATOM     10  N   UNL     1       0.213  11.372  19.652  0.00  0.00    +0.000 N 
ATOM     11  C   UNL     1      -0.126  10.498  18.554  0.00  0.00    +0.000 C 
ATOM     12  C   UNL     1       1.209  10.175  17.926  0.00  0.00    +0.000 C 
ATOM     13  C   UNL     1       2.053  11.411  18.182  0.00  0.00    +0.000 C 
ATOM     14  C   UNL     1       1.459  11.984  19.446  0.00  0.00    +0.000 C 
ATOM     15  O   UNL     1       2.027  12.830  20.116  0.00  0.00    +0.000 OA
BRANCH  10  20
ATOM     16  C   UNL     1      -3.463  12.243  23.994  0.00  0.00    +0.000 C 
ATOM     17  C   UNL     1      -2.509  12.056  22.850  0.00  0.00    +0.000 A 
ATOM     18  C   UNL     1      -1.386  11.239  23.024  0.00  0.00    +0.000 A 
ATOM     19  C   UNL     1      -0.483  11.027  21.979  0.00  0.00    +0.000 A 
ATOM     20  C   UNL     1      -0.673  11.623  20.732  0.00  0.00    +0.000 A 
ATOM     21  C   UNL     1      -1.797  12.447  20.563  0.00  0.00    +0.000 A 
ATOM     22  C   UNL     1      -2.719  12.669  21.603  0.00  0.00    +0.000 A 
ATOM     23  C   UNL     1      -3.915  13.547  21.354  0.00  0.00    +0.000 C 
ENDBRANCH  10  20
ENDBRANCH   1  12
BRANCH   7  24
ATOM     24  S   UNL     1       4.448   3.444  19.602  0.00  0.00    +0.000 S 
BRANCH  24  25
ATOM     25  C   UNL     1       2.846   2.596  19.648  0.00  0.00    +0.000 C 
BRANCH  25  26
ATOM     26  C   UNL     1       2.106   2.749  20.964  0.00  0.00    +0.000 C 
ATOM     27  N   UNL     1       0.775   3.041  20.912  0.00  0.00    +0.000 N 
ATOM     28  O   UNL     1       2.647   2.535  22.046  0.00  0.00    +0.000 OA
ATOM     29  H   UNL     1       0.337   3.383  20.064  0.00  0.00    +0.000 HD
ATOM     30  H   UNL     1       0.300   3.207  21.789  0.00  0.00    +0.000 HD
ENDBRANCH  25  26
ENDBRANCH  24  25
ENDBRANCH   7  24
TORSDOF 5
ENDMDL
MODEL 7
REMARK VINA RESULT:      -7.5      1.234      1.294
REMARK  Name = 
REMARK  7 active torsions:
REMARK  status: ('A' for Active; 'I' for Inactive)
REMARK    1  A    between atoms: C_1  and  C_2
REMARK    2  A    between atoms: C_5  and  N_6
REMARK    3  A    between atoms: C_8  and  C_9
REMARK    4  A    between atoms: C_15  and  S_16
REMARK    5  A    between atoms: S_16  and  C_17
REMARK    6  A    between atoms: C_17  and  C_18
REMARK    7  A    between atoms: C_26  and  C_27
REMARK                            x       y       z     vdW  Elec       q    Type
REMARK                         _______ _______ _______ _____ _____    ______ ____
ROOT
ATOM      1  C   UNL     1       5.009   3.888  17.860  0.00  0.00    +0.000 C 
ATOM      2  O   UNL     1       4.454   2.959  17.274  0.00  0.00    +0.000 OA
ATOM      3  N   UNL     1       5.956   4.724  17.312  0.00  0.00    +0.000 N 
ATOM      4  C   UNL     1       6.361   4.721  15.995  0.00  0.00    +0.000 A 
ATOM      5  N   UNL     1       7.446   5.342  15.584  0.00  0.00    +0.000 NA
ATOM      6  N   UNL     1       7.652   5.178  14.226  0.00  0.00    +0.000 NA
ATOM      7  C   UNL     1       6.686   4.488  13.662  0.00  0.00    +0.000 A 
ATOM      8  S   UNL     1       5.463   3.983  14.744  0.00  0.00    +0.000 S 
ATOM      9  H   UNL     1       6.550   5.292  17.907  0.00  0.00    +0.000 HD
ENDROOT
BRANCH   1  12
ATOM     10  N   UNL     1       2.983   5.744  19.448  0.00  0.00    +0.000 N 
ATOM     11  C   UNL     1       4.409   5.595  19.626  0.00  0.00    +0.000 C 
ATOM     12  C   UNL     1       4.658   4.136  19.328  0.00  0.00    +0.000 C 
ATOM     13  C   UNL     1       3.377   3.441  19.753  0.00  0.00    +0.000 C 
ATOM     14  C   UNL     1       2.326   4.511  19.580  0.00  0.00    +0.000 C 
ATOM     15  O   UNL     1       1.131   4.266  19.568  0.00  0.00    +0.000 OA
BRANCH  10  20
ATOM     16  C   UNL     1       0.622  10.941  18.713  0.00  0.00    +0.000 C 
ATOM     17  C   UNL     1       1.206   9.575  18.930  0.00  0.00    +0.000 A 
ATOM     18  C   UNL     1       1.810   8.911  17.857  0.00  0.00    +0.000 A 
ATOM     19  C   UNL     1       2.379   7.646  18.022  0.00  0.00    +0.000 A 
ATOM     20  C   UNL     1       2.363   7.006  19.262  0.00  0.00    +0.000 A 
ATOM     21  C   UNL     1       1.752   7.673  20.336  0.00  0.00    +0.000 A 
ATOM     22  C   UNL     1       1.177   8.948  20.189  0.00  0.00    +0.000 A 
ATOM     23  C   UNL     1       0.554   9.620  21.382  0.00  0.00    +0.000 C 
ENDBRANCH  10  20
ENDBRANCH   1  12
BRANCH   7  24
ATOM     24  S   UNL     1       6.741   4.089  11.961  0.00  0.00    +0.000 S 
BRANCH  24  25
ATOM     25  C   UNL     1       5.474   2.798  11.841  0.00  0.00    +0.000 C 
BRANCH  25  26
ATOM     26  C   UNL     1       4.201   3.247  11.148  0.00  0.00    +0.000 C 
ATOM     27  N   UNL     1       3.183   2.346  11.046  0.00  0.00    +0.000 N 
ATOM     28  O   UNL     1       4.040   4.404  10.765  0.00  0.00    +0.000 OA
ATOM     29  H   UNL     1       3.333   1.354  11.196  0.00  0.00    +0.000 HD
ATOM     30  H   UNL     1       2.362   2.627  10.527  0.00  0.00    +0.000 HD
ENDBRANCH  25  26
ENDBRANCH  24  25
ENDBRANCH   7  24
TORSDOF 5
ENDMDL
MODEL 8
REMARK VINA RESULT:      -7.5      4.193      9.570
REMARK  Name = 
REMARK  7 active torsions:
REMARK  status: ('A' for Active; 'I' for Inactive)
REMARK    1  A    between atoms: C_1  and  C_2
REMARK    2  A    between atoms: C_5  and  N_6
REMARK    3  A    between atoms: C_8  and  C_9
REMARK    4  A    between atoms: C_15  and  S_16
REMARK    5  A    between atoms: S_16  and  C_17
REMARK    6  A    between atoms: C_17  and  C_18
REMARK    7  A    between atoms: C_26  and  C_27
REMARK                            x       y       z     vdW  Elec       q    Type
REMARK                         _______ _______ _______ _____ _____    ______ ____
ROOT
ATOM      1  C   UNL     1       2.399   6.493  19.158  0.00  0.00    +0.000 C 
ATOM      2  O   UNL     1       2.634   7.218  18.192  0.00  0.00    +0.000 OA
ATOM      3  N   UNL     1       1.927   6.918  20.379  0.00  0.00    +0.000 N 
ATOM      4  C   UNL     1       1.546   8.207  20.686  0.00  0.00    +0.000 A 
ATOM      5  N   UNL     1       1.363   8.618  21.922  0.00  0.00    +0.000 NA
ATOM      6  N   UNL     1       1.001   9.953  21.975  0.00  0.00    +0.000 NA
ATOM      7  C   UNL     1       0.875  10.475  20.775  0.00  0.00    +0.000 A 
ATOM      8  S   UNL     1       1.192   9.382  19.499  0.00  0.00    +0.000 S 
ATOM      9  H   UNL     1       1.998   6.322  21.197  0.00  0.00    +0.000 HD
ENDROOT
BRANCH   1  12
ATOM     10  N   UNL     1       4.583   4.686  17.729  0.00  0.00    +0.000 N 
ATOM     11  C   UNL     1       3.143   4.611  17.642  0.00  0.00    +0.000 C 
ATOM     12  C   UNL     1       2.677   4.995  19.027  0.00  0.00    +0.000 C 
ATOM     13  C   UNL     1       3.791   4.519  19.942  0.00  0.00    +0.000 C 
ATOM     14  C   UNL     1       5.015   4.570  19.060  0.00  0.00    +0.000 C 
ATOM     15  O   UNL     1       6.150   4.514  19.502  0.00  0.00    +0.000 OA
BRANCH  10  20
ATOM     16  C   UNL     1       7.883   5.174  13.040  0.00  0.00    +0.000 C 
ATOM     17  C   UNL     1       7.015   5.007  14.254  0.00  0.00    +0.000 A 
ATOM     18  C   UNL     1       7.369   5.656  15.442  0.00  0.00    +0.000 A 
ATOM     19  C   UNL     1       6.580   5.538  16.588  0.00  0.00    +0.000 A 
ATOM     20  C   UNL     1       5.415   4.770  16.584  0.00  0.00    +0.000 A 
ATOM     21  C   UNL     1       5.066   4.114  15.392  0.00  0.00    +0.000 A 
ATOM     22  C   UNL     1       5.847   4.225  14.227  0.00  0.00    +0.000 A 
ATOM     23  C   UNL     1       5.410   3.514  12.975  0.00  0.00    +0.000 C 
ENDBRANCH  10  20
ENDBRANCH   1  12
BRANCH   7  24
ATOM     24  S   UNL     1       0.485  12.166  20.567  0.00  0.00    +0.000 S 
BRANCH  24  25
ATOM     25  C   UNL     1      -1.328  12.128  20.536  0.00  0.00    +0.000 C 
BRANCH  25  26
ATOM     26  C   UNL     1      -1.970  12.289  21.901  0.00  0.00    +0.000 C 
ATOM     27  N   UNL     1      -1.159  12.220  22.995  0.00  0.00    +0.000 N 
ATOM     28  O   UNL     1      -3.161  12.562  22.035  0.00  0.00    +0.000 OA
ATOM     29  H   UNL     1      -0.221  11.839  22.939  0.00  0.00    +0.000 HD
ATOM     30  H   UNL     1      -1.599  12.262  23.905  0.00  0.00    +0.000 HD
ENDBRANCH  25  26
ENDBRANCH  24  25
ENDBRANCH   7  24
TORSDOF 5
ENDMDL
MODEL 9
REMARK VINA RESULT:      -7.5      4.481      6.940
REMARK  Name = 
REMARK  7 active torsions:
REMARK  status: ('A' for Active; 'I' for Inactive)
REMARK    1  A    between atoms: C_1  and  C_2
REMARK    2  A    between atoms: C_5  and  N_6
REMARK    3  A    between atoms: C_8  and  C_9
REMARK    4  A    between atoms: C_15  and  S_16
REMARK    5  A    between atoms: S_16  and  C_17
REMARK    6  A    between atoms: C_17  and  C_18
REMARK    7  A    between atoms: C_26  and  C_27
REMARK                            x       y       z     vdW  Elec       q    Type
REMARK                         _______ _______ _______ _____ _____    ______ ____
ROOT
ATOM      1  C   UNL     1       1.642   9.002  18.751  0.00  0.00    +0.000 C 
ATOM      2  O   UNL     1       1.366   8.692  19.910  0.00  0.00    +0.000 OA
ATOM      3  N   UNL     1       2.449   8.281  17.902  0.00  0.00    +0.000 N 
ATOM      4  C   UNL     1       2.998   7.046  18.176  0.00  0.00    +0.000 A 
ATOM      5  N   UNL     1       3.970   6.526  17.456  0.00  0.00    +0.000 NA
ATOM      6  N   UNL     1       4.364   5.290  17.938  0.00  0.00    +0.000 NA
ATOM      7  C   UNL     1       3.637   4.908  18.964  0.00  0.00    +0.000 A 
ATOM      8  S   UNL     1       2.428   6.027  19.421  0.00  0.00    +0.000 S 
ATOM      9  H   UNL     1       2.837   8.709  17.068  0.00  0.00    +0.000 HD
ENDROOT
BRANCH   1  12
ATOM     10  N   UNL     1       0.047  11.487  19.917  0.00  0.00    +0.000 N 
ATOM     11  C   UNL     1      -0.272  10.655  18.781  0.00  0.00    +0.000 C 
ATOM     12  C   UNL     1       1.076  10.311  18.195  0.00  0.00    +0.000 C 
ATOM     13  C   UNL     1       1.945  11.513  18.520  0.00  0.00    +0.000 C 
ATOM     14  C   UNL     1       1.318  12.067  19.777  0.00  0.00    +0.000 C 
ATOM     15  O   UNL     1       1.882  12.877  20.494  0.00  0.00    +0.000 OA
BRANCH  10  20
ATOM     16  C   UNL     1      -3.761  12.333  24.148  0.00  0.00    +0.000 C 
ATOM     17  C   UNL     1      -2.773  12.151  23.032  0.00  0.00    +0.000 A 
ATOM     18  C   UNL     1      -1.623  11.387  23.254  0.00  0.00    +0.000 A 
ATOM     19  C   UNL     1      -0.687  11.182  22.237  0.00  0.00    +0.000 A 
ATOM     20  C   UNL     1      -0.873  11.732  20.968  0.00  0.00    +0.000 A 
ATOM     21  C   UNL     1      -2.025  12.504  20.750  0.00  0.00    +0.000 A 
ATOM     22  C   UNL     1      -2.979  12.717  21.761  0.00  0.00    +0.000 A 
ATOM     23  C   UNL     1      -4.205  13.537  21.460  0.00  0.00    +0.000 C 
ENDBRANCH  10  20
ENDBRANCH   1  12
BRANCH   7  24
ATOM     24  S   UNL     1       3.973   3.407  19.795  0.00  0.00    +0.000 S 
BRANCH  24  25
ATOM     25  C   UNL     1       2.304   2.771  20.104  0.00  0.00    +0.000 C 
BRANCH  25  26
ATOM     26  C   UNL     1       1.600   2.263  18.860  0.00  0.00    +0.000 C 
ATOM     27  N   UNL     1       2.369   1.725  17.872  0.00  0.00    +0.000 N 
ATOM     28  O   UNL     1       0.374   2.245  18.765  0.00  0.00    +0.000 OA
ATOM     29  H   UNL     1       3.372   1.870  17.839  0.00  0.00    +0.000 HD
ATOM     30  H   UNL     1       1.904   1.447  17.017  0.00  0.00    +0.000 HD
ENDBRANCH  25  26
ENDBRANCH  24  25
ENDBRANCH   7  24
TORSDOF 5
ENDMDL
