MODEL 1
REMARK VINA RESULT:      -7.0      0.000      0.000
REMARK  Name = 
REMARK  9 active torsions:
REMARK  status: ('A' for Active; 'I' for Inactive)
REMARK    1  A    between atoms: C_1  and  C_2
REMARK    2  A    between atoms: C_4  and  C_5
REMARK    3  A    between atoms: C_7  and  S_8
REMARK    4  A    between atoms: S_8  and  C_9
REMARK    5  A    between atoms: C_9  and  C_10
REMARK    6  A    between atoms: C_10  and  N_11
REMARK    7  A    between atoms: C_16  and  C_17
REMARK    8  A    between atoms: N_25  and  C_26
REMARK    9  A    between atoms: N_29  and  C_30
REMARK                            x       y       z     vdW  Elec       q    Type
REMARK                         _______ _______ _______ _____ _____    ______ ____
ROOT
ATOM      1  N   UNL     1       0.187  13.723  19.862  0.00  0.00    +0.000 N 
ATOM      2  C   UNL     1      -1.008  14.127  20.464  0.00  0.00    +0.000 A 
ATOM      3  N   UNL     1      -1.865  13.329  21.167  0.00  0.00    +0.000 N 
ATOM      4  C   UNL     1      -3.309  13.577  21.034  0.00  0.00    +0.000 C 
ATOM      5  C   UNL     1      -4.021  13.657  22.388  0.00  0.00    +0.000 C 
ATOM      6  C   UNL     1      -3.658  12.482  23.299  0.00  0.00    +0.000 C 
ATOM      7  C   UNL     1      -4.333  12.596  24.665  0.00  0.00    +0.000 C 
ATOM      8  C   UNL     1      -2.139  12.435  23.455  0.00  0.00    +0.000 C 
ATOM      9  C   UNL     1      -1.446  12.295  22.102  0.00  0.00    +0.000 C 
ATOM     10  N   UNL     1      -1.229  15.404  20.210  0.00  0.00    +0.000 NA
ATOM     11  C   UNL     1      -0.135  15.852  19.548  0.00  0.00    +0.000 A 
ATOM     12  C   UNL     1       0.765  14.856  19.323  0.00  0.00    +0.000 A 
ATOM     13  C   UNL     1       2.012  15.099  18.660  0.00  0.00    +0.000 A 
ATOM     14  O   UNL     1       2.867  14.236  18.488  0.00  0.00    +0.000 OA
ATOM     15  N   UNL     1       2.173  16.430  18.255  0.00  0.00    +0.000 N 
ATOM     16  C   UNL     1       3.398  16.800  17.565  0.00  0.00    +0.000 C 
ATOM     17  C   UNL     1       1.266  17.476  18.492  0.00  0.00    +0.000 A 
ATOM     18  O   UNL     1       1.516  18.631  18.130  0.00  0.00    +0.000 OA
ATOM     19  N   UNL     1       0.087  17.151  19.158  0.00  0.00    +0.000 N 
ATOM     20  C   UNL     1      -0.892  18.181  19.457  0.00  0.00    +0.000 C 
ENDROOT
BRANCH   1  21
ATOM     21  C   UNL     1       0.759  12.391  19.794  0.00  0.00    +0.000 C 
BRANCH  21  22
ATOM     22  C   UNL     1       0.402  11.526  18.583  0.00  0.00    +0.000 C 
BRANCH  22  23
ATOM     23  S   UNL     1      -0.665  10.095  18.964  0.00  0.00    +0.000 S 
BRANCH  23  30
ATOM     24  C   UNL     1      -3.007   9.973  14.435  0.00  0.00    +0.000 C 
ATOM     25  C   UNL     1      -3.079  10.393  15.873  0.00  0.00    +0.000 A 
ATOM     26  C   UNL     1      -4.193  11.047  16.358  0.00  0.00    +0.000 A 
ATOM     27  C   UNL     1      -4.172  11.397  17.691  0.00  0.00    +0.000 A 
ATOM     28  C   UNL     1      -5.330  12.115  18.315  0.00  0.00    +0.000 C 
ATOM     29  N   UNL     1      -3.123  11.122  18.495  0.00  0.00    +0.000 NA
ATOM     30  C   UNL     1      -2.077  10.483  17.940  0.00  0.00    +0.000 A 
ATOM     31  N   UNL     1      -2.014  10.103  16.652  0.00  0.00    +0.000 NA
ENDBRANCH  23  30
ENDBRANCH  22  23
ENDBRANCH  21  22
ENDBRANCH   1  21
TORSDOF 4
ENDMDL
MODEL 2
REMARK VINA RESULT:      -6.9      3.196      7.264
REMARK  Name = 
REMARK  9 active torsions:
REMARK  status: ('A' for Active; 'I' for Inactive)
REMARK    1  A    between atoms: C_1  and  C_2
REMARK    2  A    between atoms: C_4  and  C_5
REMARK    3  A    between atoms: C_7  and  S_8
REMARK    4  A    between atoms: S_8  and  C_9
REMARK    5  A    between atoms: C_9  and  C_10
REMARK    6  A    between atoms: C_10  and  N_11
REMARK    7  A    between atoms: C_16  and  C_17
REMARK    8  A    between atoms: N_25  and  C_26
REMARK    9  A    between atoms: N_29  and  C_30
REMARK                            x       y       z     vdW  Elec       q    Type
REMARK                         _______ _______ _______ _____ _____    ______ ____
ROOT
ATOM      1  N   UNL     1      -0.968  11.126  19.765  0.00  0.00    +0.000 N 
ATOM      2  C   UNL     1      -0.370  10.239  18.865  0.00  0.00    +0.000 A 
ATOM      3  N   UNL     1       0.833   9.615  19.027  0.00  0.00    +0.000 N 
ATOM      4  C   UNL     1       1.680   9.422  17.840  0.00  0.00    +0.000 C 
ATOM      5  C   UNL     1       2.198   7.986  17.711  0.00  0.00    +0.000 C 
ATOM      6  C   UNL     1       2.810   7.476  19.019  0.00  0.00    +0.000 C 
ATOM      7  C   UNL     1       3.278   6.027  18.896  0.00  0.00    +0.000 C 
ATOM      8  C   UNL     1       1.770   7.611  20.130  0.00  0.00    +0.000 C 
ATOM      9  C   UNL     1       1.308   9.057  20.285  0.00  0.00    +0.000 C 
ATOM     10  N   UNL     1      -1.122  10.123  17.784  0.00  0.00    +0.000 NA
ATOM     11  C   UNL     1      -2.247  10.837  18.030  0.00  0.00    +0.000 A 
ATOM     12  C   UNL     1      -2.200  11.460  19.238  0.00  0.00    +0.000 A 
ATOM     13  C   UNL     1      -3.290  12.253  19.724  0.00  0.00    +0.000 A 
ATOM     14  O   UNL     1      -3.301  12.784  20.830  0.00  0.00    +0.000 OA
ATOM     15  N   UNL     1      -4.358  12.336  18.822  0.00  0.00    +0.000 N 
ATOM     16  C   UNL     1      -5.524  13.119  19.199  0.00  0.00    +0.000 C 
ATOM     17  C   UNL     1      -4.435  11.688  17.578  0.00  0.00    +0.000 A 
ATOM     18  O   UNL     1      -5.441  11.789  16.868  0.00  0.00    +0.000 OA
ATOM     19  N   UNL     1      -3.335  10.925  17.195  0.00  0.00    +0.000 N 
ATOM     20  C   UNL     1      -3.347  10.209  15.931  0.00  0.00    +0.000 C 
ENDROOT
BRANCH   1  21
ATOM     21  C   UNL     1      -0.443  11.624  21.023  0.00  0.00    +0.000 C 
BRANCH  21  22
ATOM     22  C   UNL     1       0.588  12.755  20.966  0.00  0.00    +0.000 C 
BRANCH  22  23
ATOM     23  S   UNL     1      -0.132  14.432  20.922  0.00  0.00    +0.000 S 
BRANCH  23  30
ATOM     24  C   UNL     1       4.239  14.458  18.294  0.00  0.00    +0.000 C 
ATOM     25  C   UNL     1       2.940  15.153  18.573  0.00  0.00    +0.000 A 
ATOM     26  C   UNL     1       2.619  16.329  17.926  0.00  0.00    +0.000 A 
ATOM     27  C   UNL     1       1.405  16.899  18.245  0.00  0.00    +0.000 A 
ATOM     28  C   UNL     1       0.965  18.179  17.602  0.00  0.00    +0.000 C 
ATOM     29  N   UNL     1       0.561  16.348  19.142  0.00  0.00    +0.000 NA
ATOM     30  C   UNL     1       0.953  15.201  19.728  0.00  0.00    +0.000 A 
ATOM     31  N   UNL     1       2.116  14.576  19.475  0.00  0.00    +0.000 NA
ENDBRANCH  23  30
ENDBRANCH  22  23
ENDBRANCH  21  22
ENDBRANCH   1  21
TORSDOF 4
ENDMDL
MODEL 3
REMARK VINA RESULT:      -6.9      3.192      7.024
REMARK  Name = 
REMARK  9 active torsions:
REMARK  status: ('A' for Active; 'I' for Inactive)
REMARK    1  A    between atoms: C_1  and  C_2
REMARK    2  A    between atoms: C_4  and  C_5
REMARK    3  A    between atoms: C_7  and  S_8
REMARK    4  A    between atoms: S_8  and  C_9
REMARK    5  A    between atoms: C_9  and  C_10
REMARK    6  A    between atoms: C_10  and  N_11
REMARK    7  A    between atoms: C_16  and  C_17
REMARK    8  A    between atoms: N_25  and  C_26
REMARK    9  A    between atoms: N_29  and  C_30
REMARK                            x       y       z     vdW  Elec       q    Type
REMARK                         _______ _______ _______ _____ _____    ______ ____
ROOT
ATOM      1  N   UNL     1      -1.147  11.237  19.949  0.00  0.00    +0.000 N 
ATOM      2  C   UNL     1      -0.537  10.388  19.022  0.00  0.00    +0.000 A 
ATOM      3  N   UNL     1       0.665   9.758  19.176  0.00  0.00    +0.000 N 
ATOM      4  C   UNL     1       1.528   9.613  17.994  0.00  0.00    +0.000 C 
ATOM      5  C   UNL     1       2.048   8.183  17.814  0.00  0.00    +0.000 C 
ATOM      6  C   UNL     1       2.641   7.620  19.108  0.00  0.00    +0.000 C 
ATOM      7  C   UNL     1       3.111   6.177  18.933  0.00  0.00    +0.000 C 
ATOM      8  C   UNL     1       1.585   7.710  20.209  0.00  0.00    +0.000 C 
ATOM      9  C   UNL     1       1.120   9.149  20.417  0.00  0.00    +0.000 C 
ATOM     10  N   UNL     1      -1.272  10.317  17.927  0.00  0.00    +0.000 NA
ATOM     11  C   UNL     1      -2.401  11.021  18.184  0.00  0.00    +0.000 A 
ATOM     12  C   UNL     1      -2.372  11.594  19.418  0.00  0.00    +0.000 A 
ATOM     13  C   UNL     1      -3.469  12.367  19.920  0.00  0.00    +0.000 A 
ATOM     14  O   UNL     1      -3.496  12.852  21.047  0.00  0.00    +0.000 OA
ATOM     15  N   UNL     1      -4.524  12.488  19.006  0.00  0.00    +0.000 N 
ATOM     16  C   UNL     1      -5.695  13.255  19.398  0.00  0.00    +0.000 C 
ATOM     17  C   UNL     1      -4.583  11.891  17.736  0.00  0.00    +0.000 A 
ATOM     18  O   UNL     1      -5.578  12.022  17.016  0.00  0.00    +0.000 OA
ATOM     19  N   UNL     1      -3.477  11.143  17.338  0.00  0.00    +0.000 N 
ATOM     20  C   UNL     1      -3.470  10.480  16.046  0.00  0.00    +0.000 C 
ENDROOT
BRANCH   1  21
ATOM     21  C   UNL     1      -0.641  11.684  21.234  0.00  0.00    +0.000 C 
BRANCH  21  22
ATOM     22  C   UNL     1      -0.044  13.092  21.312  0.00  0.00    +0.000 C 
BRANCH  22  23
ATOM     23  S   UNL     1       0.677  13.695  19.748  0.00  0.00    +0.000 S 
BRANCH  23  30
ATOM     24  C   UNL     1      -3.065  16.816  21.254  0.00  0.00    +0.000 C 
ATOM     25  C   UNL     1      -1.969  16.559  20.264  0.00  0.00    +0.000 A 
ATOM     26  C   UNL     1      -1.722  17.454  19.242  0.00  0.00    +0.000 A 
ATOM     27  C   UNL     1      -0.696  17.137  18.378  0.00  0.00    +0.000 A 
ATOM     28  C   UNL     1      -0.350  18.040  17.233  0.00  0.00    +0.000 C 
ATOM     29  N   UNL     1       0.040  16.014  18.509  0.00  0.00    +0.000 NA
ATOM     30  C   UNL     1      -0.270  15.195  19.532  0.00  0.00    +0.000 A 
ATOM     31  N   UNL     1      -1.250  15.427  20.422  0.00  0.00    +0.000 NA
ENDBRANCH  23  30
ENDBRANCH  22  23
ENDBRANCH  21  22
ENDBRANCH   1  21
TORSDOF 4
ENDMDL
MODEL 4
REMARK VINA RESULT:      -6.9      3.218      7.354
REMARK  Name = 
REMARK  9 active torsions:
REMARK  status: ('A' for Active; 'I' for Inactive)
REMARK    1  A    between atoms: C_1  and  C_2
REMARK    2  A    between atoms: C_4  and  C_5
REMARK    3  A    between atoms: C_7  and  S_8
REMARK    4  A    between atoms: S_8  and  C_9
REMARK    5  A    between atoms: C_9  and  C_10
REMARK    6  A    between atoms: C_10  and  N_11
REMARK    7  A    between atoms: C_16  and  C_17
REMARK    8  A    between atoms: N_25  and  C_26
REMARK    9  A    between atoms: N_29  and  C_30
REMARK                            x       y       z     vdW  Elec       q    Type
REMARK                         _______ _______ _______ _____ _____    ______ ____
ROOT
ATOM      1  N   UNL     1      -0.912  11.106  19.807  0.00  0.00    +0.000 N 
ATOM      2  C   UNL     1      -0.338  10.202  18.910  0.00  0.00    +0.000 A 
ATOM      3  N   UNL     1       0.858   9.562  19.066  0.00  0.00    +0.000 N 
ATOM      4  C   UNL     1       1.689   9.344  17.871  0.00  0.00    +0.000 C 
ATOM      5  C   UNL     1       2.184   7.899  17.752  0.00  0.00    +0.000 C 
ATOM      6  C   UNL     1       2.802   7.393  19.058  0.00  0.00    +0.000 C 
ATOM      7  C   UNL     1       3.247   5.936  18.945  0.00  0.00    +0.000 C 
ATOM      8  C   UNL     1       1.776   7.555  20.179  0.00  0.00    +0.000 C 
ATOM      9  C   UNL     1       1.337   9.010  20.324  0.00  0.00    +0.000 C 
ATOM     10  N   UNL     1      -1.102  10.087  17.839  0.00  0.00    +0.000 NA
ATOM     11  C   UNL     1      -2.214  10.820  18.088  0.00  0.00    +0.000 A 
ATOM     12  C   UNL     1      -2.145  11.454  19.290  0.00  0.00    +0.000 A 
ATOM     13  C   UNL     1      -3.217  12.268  19.779  0.00  0.00    +0.000 A 
ATOM     14  O   UNL     1      -3.209  12.811  20.880  0.00  0.00    +0.000 OA
ATOM     15  N   UNL     1      -4.294  12.359  18.888  0.00  0.00    +0.000 N 
ATOM     16  C   UNL     1      -5.444  13.163  19.269  0.00  0.00    +0.000 C 
ATOM     17  C   UNL     1      -4.394  11.699  17.651  0.00  0.00    +0.000 A 
ATOM     18  O   UNL     1      -5.406  11.808  16.950  0.00  0.00    +0.000 OA
ATOM     19  N   UNL     1      -3.310  10.916  17.264  0.00  0.00    +0.000 N 
ATOM     20  C   UNL     1      -3.346  10.187  16.008  0.00  0.00    +0.000 C 
ENDROOT
BRANCH   1  21
ATOM     21  C   UNL     1      -0.367  11.610  21.054  0.00  0.00    +0.000 C 
BRANCH  21  22
ATOM     22  C   UNL     1       0.727  12.678  20.972  0.00  0.00    +0.000 C 
BRANCH  22  23
ATOM     23  S   UNL     1       0.117  14.394  21.096  0.00  0.00    +0.000 S 
BRANCH  23  30
ATOM     24  C   UNL     1       0.820  18.099  17.661  0.00  0.00    +0.000 C 
ATOM     25  C   UNL     1       1.377  16.865  18.307  0.00  0.00    +0.000 A 
ATOM     26  C   UNL     1       2.610  16.372  17.930  0.00  0.00    +0.000 A 
ATOM     27  C   UNL     1       3.043  15.233  18.576  0.00  0.00    +0.000 A 
ATOM     28  C   UNL     1       4.365  14.614  18.237  0.00  0.00    +0.000 C 
ATOM     29  N   UNL     1       2.312  14.621  19.531  0.00  0.00    +0.000 NA
ATOM     30  C   UNL     1       1.121  15.168  19.836  0.00  0.00    +0.000 A 
ATOM     31  N   UNL     1       0.623  16.275  19.260  0.00  0.00    +0.000 NA
ENDBRANCH  23  30
ENDBRANCH  22  23
ENDBRANCH  21  22
ENDBRANCH   1  21
TORSDOF 4
ENDMDL
MODEL 5
REMARK VINA RESULT:      -6.7      3.166      7.219
REMARK  Name = 
REMARK  9 active torsions:
REMARK  status: ('A' for Active; 'I' for Inactive)
REMARK    1  A    between atoms: C_1  and  C_2
REMARK    2  A    between atoms: C_4  and  C_5
REMARK    3  A    between atoms: C_7  and  S_8
REMARK    4  A    between atoms: S_8  and  C_9
REMARK    5  A    between atoms: C_9  and  C_10
REMARK    6  A    between atoms: C_10  and  N_11
REMARK    7  A    between atoms: C_16  and  C_17
REMARK    8  A    between atoms: N_25  and  C_26
REMARK    9  A    between atoms: N_29  and  C_30
REMARK                            x       y       z     vdW  Elec       q    Type
REMARK                         _______ _______ _______ _____ _____    ______ ____
ROOT
ATOM      1  N   UNL     1      -1.165  11.163  19.921  0.00  0.00    +0.000 N 
ATOM      2  C   UNL     1      -0.546  10.312  19.002  0.00  0.00    +0.000 A 
ATOM      3  N   UNL     1       0.653   9.681  19.169  0.00  0.00    +0.000 N 
ATOM      4  C   UNL     1       1.528   9.533  17.996  0.00  0.00    +0.000 C 
ATOM      5  C   UNL     1       2.049   8.103  17.824  0.00  0.00    +0.000 C 
ATOM      6  C   UNL     1       2.628   7.541  19.125  0.00  0.00    +0.000 C 
ATOM      7  C   UNL     1       3.098   6.097  18.957  0.00  0.00    +0.000 C 
ATOM      8  C   UNL     1       1.561   7.634  20.215  0.00  0.00    +0.000 C 
ATOM      9  C   UNL     1       1.096   9.073  20.416  0.00  0.00    +0.000 C 
ATOM     10  N   UNL     1      -1.271  10.240  17.899  0.00  0.00    +0.000 NA
ATOM     11  C   UNL     1      -2.401  10.945  18.144  0.00  0.00    +0.000 A 
ATOM     12  C   UNL     1      -2.384  11.520  19.378  0.00  0.00    +0.000 A 
ATOM     13  C   UNL     1      -3.485  12.294  19.867  0.00  0.00    +0.000 A 
ATOM     14  O   UNL     1      -3.524  12.782  20.993  0.00  0.00    +0.000 OA
ATOM     15  N   UNL     1      -4.531  12.415  18.943  0.00  0.00    +0.000 N 
ATOM     16  C   UNL     1      -5.705  13.184  19.322  0.00  0.00    +0.000 C 
ATOM     17  C   UNL     1      -4.577  11.816  17.673  0.00  0.00    +0.000 A 
ATOM     18  O   UNL     1      -5.565  11.946  16.942  0.00  0.00    +0.000 OA
ATOM     19  N   UNL     1      -3.469  11.067  17.287  0.00  0.00    +0.000 N 
ATOM     20  C   UNL     1      -3.449  10.401  15.996  0.00  0.00    +0.000 C 
ENDROOT
BRANCH   1  21
ATOM     21  C   UNL     1      -0.672  11.611  21.210  0.00  0.00    +0.000 C 
BRANCH  21  22
ATOM     22  C   UNL     1      -0.006  12.989  21.277  0.00  0.00    +0.000 C 
BRANCH  22  23
ATOM     23  S   UNL     1       1.590  13.100  20.400  0.00  0.00    +0.000 S 
BRANCH  23  30
ATOM     24  C   UNL     1       2.958  16.755  17.116  0.00  0.00    +0.000 C 
ATOM     25  C   UNL     1       2.181  16.404  18.350  0.00  0.00    +0.000 A 
ATOM     26  C   UNL     1       1.461  17.370  19.023  0.00  0.00    +0.000 A 
ATOM     27  C   UNL     1       0.777  16.958  20.148  0.00  0.00    +0.000 A 
ATOM     28  C   UNL     1      -0.031  17.930  20.953  0.00  0.00    +0.000 C 
ATOM     29  N   UNL     1       0.800  15.681  20.581  0.00  0.00    +0.000 NA
ATOM     30  C   UNL     1       1.530  14.804  19.866  0.00  0.00    +0.000 A 
ATOM     31  N   UNL     1       2.224  15.117  18.758  0.00  0.00    +0.000 NA
ENDBRANCH  23  30
ENDBRANCH  22  23
ENDBRANCH  21  22
ENDBRANCH   1  21
TORSDOF 4
ENDMDL
MODEL 6
REMARK VINA RESULT:      -6.7      3.259      7.377
REMARK  Name = 
REMARK  9 active torsions:
REMARK  status: ('A' for Active; 'I' for Inactive)
REMARK    1  A    between atoms: C_1  and  C_2
REMARK    2  A    between atoms: C_4  and  C_5
REMARK    3  A    between atoms: C_7  and  S_8
REMARK    4  A    between atoms: S_8  and  C_9
REMARK    5  A    between atoms: C_9  and  C_10
REMARK    6  A    between atoms: C_10  and  N_11
REMARK    7  A    between atoms: C_16  and  C_17
REMARK    8  A    between atoms: N_25  and  C_26
REMARK    9  A    between atoms: N_29  and  C_30
REMARK                            x       y       z     vdW  Elec       q    Type
REMARK                         _______ _______ _______ _____ _____    ______ ____
ROOT
ATOM      1  N   UNL     1      -0.968  11.055  19.857  0.00  0.00    +0.000 N 
ATOM      2  C   UNL     1      -0.361  10.192  18.940  0.00  0.00    +0.000 A 
ATOM      3  N   UNL     1       0.835   9.553  19.104  0.00  0.00    +0.000 N 
ATOM      4  C   UNL     1       1.702   9.390  17.927  0.00  0.00    +0.000 C 
ATOM      5  C   UNL     1       2.211   7.955  17.763  0.00  0.00    +0.000 C 
ATOM      6  C   UNL     1       2.794   7.399  19.065  0.00  0.00    +0.000 C 
ATOM      7  C   UNL     1       3.254   5.951  18.905  0.00  0.00    +0.000 C 
ATOM      8  C   UNL     1       1.736   7.508  20.161  0.00  0.00    +0.000 C 
ATOM      9  C   UNL     1       1.282   8.952  20.353  0.00  0.00    +0.000 C 
ATOM     10  N   UNL     1      -1.093  10.116  17.843  0.00  0.00    +0.000 NA
ATOM     11  C   UNL     1      -2.217  10.831  18.090  0.00  0.00    +0.000 A 
ATOM     12  C   UNL     1      -2.187  11.416  19.318  0.00  0.00    +0.000 A 
ATOM     13  C   UNL     1      -3.280  12.202  19.809  0.00  0.00    +0.000 A 
ATOM     14  O   UNL     1      -3.308  12.699  20.930  0.00  0.00    +0.000 OA
ATOM     15  N   UNL     1      -4.331  12.322  18.890  0.00  0.00    +0.000 N 
ATOM     16  C   UNL     1      -5.497  13.103  19.270  0.00  0.00    +0.000 C 
ATOM     17  C   UNL     1      -4.390  11.714  17.625  0.00  0.00    +0.000 A 
ATOM     18  O   UNL     1      -5.381  11.846  16.900  0.00  0.00    +0.000 OA
ATOM     19  N   UNL     1      -3.289  10.954  17.238  0.00  0.00    +0.000 N 
ATOM     20  C   UNL     1      -3.282  10.278  15.953  0.00  0.00    +0.000 C 
ENDROOT
BRANCH   1  21
ATOM     21  C   UNL     1      -0.463  11.509  21.139  0.00  0.00    +0.000 C 
BRANCH  21  22
ATOM     22  C   UNL     1       0.201  12.888  21.194  0.00  0.00    +0.000 C 
BRANCH  22  23
ATOM     23  S   UNL     1       1.710  13.041  20.178  0.00  0.00    +0.000 S 
BRANCH  23  30
ATOM     24  C   UNL     1      -0.514  17.106  18.047  0.00  0.00    +0.000 C 
ATOM     25  C   UNL     1       0.629  16.589  18.867  0.00  0.00    +0.000 A 
ATOM     26  C   UNL     1       1.602  17.448  19.335  0.00  0.00    +0.000 A 
ATOM     27  C   UNL     1       2.617  16.885  20.080  0.00  0.00    +0.000 A 
ATOM     28  C   UNL     1       3.725  17.731  20.631  0.00  0.00    +0.000 C 
ATOM     29  N   UNL     1       2.672  15.564  20.347  0.00  0.00    +0.000 NA
ATOM     30  C   UNL     1       1.683  14.797  19.850  0.00  0.00    +0.000 A 
ATOM     31  N   UNL     1       0.656  15.261  19.117  0.00  0.00    +0.000 NA
ENDBRANCH  23  30
ENDBRANCH  22  23
ENDBRANCH  21  22
ENDBRANCH   1  21
TORSDOF 4
ENDMDL
MODEL 7
REMARK VINA RESULT:      -6.7      3.975      6.110
REMARK  Name = 
REMARK  9 active torsions:
REMARK  status: ('A' for Active; 'I' for Inactive)
REMARK    1  A    between atoms: C_1  and  C_2
REMARK    2  A    between atoms: C_4  and  C_5
REMARK    3  A    between atoms: C_7  and  S_8
REMARK    4  A    between atoms: S_8  and  C_9
REMARK    5  A    between atoms: C_9  and  C_10
REMARK    6  A    between atoms: C_10  and  N_11
REMARK    7  A    between atoms: C_16  and  C_17
REMARK    8  A    between atoms: N_25  and  C_26
REMARK    9  A    between atoms: N_29  and  C_30
REMARK                            x       y       z     vdW  Elec       q    Type
REMARK                         _______ _______ _______ _____ _____    ______ ____
ROOT
ATOM      1  N   UNL     1      -1.726  11.610  20.300  0.00  0.00    +0.000 N 
ATOM      2  C   UNL     1      -2.529  12.374  21.152  0.00  0.00    +0.000 A 
ATOM      3  N   UNL     1      -2.197  12.797  22.407  0.00  0.00    +0.000 N 
ATOM      4  C   UNL     1      -3.255  12.832  23.429  0.00  0.00    +0.000 C 
ATOM      5  C   UNL     1      -3.301  14.162  24.187  0.00  0.00    +0.000 C 
ATOM      6  C   UNL     1      -1.918  14.587  24.687  0.00  0.00    +0.000 C 
ATOM      7  C   UNL     1      -1.965  15.939  25.397  0.00  0.00    +0.000 C 
ATOM      8  C   UNL     1      -0.962  14.640  23.497  0.00  0.00    +0.000 C 
ATOM      9  C   UNL     1      -0.882  13.290  22.788  0.00  0.00    +0.000 C 
ATOM     10  N   UNL     1      -3.702  12.593  20.585  0.00  0.00    +0.000 NA
ATOM     11  C   UNL     1      -3.620  12.075  19.336  0.00  0.00    +0.000 A 
ATOM     12  C   UNL     1      -2.420  11.472  19.114  0.00  0.00    +0.000 A 
ATOM     13  C   UNL     1      -2.095  10.873  17.854  0.00  0.00    +0.000 A 
ATOM     14  O   UNL     1      -1.005  10.369  17.604  0.00  0.00    +0.000 OA
ATOM     15  N   UNL     1      -3.137  10.950  16.920  0.00  0.00    +0.000 N 
ATOM     16  C   UNL     1      -2.930  10.372  15.602  0.00  0.00    +0.000 C 
ATOM     17  C   UNL     1      -4.375  11.583  17.122  0.00  0.00    +0.000 A 
ATOM     18  O   UNL     1      -5.219  11.634  16.220  0.00  0.00    +0.000 OA
ATOM     19  N   UNL     1      -4.597  12.151  18.373  0.00  0.00    +0.000 N 
ATOM     20  C   UNL     1      -5.846  12.840  18.652  0.00  0.00    +0.000 C 
ENDROOT
BRANCH   1  21
ATOM     21  C   UNL     1      -0.411  11.053  20.559  0.00  0.00    +0.000 C 
BRANCH  21  22
ATOM     22  C   UNL     1      -0.312   9.544  20.797  0.00  0.00    +0.000 C 
BRANCH  22  23
ATOM     23  S   UNL     1       1.202   9.013  21.667  0.00  0.00    +0.000 S 
BRANCH  23  30
ATOM     24  C   UNL     1       1.281   4.006  20.698  0.00  0.00    +0.000 C 
ATOM     25  C   UNL     1       1.688   5.378  20.247  0.00  0.00    +0.000 A 
ATOM     26  C   UNL     1       2.405   5.549  19.080  0.00  0.00    +0.000 A 
ATOM     27  C   UNL     1       2.737   6.844  18.743  0.00  0.00    +0.000 A 
ATOM     28  C   UNL     1       3.519   7.137  17.499  0.00  0.00    +0.000 C 
ATOM     29  N   UNL     1       2.387   7.902  19.504  0.00  0.00    +0.000 NA
ATOM     30  C   UNL     1       1.690   7.645  20.627  0.00  0.00    +0.000 A 
ATOM     31  N   UNL     1       1.322   6.416  21.029  0.00  0.00    +0.000 NA
ENDBRANCH  23  30
ENDBRANCH  22  23
ENDBRANCH  21  22
ENDBRANCH   1  21
TORSDOF 4
ENDMDL
MODEL 8
REMARK VINA RESULT:      -6.7      3.955      6.033
REMARK  Name = 
REMARK  9 active torsions:
REMARK  status: ('A' for Active; 'I' for Inactive)
REMARK    1  A    between atoms: C_1  and  C_2
REMARK    2  A    between atoms: C_4  and  C_5
REMARK    3  A    between atoms: C_7  and  S_8
REMARK    4  A    between atoms: S_8  and  C_9
REMARK    5  A    between atoms: C_9  and  C_10
REMARK    6  A    between atoms: C_10  and  N_11
REMARK    7  A    between atoms: C_16  and  C_17
REMARK    8  A    between atoms: N_25  and  C_26
REMARK    9  A    between atoms: N_29  and  C_30
REMARK                            x       y       z     vdW  Elec       q    Type
REMARK                         _______ _______ _______ _____ _____    ______ ____
ROOT
ATOM      1  N   UNL     1      -1.618  11.502  20.268  0.00  0.00    +0.000 N 
ATOM      2  C   UNL     1      -2.409  12.352  21.047  0.00  0.00    +0.000 A 
ATOM      3  N   UNL     1      -2.092  12.840  22.282  0.00  0.00    +0.000 N 
ATOM      4  C   UNL     1      -3.173  12.984  23.269  0.00  0.00    +0.000 C 
ATOM      5  C   UNL     1      -3.181  14.361  23.940  0.00  0.00    +0.000 C 
ATOM      6  C   UNL     1      -1.794  14.760  24.451  0.00  0.00    +0.000 C 
ATOM      7  C   UNL     1      -1.801  16.156  25.073  0.00  0.00    +0.000 C 
ATOM      8  C   UNL     1      -0.807  14.697  23.287  0.00  0.00    +0.000 C 
ATOM      9  C   UNL     1      -0.767  13.303  22.668  0.00  0.00    +0.000 C 
ATOM     10  N   UNL     1      -3.557  12.582  20.435  0.00  0.00    +0.000 NA
ATOM     11  C   UNL     1      -3.465  11.982  19.224  0.00  0.00    +0.000 A 
ATOM     12  C   UNL     1      -2.287  11.316  19.075  0.00  0.00    +0.000 A 
ATOM     13  C   UNL     1      -1.956  10.626  17.864  0.00  0.00    +0.000 A 
ATOM     14  O   UNL     1      -0.883  10.061  17.677  0.00  0.00    +0.000 OA
ATOM     15  N   UNL     1      -2.970  10.685  16.898  0.00  0.00    +0.000 N 
ATOM     16  C   UNL     1      -2.754  10.015  15.626  0.00  0.00    +0.000 C 
ATOM     17  C   UNL     1      -4.185  11.379  17.025  0.00  0.00    +0.000 A 
ATOM     18  O   UNL     1      -5.002  11.408  16.098  0.00  0.00    +0.000 OA
ATOM     19  N   UNL     1      -4.414  12.036  18.231  0.00  0.00    +0.000 N 
ATOM     20  C   UNL     1      -5.638  12.792  18.431  0.00  0.00    +0.000 C 
ENDROOT
BRANCH   1  21
ATOM     21  C   UNL     1      -0.335  10.909  20.598  0.00  0.00    +0.000 C 
BRANCH  21  22
ATOM     22  C   UNL     1      -0.333   9.481  21.150  0.00  0.00    +0.000 C 
BRANCH  22  23
ATOM     23  S   UNL     1       1.260   8.950  21.867  0.00  0.00    +0.000 S 
BRANCH  23  30
ATOM     24  C   UNL     1       3.264   7.395  17.442  0.00  0.00    +0.000 C 
ATOM     25  C   UNL     1       2.601   6.997  18.727  0.00  0.00    +0.000 A 
ATOM     26  C   UNL     1       2.340   5.670  19.000  0.00  0.00    +0.000 A 
ATOM     27  C   UNL     1       1.727   5.396  20.205  0.00  0.00    +0.000 A 
ATOM     28  C   UNL     1       1.396   3.988  20.595  0.00  0.00    +0.000 C 
ATOM     29  N   UNL     1       1.392   6.364  21.083  0.00  0.00    +0.000 NA
ATOM     30  C   UNL     1       1.682   7.633  20.736  0.00  0.00    +0.000 A 
ATOM     31  N   UNL     1       2.279   7.989  19.586  0.00  0.00    +0.000 NA
ENDBRANCH  23  30
ENDBRANCH  22  23
ENDBRANCH  21  22
ENDBRANCH   1  21
TORSDOF 4
ENDMDL
MODEL 9
REMARK VINA RESULT:      -6.6      3.237      7.498
REMARK  Name = 
REMARK  9 active torsions:
REMARK  status: ('A' for Active; 'I' for Inactive)
REMARK    1  A    between atoms: C_1  and  C_2
REMARK    2  A    between atoms: C_4  and  C_5
REMARK    3  A    between atoms: C_7  and  S_8
REMARK    4  A    between atoms: S_8  and  C_9
REMARK    5  A    between atoms: C_9  and  C_10
REMARK    6  A    between atoms: C_10  and  N_11
REMARK    7  A    between atoms: C_16  and  C_17
REMARK    8  A    between atoms: N_25  and  C_26
REMARK    9  A    between atoms: N_29  and  C_30
REMARK                            x       y       z     vdW  Elec       q    Type
REMARK                         _______ _______ _______ _____ _____    ______ ____
ROOT
ATOM      1  N   UNL     1      -1.032  11.148  19.879  0.00  0.00    +0.000 N 
ATOM      2  C   UNL     1      -0.422  10.284  18.965  0.00  0.00    +0.000 A 
ATOM      3  N   UNL     1       0.777   9.652  19.130  0.00  0.00    +0.000 N 
ATOM      4  C   UNL     1       1.643   9.489  17.953  0.00  0.00    +0.000 C 
ATOM      5  C   UNL     1       2.159   8.055  17.793  0.00  0.00    +0.000 C 
ATOM      6  C   UNL     1       2.746   7.506  19.096  0.00  0.00    +0.000 C 
ATOM      7  C   UNL     1       3.211   6.060  18.941  0.00  0.00    +0.000 C 
ATOM      8  C   UNL     1       1.687   7.614  20.193  0.00  0.00    +0.000 C 
ATOM      9  C   UNL     1       1.227   9.057  20.380  0.00  0.00    +0.000 C 
ATOM     10  N   UNL     1      -1.155  10.202  17.869  0.00  0.00    +0.000 NA
ATOM     11  C   UNL     1      -2.282  10.913  18.114  0.00  0.00    +0.000 A 
ATOM     12  C   UNL     1      -2.254  11.501  19.340  0.00  0.00    +0.000 A 
ATOM     13  C   UNL     1      -3.349  12.285  19.829  0.00  0.00    +0.000 A 
ATOM     14  O   UNL     1      -3.378  12.785  20.950  0.00  0.00    +0.000 OA
ATOM     15  N   UNL     1      -4.402  12.397  18.911  0.00  0.00    +0.000 N 
ATOM     16  C   UNL     1      -5.571  13.174  19.290  0.00  0.00    +0.000 C 
ATOM     17  C   UNL     1      -4.459  11.784  17.648  0.00  0.00    +0.000 A 
ATOM     18  O   UNL     1      -5.451  11.909  16.924  0.00  0.00    +0.000 OA
ATOM     19  N   UNL     1      -3.355  11.028  17.263  0.00  0.00    +0.000 N 
ATOM     20  C   UNL     1      -3.347  10.348  15.980  0.00  0.00    +0.000 C 
ENDROOT
BRANCH   1  21
ATOM     21  C   UNL     1      -0.528  11.609  21.160  0.00  0.00    +0.000 C 
BRANCH  21  22
ATOM     22  C   UNL     1       0.140  12.986  21.207  0.00  0.00    +0.000 C 
BRANCH  22  23
ATOM     23  S   UNL     1       1.813  13.040  20.479  0.00  0.00    +0.000 S 
BRANCH  23  30
ATOM     24  C   UNL     1       1.105  17.945  21.685  0.00  0.00    +0.000 C 
ATOM     25  C   UNL     1       1.563  16.961  20.650  0.00  0.00    +0.000 A 
ATOM     26  C   UNL     1       2.028  17.397  19.425  0.00  0.00    +0.000 A 
ATOM     27  C   UNL     1       2.426  16.424  18.534  0.00  0.00    +0.000 A 
ATOM     28  C   UNL     1       2.942  16.792  17.176  0.00  0.00    +0.000 C 
ATOM     29  N   UNL     1       2.371  15.108  18.827  0.00  0.00    +0.000 NA
ATOM     30  C   UNL     1       1.903  14.770  20.043  0.00  0.00    +0.000 A 
ATOM     31  N   UNL     1       1.496  15.651  20.973  0.00  0.00    +0.000 NA
ENDBRANCH  23  30
ENDBRANCH  22  23
ENDBRANCH  21  22
ENDBRANCH   1  21
TORSDOF 4
ENDMDL
