MODEL 1
REMARK VINA RESULT:      -8.3      0.000      0.000
REMARK  Name = 
REMARK  8 active torsions:
REMARK  status: ('A' for Active; 'I' for Inactive)
REMARK    1  A    between atoms: C_1  and  N_2
REMARK    2  A    between atoms: N_2  and  C_3
REMARK    3  A    between atoms: C_4  and  C_6
REMARK    4  A    between atoms: C_9  and  C_10
REMARK    5  A    between atoms: C_17  and  C_18
REMARK    6  A    between atoms: C_21  and  C_22
REMARK    7  A    between atoms: N_24  and  C_25
REMARK    8  A    between atoms: N_24  and  C_26
REMARK                            x       y       z     vdW  Elec       q    Type
REMARK                         _______ _______ _______ _____ _____    ______ ____
ROOT
ATOM      1  C   UNL     1       5.836   5.547  16.992  0.00  0.00    +0.000 C 
ATOM      2  C   UNL     1       4.837   4.915  17.644  0.00  0.00    +0.000 C 
ATOM      3  C   UNL     1       4.029   3.770  17.076  0.00  0.00    +0.000 C 
ATOM      4  C   UNL     1       2.494   3.866  17.240  0.00  0.00    +0.000 C 
ATOM      5  C   UNL     1       1.996   3.827  18.698  0.00  0.00    +0.000 C 
ATOM      6  C   UNL     1       1.987   5.185  19.425  0.00  0.00    +0.000 C 
ATOM      7  C   UNL     1       3.166   6.040  19.089  0.00  0.00    +0.000 C 
ATOM      8  C   UNL     1       3.196   7.352  18.803  0.00  0.00    +0.000 C 
ATOM      9  C   UNL     1       4.435   5.279  19.023  0.00  0.00    +0.000 C 
ATOM     10  O   UNL     1       4.952   4.785  20.017  0.00  0.00    +0.000 OA
ENDROOT
BRANCH   1  14
ATOM     11  C   UNL     1       8.254   8.865  18.316  0.00  0.00    +0.000 A 
ATOM     12  C   UNL     1       8.507   7.586  18.803  0.00  0.00    +0.000 A 
ATOM     13  C   UNL     1       7.764   6.497  18.340  0.00  0.00    +0.000 A 
ATOM     14  C   UNL     1       6.689   6.663  17.458  0.00  0.00    +0.000 A 
ATOM     15  C   UNL     1       6.441   7.956  16.972  0.00  0.00    +0.000 A 
ATOM     16  C   UNL     1       7.219   9.045  17.394  0.00  0.00    +0.000 A 
BRANCH  11  20
ATOM     17  C   UNL     1      10.278  12.107  18.244  0.00  0.00    +0.000 C 
ATOM     18  N   UNL     1       9.122  11.238  18.115  0.00  0.00    +0.000 N 
ATOM     19  C   UNL     1       8.017  11.758  17.314  0.00  0.00    +0.000 C 
ATOM     20  C   UNL     1       9.018  10.052  18.834  0.00  0.00    +0.000 C 
ATOM     21  N   UNL     1       9.593   9.893  19.986  0.00  0.00    +0.000 NA
ATOM     22  H   UNL     1      10.060  10.754  20.260  0.00  0.00    +0.000 HD
ENDBRANCH  11  20
ENDBRANCH   1  14
BRANCH   8  23
ATOM     23  C   UNL     1       2.037   8.241  18.878  0.00  0.00    +0.000 A 
ATOM     24  C   UNL     1       1.462   8.489  20.128  0.00  0.00    +0.000 A 
ATOM     25  C   UNL     1       0.414   9.406  20.256  0.00  0.00    +0.000 A 
ATOM     26  C   UNL     1      -0.088  10.069  19.132  0.00  0.00    +0.000 A 
ATOM     27  C   UNL     1       0.453   9.773  17.870  0.00  0.00    +0.000 A 
ATOM     28  C   UNL     1       1.520   8.876  17.745  0.00  0.00    +0.000 A 
BRANCH  26  29
ATOM     29  C   UNL     1      -1.087  11.188  19.296  0.00  0.00    +0.000 C 
ATOM     30  N   UNL     1      -0.904  12.071  20.236  0.00  0.00    +0.000 NA
ATOM     31  N   UNL     1      -2.239  11.265  18.530  0.00  0.00    +0.000 N 
ATOM     32  C   UNL     1      -2.304  10.930  17.117  0.00  0.00    +0.000 C 
ATOM     33  C   UNL     1      -3.433  11.919  19.064  0.00  0.00    +0.000 C 
ATOM     34  H   UNL     1      -0.071  11.872  20.791  0.00  0.00    +0.000 HD
ENDBRANCH  26  29
ENDBRANCH   8  23
TORSDOF 4
ENDMDL
MODEL 2
REMARK VINA RESULT:      -8.3      0.662      1.171
REMARK  Name = 
REMARK  8 active torsions:
REMARK  status: ('A' for Active; 'I' for Inactive)
REMARK    1  A    between atoms: C_1  and  N_2
REMARK    2  A    between atoms: N_2  and  C_3
REMARK    3  A    between atoms: C_4  and  C_6
REMARK    4  A    between atoms: C_9  and  C_10
REMARK    5  A    between atoms: C_17  and  C_18
REMARK    6  A    between atoms: C_21  and  C_22
REMARK    7  A    between atoms: N_24  and  C_25
REMARK    8  A    between atoms: N_24  and  C_26
REMARK                            x       y       z     vdW  Elec       q    Type
REMARK                         _______ _______ _______ _____ _____    ______ ____
ROOT
ATOM      1  C   UNL     1       5.857   5.596  16.956  0.00  0.00    +0.000 C 
ATOM      2  C   UNL     1       4.873   4.945  17.612  0.00  0.00    +0.000 C 
ATOM      3  C   UNL     1       4.064   3.805  17.036  0.00  0.00    +0.000 C 
ATOM      4  C   UNL     1       2.532   3.886  17.224  0.00  0.00    +0.000 C 
ATOM      5  C   UNL     1       2.056   3.819  18.688  0.00  0.00    +0.000 C 
ATOM      6  C   UNL     1       2.047   5.163  19.439  0.00  0.00    +0.000 C 
ATOM      7  C   UNL     1       3.215   6.032  19.100  0.00  0.00    +0.000 C 
ATOM      8  C   UNL     1       3.232   7.349  18.837  0.00  0.00    +0.000 C 
ATOM      9  C   UNL     1       4.489   5.283  19.003  0.00  0.00    +0.000 C 
ATOM     10  O   UNL     1       5.024   4.775  19.980  0.00  0.00    +0.000 OA
ENDROOT
BRANCH   1  14
ATOM     11  C   UNL     1       8.273   8.908  18.298  0.00  0.00    +0.000 A 
ATOM     12  C   UNL     1       8.506   7.632  18.802  0.00  0.00    +0.000 A 
ATOM     13  C   UNL     1       7.764   6.544  18.334  0.00  0.00    +0.000 A 
ATOM     14  C   UNL     1       6.709   6.710  17.428  0.00  0.00    +0.000 A 
ATOM     15  C   UNL     1       6.482   8.000  16.926  0.00  0.00    +0.000 A 
ATOM     16  C   UNL     1       7.258   9.087  17.353  0.00  0.00    +0.000 A 
BRANCH  11  20
ATOM     17  C   UNL     1      10.273  12.166  18.239  0.00  0.00    +0.000 C 
ATOM     18  N   UNL     1       9.121  11.290  18.114  0.00  0.00    +0.000 N 
ATOM     19  C   UNL     1       8.002  11.811  17.335  0.00  0.00    +0.000 C 
ATOM     20  C   UNL     1       9.035  10.094  18.821  0.00  0.00    +0.000 C 
ATOM     21  N   UNL     1       9.627   9.926  19.962  0.00  0.00    +0.000 NA
ATOM     22  H   UNL     1      10.091  10.787  20.241  0.00  0.00    +0.000 HD
ENDBRANCH  11  20
ENDBRANCH   1  14
BRANCH   8  23
ATOM     23  C   UNL     1       2.068   8.229  18.945  0.00  0.00    +0.000 A 
ATOM     24  C   UNL     1       1.457   8.383  20.192  0.00  0.00    +0.000 A 
ATOM     25  C   UNL     1       0.401   9.285  20.358  0.00  0.00    +0.000 A 
ATOM     26  C   UNL     1      -0.070  10.029  19.273  0.00  0.00    +0.000 A 
ATOM     27  C   UNL     1       0.507   9.828  18.008  0.00  0.00    +0.000 A 
ATOM     28  C   UNL     1       1.580   8.945  17.848  0.00  0.00    +0.000 A 
BRANCH  26  29
ATOM     29  C   UNL     1      -1.078  11.131  19.491  0.00  0.00    +0.000 C 
ATOM     30  N   UNL     1      -2.246  11.047  18.922  0.00  0.00    +0.000 NA
ATOM     31  N   UNL     1      -0.774  12.274  20.215  0.00  0.00    +0.000 N 
ATOM     32  C   UNL     1       0.038  12.284  21.421  0.00  0.00    +0.000 C 
ATOM     33  C   UNL     1      -1.459  13.532  19.921  0.00  0.00    +0.000 C 
ATOM     34  H   UNL     1      -2.333  10.208  18.348  0.00  0.00    +0.000 HD
ENDBRANCH  26  29
ENDBRANCH   8  23
TORSDOF 4
ENDMDL
MODEL 3
REMARK VINA RESULT:      -8.2      3.592      7.977
REMARK  Name = 
REMARK  8 active torsions:
REMARK  status: ('A' for Active; 'I' for Inactive)
REMARK    1  A    between atoms: C_1  and  N_2
REMARK    2  A    between atoms: N_2  and  C_3
REMARK    3  A    between atoms: C_4  and  C_6
REMARK    4  A    between atoms: C_9  and  C_10
REMARK    5  A    between atoms: C_17  and  C_18
REMARK    6  A    between atoms: C_21  and  C_22
REMARK    7  A    between atoms: N_24  and  C_25
REMARK    8  A    between atoms: N_24  and  C_26
REMARK                            x       y       z     vdW  Elec       q    Type
REMARK                         _______ _______ _______ _____ _____    ______ ____
ROOT
ATOM      1  C   UNL     1       2.132   5.600  21.241  0.00  0.00    +0.000 C 
ATOM      2  C   UNL     1       2.167   4.400  20.624  0.00  0.00    +0.000 C 
ATOM      3  C   UNL     1       2.667   3.122  21.259  0.00  0.00    +0.000 C 
ATOM      4  C   UNL     1       3.639   2.269  20.412  0.00  0.00    +0.000 C 
ATOM      5  C   UNL     1       3.032   1.689  19.120  0.00  0.00    +0.000 C 
ATOM      6  C   UNL     1       3.063   2.627  17.899  0.00  0.00    +0.000 C 
ATOM      7  C   UNL     1       2.785   4.054  18.249  0.00  0.00    +0.000 C 
ATOM      8  C   UNL     1       3.420   5.160  17.827  0.00  0.00    +0.000 C 
ATOM      9  C   UNL     1       1.690   4.208  19.234  0.00  0.00    +0.000 C 
ATOM     10  O   UNL     1       0.526   3.944  18.963  0.00  0.00    +0.000 OA
ENDROOT
BRANCH   1  14
ATOM     11  C   UNL     1       0.790   9.369  19.625  0.00  0.00    +0.000 A 
ATOM     12  C   UNL     1       0.215   8.870  20.790  0.00  0.00    +0.000 A 
ATOM     13  C   UNL     1       0.679   7.677  21.350  0.00  0.00    +0.000 A 
ATOM     14  C   UNL     1       1.658   6.901  20.717  0.00  0.00    +0.000 A 
ATOM     15  C   UNL     1       2.232   7.411  19.543  0.00  0.00    +0.000 A 
ATOM     16  C   UNL     1       1.806   8.634  19.005  0.00  0.00    +0.000 A 
BRANCH  11  20
ATOM     17  C   UNL     1      -0.675  12.890  19.373  0.00  0.00    +0.000 C 
ATOM     18  N   UNL     1       0.309  11.857  19.642  0.00  0.00    +0.000 N 
ATOM     19  C   UNL     1       1.417  12.240  20.513  0.00  0.00    +0.000 C 
ATOM     20  C   UNL     1       0.275  10.629  18.989  0.00  0.00    +0.000 C 
ATOM     21  N   UNL     1      -0.225  10.497  17.800  0.00  0.00    +0.000 NA
ATOM     22  H   UNL     1      -0.521  11.404  17.447  0.00  0.00    +0.000 HD
ENDBRANCH  11  20
ENDBRANCH   1  14
BRANCH   8  23
ATOM     23  C   UNL     1       4.481   5.171  16.819  0.00  0.00    +0.000 A 
ATOM     24  C   UNL     1       5.152   3.977  16.539  0.00  0.00    +0.000 A 
ATOM     25  C   UNL     1       6.105   3.923  15.517  0.00  0.00    +0.000 A 
ATOM     26  C   UNL     1       6.415   5.068  14.778  0.00  0.00    +0.000 A 
ATOM     27  C   UNL     1       5.781   6.279  15.102  0.00  0.00    +0.000 A 
ATOM     28  C   UNL     1       4.808   6.327  16.106  0.00  0.00    +0.000 A 
BRANCH  26  29
ATOM     29  C   UNL     1       7.302   4.966  13.561  0.00  0.00    +0.000 C 
ATOM     30  N   UNL     1       8.470   5.541  13.575  0.00  0.00    +0.000 NA
ATOM     31  N   UNL     1       6.883   4.346  12.394  0.00  0.00    +0.000 N 
ATOM     32  C   UNL     1       6.079   3.134  12.357  0.00  0.00    +0.000 C 
ATOM     33  C   UNL     1       7.429   4.763  11.105  0.00  0.00    +0.000 C 
ATOM     34  H   UNL     1       8.642   6.037  14.450  0.00  0.00    +0.000 HD
ENDBRANCH  26  29
ENDBRANCH   8  23
TORSDOF 4
ENDMDL
MODEL 4
REMARK VINA RESULT:      -8.2      5.054      9.078
REMARK  Name = 
REMARK  8 active torsions:
REMARK  status: ('A' for Active; 'I' for Inactive)
REMARK    1  A    between atoms: C_1  and  N_2
REMARK    2  A    between atoms: N_2  and  C_3
REMARK    3  A    between atoms: C_4  and  C_6
REMARK    4  A    between atoms: C_9  and  C_10
REMARK    5  A    between atoms: C_17  and  C_18
REMARK    6  A    between atoms: C_21  and  C_22
REMARK    7  A    between atoms: N_24  and  C_25
REMARK    8  A    between atoms: N_24  and  C_26
REMARK                            x       y       z     vdW  Elec       q    Type
REMARK                         _______ _______ _______ _____ _____    ______ ____
ROOT
ATOM      1  C   UNL     1       8.511  13.833  20.580  0.00  0.00    +0.000 C 
ATOM      2  C   UNL     1       9.532  13.418  19.801  0.00  0.00    +0.000 C 
ATOM      3  C   UNL     1       9.995  14.119  18.544  0.00  0.00    +0.000 C 
ATOM      4  C   UNL     1      10.232  13.224  17.306  0.00  0.00    +0.000 C 
ATOM      5  C   UNL     1      11.375  12.200  17.458  0.00  0.00    +0.000 C 
ATOM      6  C   UNL     1      10.981  10.872  18.131  0.00  0.00    +0.000 C 
ATOM      7  C   UNL     1      10.015  11.048  19.258  0.00  0.00    +0.000 C 
ATOM      8  C   UNL     1       8.914  10.332  19.539  0.00  0.00    +0.000 C 
ATOM      9  C   UNL     1      10.332  12.211  20.119  0.00  0.00    +0.000 C 
ATOM     10  O   UNL     1      11.325  12.244  20.833  0.00  0.00    +0.000 OA
ENDROOT
BRANCH   1  14
ATOM     11  C   UNL     1       6.897  12.113  24.192  0.00  0.00    +0.000 A 
ATOM     12  C   UNL     1       8.094  11.631  23.670  0.00  0.00    +0.000 A 
ATOM     13  C   UNL     1       8.651  12.217  22.530  0.00  0.00    +0.000 A 
ATOM     14  C   UNL     1       7.988  13.230  21.826  0.00  0.00    +0.000 A 
ATOM     15  C   UNL     1       6.782  13.709  22.360  0.00  0.00    +0.000 A 
ATOM     16  C   UNL     1       6.245  13.160  23.533  0.00  0.00    +0.000 A 
BRANCH  11  20
ATOM     17  C   UNL     1       6.602  10.671  27.720  0.00  0.00    +0.000 C 
ATOM     18  N   UNL     1       6.737  11.680  26.684  0.00  0.00    +0.000 N 
ATOM     19  C   UNL     1       7.250  12.977  27.117  0.00  0.00    +0.000 C 
ATOM     20  C   UNL     1       6.265  11.467  25.393  0.00  0.00    +0.000 C 
ATOM     21  N   UNL     1       5.263  10.681  25.148  0.00  0.00    +0.000 NA
ATOM     22  H   UNL     1       4.891  10.315  26.021  0.00  0.00    +0.000 HD
ENDBRANCH  11  20
ENDBRANCH   1  14
BRANCH   8  23
ATOM     23  C   UNL     1       8.503   9.129  18.814  0.00  0.00    +0.000 A 
ATOM     24  C   UNL     1       8.738   7.881  19.399  0.00  0.00    +0.000 A 
ATOM     25  C   UNL     1       8.277   6.713  18.785  0.00  0.00    +0.000 A 
ATOM     26  C   UNL     1       7.595   6.776  17.566  0.00  0.00    +0.000 A 
ATOM     27  C   UNL     1       7.413   8.026  16.953  0.00  0.00    +0.000 A 
ATOM     28  C   UNL     1       7.851   9.198  17.581  0.00  0.00    +0.000 A 
BRANCH  26  29
ATOM     29  C   UNL     1       6.939   5.540  17.001  0.00  0.00    +0.000 C 
ATOM     30  N   UNL     1       7.617   4.429  16.945  0.00  0.00    +0.000 NA
ATOM     31  N   UNL     1       5.662   5.564  16.464  0.00  0.00    +0.000 N 
ATOM     32  C   UNL     1       4.559   6.336  17.014  0.00  0.00    +0.000 C 
ATOM     33  C   UNL     1       5.288   4.613  15.419  0.00  0.00    +0.000 C 
ATOM     34  H   UNL     1       8.571   4.545  17.290  0.00  0.00    +0.000 HD
ENDBRANCH  26  29
ENDBRANCH   8  23
TORSDOF 4
ENDMDL
MODEL 5
REMARK VINA RESULT:      -8.1      4.275      7.752
REMARK  Name = 
REMARK  8 active torsions:
REMARK  status: ('A' for Active; 'I' for Inactive)
REMARK    1  A    between atoms: C_1  and  N_2
REMARK    2  A    between atoms: N_2  and  C_3
REMARK    3  A    between atoms: C_4  and  C_6
REMARK    4  A    between atoms: C_9  and  C_10
REMARK    5  A    between atoms: C_17  and  C_18
REMARK    6  A    between atoms: C_21  and  C_22
REMARK    7  A    between atoms: N_24  and  C_25
REMARK    8  A    between atoms: N_24  and  C_26
REMARK                            x       y       z     vdW  Elec       q    Type
REMARK                         _______ _______ _______ _____ _____    ______ ____
ROOT
ATOM      1  C   UNL     1       0.066  14.229  20.953  0.00  0.00    +0.000 C 
ATOM      2  C   UNL     1      -0.759  13.567  20.113  0.00  0.00    +0.000 C 
ATOM      3  C   UNL     1      -2.200  13.227  20.415  0.00  0.00    +0.000 C 
ATOM      4  C   UNL     1      -2.642  11.777  20.111  0.00  0.00    +0.000 C 
ATOM      5  C   UNL     1      -2.598  11.388  18.620  0.00  0.00    +0.000 C 
ATOM      6  C   UNL     1      -1.230  10.897  18.110  0.00  0.00    +0.000 C 
ATOM      7  C   UNL     1      -0.080  11.654  18.691  0.00  0.00    +0.000 C 
ATOM      8  C   UNL     1       1.079  11.177  19.175  0.00  0.00    +0.000 C 
ATOM      9  C   UNL     1      -0.325  13.112  18.771  0.00  0.00    +0.000 C 
ATOM     10  O   UNL     1      -0.411  13.815  17.773  0.00  0.00    +0.000 OA
ENDROOT
BRANCH   1  14
ATOM     11  C   UNL     1       4.215  15.268  20.390  0.00  0.00    +0.000 A 
ATOM     12  C   UNL     1       3.219  16.088  19.870  0.00  0.00    +0.000 A 
ATOM     13  C   UNL     1       1.872  15.788  20.092  0.00  0.00    +0.000 A 
ATOM     14  C   UNL     1       1.480  14.617  20.752  0.00  0.00    +0.000 A 
ATOM     15  C   UNL     1       2.491  13.796  21.273  0.00  0.00    +0.000 A 
ATOM     16  C   UNL     1       3.844  14.120  21.098  0.00  0.00    +0.000 A 
BRANCH  11  20
ATOM     17  C   UNL     1       7.796  14.698  19.180  0.00  0.00    +0.000 C 
ATOM     18  N   UNL     1       6.367  14.941  19.092  0.00  0.00    +0.000 N 
ATOM     19  C   UNL     1       5.747  14.649  17.802  0.00  0.00    +0.000 C 
ATOM     20  C   UNL     1       5.667  15.554  20.126  0.00  0.00    +0.000 C 
ATOM     21  N   UNL     1       6.232  16.394  20.936  0.00  0.00    +0.000 NA
ATOM     22  H   UNL     1       7.200  16.541  20.661  0.00  0.00    +0.000 HD
ENDBRANCH  11  20
ENDBRANCH   1  14
BRANCH   8  23
ATOM     23  C   UNL     1       1.484   9.772  19.116  0.00  0.00    +0.000 A 
ATOM     24  C   UNL     1       2.097   9.299  17.952  0.00  0.00    +0.000 A 
ATOM     25  C   UNL     1       2.584   7.989  17.890  0.00  0.00    +0.000 A 
ATOM     26  C   UNL     1       2.443   7.130  18.984  0.00  0.00    +0.000 A 
ATOM     27  C   UNL     1       1.774   7.591  20.130  0.00  0.00    +0.000 A 
ATOM     28  C   UNL     1       1.311   8.910  20.202  0.00  0.00    +0.000 A 
BRANCH  26  29
ATOM     29  C   UNL     1       3.130   5.786  18.984  0.00  0.00    +0.000 C 
ATOM     30  N   UNL     1       4.134   5.584  19.787  0.00  0.00    +0.000 NA
ATOM     31  N   UNL     1       2.778   4.780  18.097  0.00  0.00    +0.000 N 
ATOM     32  C   UNL     1       1.412   4.486  17.696  0.00  0.00    +0.000 C 
ATOM     33  C   UNL     1       3.769   3.790  17.681  0.00  0.00    +0.000 C 
ATOM     34  H   UNL     1       4.360   6.416  20.334  0.00  0.00    +0.000 HD
ENDBRANCH  26  29
ENDBRANCH   8  23
TORSDOF 4
ENDMDL
MODEL 6
REMARK VINA RESULT:      -8.1      4.393      7.792
REMARK  Name = 
REMARK  8 active torsions:
REMARK  status: ('A' for Active; 'I' for Inactive)
REMARK    1  A    between atoms: C_1  and  N_2
REMARK    2  A    between atoms: N_2  and  C_3
REMARK    3  A    between atoms: C_4  and  C_6
REMARK    4  A    between atoms: C_9  and  C_10
REMARK    5  A    between atoms: C_17  and  C_18
REMARK    6  A    between atoms: C_21  and  C_22
REMARK    7  A    between atoms: N_24  and  C_25
REMARK    8  A    between atoms: N_24  and  C_26
REMARK                            x       y       z     vdW  Elec       q    Type
REMARK                         _______ _______ _______ _____ _____    ______ ____
ROOT
ATOM      1  C   UNL     1       0.366  14.393  20.610  0.00  0.00    +0.000 C 
ATOM      2  C   UNL     1      -0.568  13.673  19.952  0.00  0.00    +0.000 C 
ATOM      3  C   UNL     1      -1.955  13.381  20.476  0.00  0.00    +0.000 C 
ATOM      4  C   UNL     1      -2.438  11.916  20.363  0.00  0.00    +0.000 C 
ATOM      5  C   UNL     1      -2.599  11.399  18.920  0.00  0.00    +0.000 C 
ATOM      6  C   UNL     1      -1.316  10.846  18.273  0.00  0.00    +0.000 C 
ATOM      7  C   UNL     1      -0.095  11.634  18.624  0.00  0.00    +0.000 C 
ATOM      8  C   UNL     1       1.119  11.184  18.984  0.00  0.00    +0.000 C 
ATOM      9  C   UNL     1      -0.323  13.097  18.608  0.00  0.00    +0.000 C 
ATOM     10  O   UNL     1      -0.544  13.713  17.573  0.00  0.00    +0.000 OA
ENDROOT
BRANCH   1  14
ATOM     11  C   UNL     1       4.402  15.321  19.401  0.00  0.00    +0.000 A 
ATOM     12  C   UNL     1       3.342  16.083  18.920  0.00  0.00    +0.000 A 
ATOM     13  C   UNL     1       2.037  15.823  19.347  0.00  0.00    +0.000 A 
ATOM     14  C   UNL     1       1.740  14.742  20.185  0.00  0.00    +0.000 A 
ATOM     15  C   UNL     1       2.814  13.979  20.666  0.00  0.00    +0.000 A 
ATOM     16  C   UNL     1       4.132  14.268  20.281  0.00  0.00    +0.000 A 
BRANCH  11  20
ATOM     17  C   UNL     1       7.577  17.248  18.497  0.00  0.00    +0.000 C 
ATOM     18  N   UNL     1       6.557  16.653  19.343  0.00  0.00    +0.000 N 
ATOM     19  C   UNL     1       6.480  17.165  20.709  0.00  0.00    +0.000 C 
ATOM     20  C   UNL     1       5.806  15.561  18.920  0.00  0.00    +0.000 C 
ATOM     21  N   UNL     1       6.265  14.698  18.069  0.00  0.00    +0.000 NA
ATOM     22  H   UNL     1       7.225  14.932  17.825  0.00  0.00    +0.000 HD
ENDBRANCH  11  20
ENDBRANCH   1  14
BRANCH   8  23
ATOM     23  C   UNL     1       1.508   9.774  18.994  0.00  0.00    +0.000 A 
ATOM     24  C   UNL     1       2.049   9.220  17.830  0.00  0.00    +0.000 A 
ATOM     25  C   UNL     1       2.521   7.903  17.826  0.00  0.00    +0.000 A 
ATOM     26  C   UNL     1       2.438   7.118  18.980  0.00  0.00    +0.000 A 
ATOM     27  C   UNL     1       1.840   7.660  20.129  0.00  0.00    +0.000 A 
ATOM     28  C   UNL     1       1.392   8.985  20.142  0.00  0.00    +0.000 A 
BRANCH  26  29
ATOM     29  C   UNL     1       3.112   5.769  19.027  0.00  0.00    +0.000 C 
ATOM     30  N   UNL     1       4.089   5.575  19.867  0.00  0.00    +0.000 NA
ATOM     31  N   UNL     1       2.781   4.748  18.149  0.00  0.00    +0.000 N 
ATOM     32  C   UNL     1       1.426   4.458  17.709  0.00  0.00    +0.000 C 
ATOM     33  C   UNL     1       3.777   3.743  17.784  0.00  0.00    +0.000 C 
ATOM     34  H   UNL     1       4.304   6.415  20.405  0.00  0.00    +0.000 HD
ENDBRANCH  26  29
ENDBRANCH   8  23
TORSDOF 4
ENDMDL
MODEL 7
REMARK VINA RESULT:      -8.1      1.052      1.699
REMARK  Name = 
REMARK  8 active torsions:
REMARK  status: ('A' for Active; 'I' for Inactive)
REMARK    1  A    between atoms: C_1  and  N_2
REMARK    2  A    between atoms: N_2  and  C_3
REMARK    3  A    between atoms: C_4  and  C_6
REMARK    4  A    between atoms: C_9  and  C_10
REMARK    5  A    between atoms: C_17  and  C_18
REMARK    6  A    between atoms: C_21  and  C_22
REMARK    7  A    between atoms: N_24  and  C_25
REMARK    8  A    between atoms: N_24  and  C_26
REMARK                            x       y       z     vdW  Elec       q    Type
REMARK                         _______ _______ _______ _____ _____    ______ ____
ROOT
ATOM      1  C   UNL     1       6.699   6.084  16.878  0.00  0.00    +0.000 C 
ATOM      2  C   UNL     1       5.734   5.262  17.342  0.00  0.00    +0.000 C 
ATOM      3  C   UNL     1       5.111   4.135  16.549  0.00  0.00    +0.000 C 
ATOM      4  C   UNL     1       3.568   4.044  16.582  0.00  0.00    +0.000 C 
ATOM      5  C   UNL     1       2.968   3.738  17.969  0.00  0.00    +0.000 C 
ATOM      6  C   UNL     1       2.744   4.965  18.873  0.00  0.00    +0.000 C 
ATOM      7  C   UNL     1       3.838   5.979  18.767  0.00  0.00    +0.000 C 
ATOM      8  C   UNL     1       3.736   7.315  18.669  0.00  0.00    +0.000 C 
ATOM      9  C   UNL     1       5.189   5.375  18.715  0.00  0.00    +0.000 C 
ATOM     10  O   UNL     1       5.682   4.796  19.674  0.00  0.00    +0.000 OA
ENDROOT
BRANCH   1  14
ATOM     11  C   UNL     1       8.739   9.280  18.936  0.00  0.00    +0.000 A 
ATOM     12  C   UNL     1       7.919   9.568  17.850  0.00  0.00    +0.000 A 
ATOM     13  C   UNL     1       7.213   8.546  17.210  0.00  0.00    +0.000 A 
ATOM     14  C   UNL     1       7.378   7.203  17.570  0.00  0.00    +0.000 A 
ATOM     15  C   UNL     1       8.206   6.922  18.666  0.00  0.00    +0.000 A 
ATOM     16  C   UNL     1       8.877   7.950  19.345  0.00  0.00    +0.000 A 
BRANCH  11  20
ATOM     17  C   UNL     1      11.653  11.660  19.616  0.00  0.00    +0.000 C 
ATOM     18  N   UNL     1      10.498  11.105  18.932  0.00  0.00    +0.000 N 
ATOM     19  C   UNL     1      10.328  11.504  17.537  0.00  0.00    +0.000 C 
ATOM     20  C   UNL     1       9.536  10.362  19.609  0.00  0.00    +0.000 C 
ATOM     21  N   UNL     1       9.287  10.546  20.868  0.00  0.00    +0.000 NA
ATOM     22  H   UNL     1       9.854  11.311  21.225  0.00  0.00    +0.000 HD
ENDBRANCH  11  20
ENDBRANCH   1  14
BRANCH   8  23
ATOM     23  C   UNL     1       2.478   8.057  18.759  0.00  0.00    +0.000 A 
ATOM     24  C   UNL     1       1.832   8.135  19.996  0.00  0.00    +0.000 A 
ATOM     25  C   UNL     1       0.679   8.912  20.146  0.00  0.00    +0.000 A 
ATOM     26  C   UNL     1       0.145   9.603  19.055  0.00  0.00    +0.000 A 
ATOM     27  C   UNL     1       0.763   9.475  17.800  0.00  0.00    +0.000 A 
ATOM     28  C   UNL     1       1.932   8.719  17.656  0.00  0.00    +0.000 A 
BRANCH  26  29
ATOM     29  C   UNL     1      -0.984  10.584  19.259  0.00  0.00    +0.000 C 
ATOM     30  N   UNL     1      -2.104  10.406  18.619  0.00  0.00    +0.000 NA
ATOM     31  N   UNL     1      -0.843  11.716  20.046  0.00  0.00    +0.000 N 
ATOM     32  C   UNL     1      -0.104  11.753  21.298  0.00  0.00    +0.000 C 
ATOM     33  C   UNL     1      -1.640  12.908  19.765  0.00  0.00    +0.000 C 
ATOM     34  H   UNL     1      -2.070   9.591  18.006  0.00  0.00    +0.000 HD
ENDBRANCH  26  29
ENDBRANCH   8  23
TORSDOF 4
ENDMDL
MODEL 8
REMARK VINA RESULT:      -7.9      4.386      7.721
REMARK  Name = 
REMARK  8 active torsions:
REMARK  status: ('A' for Active; 'I' for Inactive)
REMARK    1  A    between atoms: C_1  and  N_2
REMARK    2  A    between atoms: N_2  and  C_3
REMARK    3  A    between atoms: C_4  and  C_6
REMARK    4  A    between atoms: C_9  and  C_10
REMARK    5  A    between atoms: C_17  and  C_18
REMARK    6  A    between atoms: C_21  and  C_22
REMARK    7  A    between atoms: N_24  and  C_25
REMARK    8  A    between atoms: N_24  and  C_26
REMARK                            x       y       z     vdW  Elec       q    Type
REMARK                         _______ _______ _______ _____ _____    ______ ____
ROOT
ATOM      1  C   UNL     1       0.406  14.368  20.497  0.00  0.00    +0.000 C 
ATOM      2  C   UNL     1      -0.534  13.628  19.870  0.00  0.00    +0.000 C 
ATOM      3  C   UNL     1      -1.942  13.419  20.378  0.00  0.00    +0.000 C 
ATOM      4  C   UNL     1      -2.468  11.965  20.363  0.00  0.00    +0.000 C 
ATOM      5  C   UNL     1      -2.611  11.343  18.960  0.00  0.00    +0.000 C 
ATOM      6  C   UNL     1      -1.331  10.705  18.390  0.00  0.00    +0.000 C 
ATOM      7  C   UNL     1      -0.094  11.480  18.713  0.00  0.00    +0.000 C 
ATOM      8  C   UNL     1       1.095  11.024  19.139  0.00  0.00    +0.000 C 
ATOM      9  C   UNL     1      -0.275  12.944  18.581  0.00  0.00    +0.000 C 
ATOM     10  O   UNL     1      -0.451  13.485  17.497  0.00  0.00    +0.000 OA
ENDROOT
BRANCH   1  14
ATOM     11  C   UNL     1       4.439  15.251  19.248  0.00  0.00    +0.000 A 
ATOM     12  C   UNL     1       4.215  14.321  20.258  0.00  0.00    +0.000 A 
ATOM     13  C   UNL     1       2.910  13.989  20.633  0.00  0.00    +0.000 A 
ATOM     14  C   UNL     1       1.800  14.642  20.083  0.00  0.00    +0.000 A 
ATOM     15  C   UNL     1       2.036  15.579  19.066  0.00  0.00    +0.000 A 
ATOM     16  C   UNL     1       3.341  15.877  18.649  0.00  0.00    +0.000 A 
BRANCH  11  20
ATOM     17  C   UNL     1       7.451  17.517  18.608  0.00  0.00    +0.000 C 
ATOM     18  N   UNL     1       6.450  16.790  19.368  0.00  0.00    +0.000 N 
ATOM     19  C   UNL     1       6.245  17.233  20.745  0.00  0.00    +0.000 C 
ATOM     20  C   UNL     1       5.837  15.648  18.862  0.00  0.00    +0.000 C 
ATOM     21  N   UNL     1       6.428  14.871  18.009  0.00  0.00    +0.000 NA
ATOM     22  H   UNL     1       7.371  15.207  17.832  0.00  0.00    +0.000 HD
ENDBRANCH  11  20
ENDBRANCH   1  14
BRANCH   8  23
ATOM     23  C   UNL     1       1.440   9.607  19.266  0.00  0.00    +0.000 A 
ATOM     24  C   UNL     1       2.003   8.953  18.166  0.00  0.00    +0.000 A 
ATOM     25  C   UNL     1       2.433   7.626  18.275  0.00  0.00    +0.000 A 
ATOM     26  C   UNL     1       2.284   6.931  19.479  0.00  0.00    +0.000 A 
ATOM     27  C   UNL     1       1.664   7.574  20.564  0.00  0.00    +0.000 A 
ATOM     28  C   UNL     1       1.258   8.909  20.463  0.00  0.00    +0.000 A 
BRANCH  26  29
ATOM     29  C   UNL     1       2.914   5.570  19.650  0.00  0.00    +0.000 C 
ATOM     30  N   UNL     1       4.210   5.475  19.735  0.00  0.00    +0.000 NA
ATOM     31  N   UNL     1       2.163   4.405  19.639  0.00  0.00    +0.000 N 
ATOM     32  C   UNL     1       0.851   4.274  20.251  0.00  0.00    +0.000 C 
ATOM     33  C   UNL     1       2.765   3.149  19.193  0.00  0.00    +0.000 C 
ATOM     34  H   UNL     1       4.667   6.384  19.649  0.00  0.00    +0.000 HD
ENDBRANCH  26  29
ENDBRANCH   8  23
TORSDOF 4
ENDMDL
MODEL 9
REMARK VINA RESULT:      -7.9      4.219      8.651
REMARK  Name = 
REMARK  8 active torsions:
REMARK  status: ('A' for Active; 'I' for Inactive)
REMARK    1  A    between atoms: C_1  and  N_2
REMARK    2  A    between atoms: N_2  and  C_3
REMARK    3  A    between atoms: C_4  and  C_6
REMARK    4  A    between atoms: C_9  and  C_10
REMARK    5  A    between atoms: C_17  and  C_18
REMARK    6  A    between atoms: C_21  and  C_22
REMARK    7  A    between atoms: N_24  and  C_25
REMARK    8  A    between atoms: N_24  and  C_26
REMARK                            x       y       z     vdW  Elec       q    Type
REMARK                         _______ _______ _______ _____ _____    ______ ____
ROOT
ATOM      1  C   UNL     1      -0.690  11.058  19.236  0.00  0.00    +0.000 C 
ATOM      2  C   UNL     1      -0.729  12.117  20.072  0.00  0.00    +0.000 C 
ATOM      3  C   UNL     1      -1.775  13.208  20.027  0.00  0.00    +0.000 C 
ATOM      4  C   UNL     1      -1.255  14.662  20.098  0.00  0.00    +0.000 C 
ATOM      5  C   UNL     1      -0.557  15.035  21.421  0.00  0.00    +0.000 C 
ATOM      6  C   UNL     1       0.939  14.677  21.499  0.00  0.00    +0.000 C 
ATOM      7  C   UNL     1       1.263  13.365  20.858  0.00  0.00    +0.000 C 
ATOM      8  C   UNL     1       2.284  13.061  20.039  0.00  0.00    +0.000 C 
ATOM      9  C   UNL     1       0.265  12.312  21.153  0.00  0.00    +0.000 C 
ATOM     10  O   UNL     1       0.125  11.841  22.275  0.00  0.00    +0.000 OA
ENDROOT
BRANCH   1  14
ATOM     11  C   UNL     1       2.092   7.760  19.218  0.00  0.00    +0.000 A 
ATOM     12  C   UNL     1       1.862   8.480  18.049  0.00  0.00    +0.000 A 
ATOM     13  C   UNL     1       1.004   9.582  18.058  0.00  0.00    +0.000 A 
ATOM     14  C   UNL     1       0.278   9.938  19.201  0.00  0.00    +0.000 A 
ATOM     15  C   UNL     1       0.515   9.207  20.375  0.00  0.00    +0.000 A 
ATOM     16  C   UNL     1       1.416   8.132  20.384  0.00  0.00    +0.000 A 
BRANCH  11  20
ATOM     17  C   UNL     1       4.070   4.796  17.835  0.00  0.00    +0.000 C 
ATOM     18  N   UNL     1       3.733   6.183  18.104  0.00  0.00    +0.000 N 
ATOM     19  C   UNL     1       4.359   7.174  17.232  0.00  0.00    +0.000 C 
ATOM     20  C   UNL     1       2.981   6.548  19.216  0.00  0.00    +0.000 C 
ATOM     21  N   UNL     1       2.987   5.851  20.309  0.00  0.00    +0.000 NA
ATOM     22  H   UNL     1       3.634   5.072  20.218  0.00  0.00    +0.000 HD
ENDBRANCH  11  20
ENDBRANCH   1  14
BRANCH   8  23
ATOM     23  C   UNL     1       3.372  13.978  19.700  0.00  0.00    +0.000 A 
ATOM     24  C   UNL     1       4.139  14.522  20.735  0.00  0.00    +0.000 A 
ATOM     25  C   UNL     1       5.246  15.326  20.450  0.00  0.00    +0.000 A 
ATOM     26  C   UNL     1       5.588  15.616  19.125  0.00  0.00    +0.000 A 
ATOM     27  C   UNL     1       4.780  15.117  18.090  0.00  0.00    +0.000 A 
ATOM     28  C   UNL     1       3.688  14.290  18.375  0.00  0.00    +0.000 A 
BRANCH  26  29
ATOM     29  C   UNL     1       6.883  16.326  18.815  0.00  0.00    +0.000 C 
ATOM     30  N   UNL     1       6.897  17.626  18.755  0.00  0.00    +0.000 NA
ATOM     31  N   UNL     1       8.047  15.636  18.514  0.00  0.00    +0.000 N 
ATOM     32  C   UNL     1       8.459  14.405  19.168  0.00  0.00    +0.000 C 
ATOM     33  C   UNL     1       9.060  16.247  17.655  0.00  0.00    +0.000 C 
ATOM     34  H   UNL     1       5.971  18.027  18.911  0.00  0.00    +0.000 HD
ENDBRANCH  26  29
ENDBRANCH   8  23
TORSDOF 4
ENDMDL
