MODEL 1
REMARK VINA RESULT:      -7.0      0.000      0.000
REMARK  Name = 
REMARK  6 active torsions:
REMARK  status: ('A' for Active; 'I' for Inactive)
REMARK    1  A    between atoms: C_1  and  C_2
REMARK    2  A    between atoms: C_3  and  N_4
REMARK    3  A    between atoms: C_10  and  N_11
REMARK    4  A    between atoms: C_16  and  C_17
REMARK    5  A    between atoms: C_17  and  O_19
REMARK    6  A    between atoms: N_21  and  C_22
REMARK                            x       y       z     vdW  Elec       q    Type
REMARK                         _______ _______ _______ _____ _____    ______ ____
ROOT
ATOM      1  C   UNL     1       2.548   9.139  17.725  0.00  0.00    +0.000 C 
ATOM      2  C   UNL     1       2.080   8.350  18.921  0.00  0.00    +0.000 A 
ATOM      3  C   UNL     1       1.136   8.960  19.851  0.00  0.00    +0.000 A 
ATOM      4  C   UNL     1       0.736   8.189  20.983  0.00  0.00    +0.000 A 
ATOM      5  C   UNL     1       1.213   6.894  21.155  0.00  0.00    +0.000 A 
ATOM      6  C   UNL     1       2.059   6.296  20.222  0.00  0.00    +0.000 A 
ATOM      7  C   UNL     1       2.444   4.891  20.497  0.00  0.00    +0.000 A 
ATOM      8  O   UNL     1       2.004   4.266  21.460  0.00  0.00    +0.000 OA
ATOM      9  C   UNL     1       3.371   4.231  19.580  0.00  0.00    +0.000 A 
ATOM     10  C   UNL     1       3.802   4.958  18.544  0.00  0.00    +0.000 A 
ATOM     11  N   UNL     1       3.432   6.258  18.212  0.00  0.00    +0.000 N 
ATOM     12  C   UNL     1       2.541   6.992  19.091  0.00  0.00    +0.000 A 
ENDROOT
BRANCH   3  13
ATOM     13  N   UNL     1       0.540  10.200  19.567  0.00  0.00    +0.000 N 
ATOM     14  C   UNL     1      -0.885  10.323  19.189  0.00  0.00    +0.000 C 
ATOM     15  C   UNL     1      -1.088  11.482  18.200  0.00  0.00    +0.000 C 
ATOM     16  O   UNL     1      -0.544  12.716  18.698  0.00  0.00    +0.000 OA
ATOM     17  C   UNL     1       0.852  12.556  19.015  0.00  0.00    +0.000 C 
ATOM     18  C   UNL     1       1.048  11.478  20.109  0.00  0.00    +0.000 C 
ENDBRANCH   3  13
BRANCH   4  19
ATOM     19  N   UNL     1       0.066   8.714  22.106  0.00  0.00    +0.000 N 
ATOM     20  H   UNL     1      -0.920   8.540  22.163  0.00  0.00    +0.000 HD
ATOM     21  H   UNL     1       0.548   8.566  22.987  0.00  0.00    +0.000 HD
ENDBRANCH   4  19
BRANCH  11  22
ATOM     22  C   UNL     1       4.123   6.831  17.025  0.00  0.00    +0.000 C 
ATOM     23  C   UNL     1       5.613   7.112  16.927  0.00  0.00    +0.000 C 
ATOM     24  C   UNL     1       5.033   5.971  16.172  0.00  0.00    +0.000 C 
ENDBRANCH  11  22
BRANCH   9  25
ATOM     25  C   UNL     1       3.842   2.839  19.747  0.00  0.00    +0.000 C 
ATOM     26  O   UNL     1       4.990   2.560  20.060  0.00  0.00    +0.000 OA
BRANCH  25  27
ATOM     27  O   UNL     1       2.907   1.891  19.520  0.00  0.00    +0.000 OA
ATOM     28  H   UNL     1       1.999   2.255  19.374  0.00  0.00    +0.000 HD
ENDBRANCH  25  27
ENDBRANCH   9  25
TORSDOF 5
ENDMDL
MODEL 2
REMARK VINA RESULT:      -6.9      2.722      4.335
REMARK  Name = 
REMARK  6 active torsions:
REMARK  status: ('A' for Active; 'I' for Inactive)
REMARK    1  A    between atoms: C_1  and  C_2
REMARK    2  A    between atoms: C_3  and  N_4
REMARK    3  A    between atoms: C_10  and  N_11
REMARK    4  A    between atoms: C_16  and  C_17
REMARK    5  A    between atoms: C_17  and  O_19
REMARK    6  A    between atoms: N_21  and  C_22
REMARK                            x       y       z     vdW  Elec       q    Type
REMARK                         _______ _______ _______ _____ _____    ______ ____
ROOT
ATOM      1  C   UNL     1       1.959   5.708  20.774  0.00  0.00    +0.000 C 
ATOM      2  C   UNL     1       2.443   6.524  19.604  0.00  0.00    +0.000 A 
ATOM      3  C   UNL     1       1.981   7.900  19.454  0.00  0.00    +0.000 A 
ATOM      4  C   UNL     1       2.445   8.631  18.320  0.00  0.00    +0.000 A 
ATOM      5  C   UNL     1       3.331   8.046  17.422  0.00  0.00    +0.000 A 
ATOM      6  C   UNL     1       3.821   6.755  17.613  0.00  0.00    +0.000 A 
ATOM      7  C   UNL     1       4.805   6.276  16.614  0.00  0.00    +0.000 A 
ATOM      8  O   UNL     1       5.211   6.989  15.697  0.00  0.00    +0.000 OA
ATOM      9  C   UNL     1       5.313   4.910  16.735  0.00  0.00    +0.000 A 
ATOM     10  C   UNL     1       4.845   4.191  17.760  0.00  0.00    +0.000 A 
ATOM     11  N   UNL     1       3.965   4.608  18.752  0.00  0.00    +0.000 N 
ATOM     12  C   UNL     1       3.391   5.940  18.683  0.00  0.00    +0.000 A 
ENDROOT
BRANCH   3  13
ATOM     13  N   UNL     1       1.224   8.522  20.462  0.00  0.00    +0.000 N 
ATOM     14  C   UNL     1       1.837   9.404  21.478  0.00  0.00    +0.000 C 
ATOM     15  C   UNL     1       1.095   9.287  22.819  0.00  0.00    +0.000 C 
ATOM     16  O   UNL     1      -0.318   9.513  22.675  0.00  0.00    +0.000 OA
ATOM     17  C   UNL     1      -0.874   8.605  21.704  0.00  0.00    +0.000 C 
ATOM     18  C   UNL     1      -0.218   8.813  20.317  0.00  0.00    +0.000 C 
ENDBRANCH   3  13
BRANCH   4  19
ATOM     19  N   UNL     1       1.891   9.848  17.878  0.00  0.00    +0.000 N 
ATOM     20  H   UNL     1       2.401  10.683  18.104  0.00  0.00    +0.000 HD
ATOM     21  H   UNL     1       1.558   9.833  16.920  0.00  0.00    +0.000 HD
ENDBRANCH   4  19
BRANCH  11  22
ATOM     22  C   UNL     1       3.579   3.563  19.739  0.00  0.00    +0.000 C 
ATOM     23  C   UNL     1       2.585   2.441  19.486  0.00  0.00    +0.000 C 
ATOM     24  C   UNL     1       4.037   2.130  19.564  0.00  0.00    +0.000 C 
ENDBRANCH  11  22
BRANCH   9  25
ATOM     25  C   UNL     1       6.287   4.309  15.798  0.00  0.00    +0.000 C 
ATOM     26  O   UNL     1       5.985   3.439  14.996  0.00  0.00    +0.000 OA
BRANCH  25  27
ATOM     27  O   UNL     1       7.545   4.789  15.900  0.00  0.00    +0.000 OA
ATOM     28  H   UNL     1       7.960   4.634  16.784  0.00  0.00    +0.000 HD
ENDBRANCH  25  27
ENDBRANCH   9  25
TORSDOF 5
ENDMDL
MODEL 3
REMARK VINA RESULT:      -6.8      2.058      3.581
REMARK  Name = 
REMARK  6 active torsions:
REMARK  status: ('A' for Active; 'I' for Inactive)
REMARK    1  A    between atoms: C_1  and  C_2
REMARK    2  A    between atoms: C_3  and  N_4
REMARK    3  A    between atoms: C_10  and  N_11
REMARK    4  A    between atoms: C_16  and  C_17
REMARK    5  A    between atoms: C_17  and  O_19
REMARK    6  A    between atoms: N_21  and  C_22
REMARK                            x       y       z     vdW  Elec       q    Type
REMARK                         _______ _______ _______ _____ _____    ______ ____
ROOT
ATOM      1  C   UNL     1       0.800   7.228  21.192  0.00  0.00    +0.000 C 
ATOM      2  C   UNL     1       1.556   7.672  19.966  0.00  0.00    +0.000 A 
ATOM      3  C   UNL     1       1.330   9.013  19.436  0.00  0.00    +0.000 A 
ATOM      4  C   UNL     1       2.047   9.385  18.261  0.00  0.00    +0.000 A 
ATOM      5  C   UNL     1       2.949   8.501  17.678  0.00  0.00    +0.000 A 
ATOM      6  C   UNL     1       3.208   7.249  18.233  0.00  0.00    +0.000 A 
ATOM      7  C   UNL     1       4.235   6.431  17.545  0.00  0.00    +0.000 A 
ATOM      8  O   UNL     1       4.864   6.847  16.573  0.00  0.00    +0.000 OA
ATOM      9  C   UNL     1       4.511   5.088  18.053  0.00  0.00    +0.000 A 
ATOM     10  C   UNL     1       3.806   4.700  19.121  0.00  0.00    +0.000 A 
ATOM     11  N   UNL     1       2.872   5.445  19.833  0.00  0.00    +0.000 N 
ATOM     12  C   UNL     1       2.520   6.776  19.372  0.00  0.00    +0.000 A 
ENDROOT
BRANCH   3  13
ATOM     13  N   UNL     1       0.546   9.944  20.138  0.00  0.00    +0.000 N 
ATOM     14  C   UNL     1      -0.906  10.092  19.899  0.00  0.00    +0.000 C 
ATOM     15  C   UNL     1      -1.344  11.553  20.093  0.00  0.00    +0.000 C 
ATOM     16  O   UNL     1      -0.942  12.070  21.374  0.00  0.00    +0.000 OA
ATOM     17  C   UNL     1       0.483  11.938  21.543  0.00  0.00    +0.000 C 
ATOM     18  C   UNL     1       0.910  10.451  21.478  0.00  0.00    +0.000 C 
ENDBRANCH   3  13
BRANCH   4  19
ATOM     19  N   UNL     1       1.747  10.513  17.471  0.00  0.00    +0.000 N 
ATOM     20  H   UNL     1       0.776  10.689  17.289  0.00  0.00    +0.000 HD
ATOM     21  H   UNL     1       2.263  11.349  17.723  0.00  0.00    +0.000 HD
ENDBRANCH   4  19
BRANCH  11  22
ATOM     22  C   UNL     1       2.204   4.725  20.951  0.00  0.00    +0.000 C 
ATOM     23  C   UNL     1       1.129   3.662  20.792  0.00  0.00    +0.000 C 
ATOM     24  C   UNL     1       2.498   3.261  21.210  0.00  0.00    +0.000 C 
ENDBRANCH  11  22
BRANCH   9  25
ATOM     25  C   UNL     1       5.501   4.168  17.451  0.00  0.00    +0.000 C 
ATOM     26  O   UNL     1       5.311   3.591  16.391  0.00  0.00    +0.000 OA
BRANCH  25  27
ATOM     27  O   UNL     1       6.634   4.006  18.167  0.00  0.00    +0.000 OA
ATOM     28  H   UNL     1       7.286   4.741  18.053  0.00  0.00    +0.000 HD
ENDBRANCH  25  27
ENDBRANCH   9  25
TORSDOF 5
ENDMDL
MODEL 4
REMARK VINA RESULT:      -6.7      2.520      4.080
REMARK  Name = 
REMARK  6 active torsions:
REMARK  status: ('A' for Active; 'I' for Inactive)
REMARK    1  A    between atoms: C_1  and  C_2
REMARK    2  A    between atoms: C_3  and  N_4
REMARK    3  A    between atoms: C_10  and  N_11
REMARK    4  A    between atoms: C_16  and  C_17
REMARK    5  A    between atoms: C_17  and  O_19
REMARK    6  A    between atoms: N_21  and  C_22
REMARK                            x       y       z     vdW  Elec       q    Type
REMARK                         _______ _______ _______ _____ _____    ______ ____
ROOT
ATOM      1  C   UNL     1       1.761   5.920  20.686  0.00  0.00    +0.000 C 
ATOM      2  C   UNL     1       2.331   6.692  19.524  0.00  0.00    +0.000 A 
ATOM      3  C   UNL     1       1.911   8.073  19.311  0.00  0.00    +0.000 A 
ATOM      4  C   UNL     1       2.456   8.761  18.187  0.00  0.00    +0.000 A 
ATOM      5  C   UNL     1       3.377   8.132  17.357  0.00  0.00    +0.000 A 
ATOM      6  C   UNL     1       3.824   6.836  17.610  0.00  0.00    +0.000 A 
ATOM      7  C   UNL     1       4.852   6.308  16.682  0.00  0.00    +0.000 A 
ATOM      8  O   UNL     1       5.326   6.986  15.772  0.00  0.00    +0.000 OA
ATOM      9  C   UNL     1       5.319   4.935  16.868  0.00  0.00    +0.000 A 
ATOM     10  C   UNL     1       4.777   4.255  17.883  0.00  0.00    +0.000 A 
ATOM     11  N   UNL     1       3.851   4.720  18.812  0.00  0.00    +0.000 N 
ATOM     12  C   UNL     1       3.314   6.062  18.675  0.00  0.00    +0.000 A 
ENDROOT
BRANCH   3  13
ATOM     13  N   UNL     1       1.113   8.740  20.257  0.00  0.00    +0.000 N 
ATOM     14  C   UNL     1      -0.181   9.360  19.900  0.00  0.00    +0.000 C 
ATOM     15  C   UNL     1      -0.434  10.618  20.748  0.00  0.00    +0.000 C 
ATOM     16  O   UNL     1      -0.323  10.350  22.156  0.00  0.00    +0.000 OA
ATOM     17  C   UNL     1       0.967   9.783  22.458  0.00  0.00    +0.000 C 
ATOM     18  C   UNL     1       1.170   8.445  21.704  0.00  0.00    +0.000 C 
ENDBRANCH   3  13
BRANCH   4  19
ATOM     19  N   UNL     1       1.956   9.978  17.682  0.00  0.00    +0.000 N 
ATOM     20  H   UNL     1       1.340   9.918  16.892  0.00  0.00    +0.000 HD
ATOM     21  H   UNL     1       1.630  10.624  18.393  0.00  0.00    +0.000 HD
ENDBRANCH   4  19
BRANCH  11  22
ATOM     22  C   UNL     1       3.386   3.711  19.803  0.00  0.00    +0.000 C 
ATOM     23  C   UNL     1       2.465   2.541  19.497  0.00  0.00    +0.000 C 
ATOM     24  C   UNL     1       3.907   2.289  19.759  0.00  0.00    +0.000 C 
ENDBRANCH  11  22
BRANCH   9  25
ATOM     25  C   UNL     1       6.330   4.286  16.005  0.00  0.00    +0.000 C 
ATOM     26  O   UNL     1       6.062   3.370  15.243  0.00  0.00    +0.000 OA
BRANCH  25  27
ATOM     27  O   UNL     1       7.581   4.779  16.126  0.00  0.00    +0.000 OA
ATOM     28  H   UNL     1       7.692   5.401  16.887  0.00  0.00    +0.000 HD
ENDBRANCH  25  27
ENDBRANCH   9  25
TORSDOF 5
ENDMDL
MODEL 5
REMARK VINA RESULT:      -6.7      0.520      1.084
REMARK  Name = 
REMARK  6 active torsions:
REMARK  status: ('A' for Active; 'I' for Inactive)
REMARK    1  A    between atoms: C_1  and  C_2
REMARK    2  A    between atoms: C_3  and  N_4
REMARK    3  A    between atoms: C_10  and  N_11
REMARK    4  A    between atoms: C_16  and  C_17
REMARK    5  A    between atoms: C_17  and  O_19
REMARK    6  A    between atoms: N_21  and  C_22
REMARK                            x       y       z     vdW  Elec       q    Type
REMARK                         _______ _______ _______ _____ _____    ______ ____
ROOT
ATOM      1  C   UNL     1       2.712   8.842  17.574  0.00  0.00    +0.000 C 
ATOM      2  C   UNL     1       2.257   8.070  18.786  0.00  0.00    +0.000 A 
ATOM      3  C   UNL     1       1.331   8.696  19.724  0.00  0.00    +0.000 A 
ATOM      4  C   UNL     1       0.944   7.940  20.870  0.00  0.00    +0.000 A 
ATOM      5  C   UNL     1       1.417   6.645  21.050  0.00  0.00    +0.000 A 
ATOM      6  C   UNL     1       2.245   6.032  20.112  0.00  0.00    +0.000 A 
ATOM      7  C   UNL     1       2.627   4.628  20.397  0.00  0.00    +0.000 A 
ATOM      8  O   UNL     1       2.198   4.016  21.374  0.00  0.00    +0.000 OA
ATOM      9  C   UNL     1       3.537   3.951  19.474  0.00  0.00    +0.000 A 
ATOM     10  C   UNL     1       3.956   4.665  18.423  0.00  0.00    +0.000 A 
ATOM     11  N   UNL     1       3.588   5.962  18.082  0.00  0.00    +0.000 N 
ATOM     12  C   UNL     1       2.714   6.712  18.966  0.00  0.00    +0.000 A 
ENDROOT
BRANCH   3  13
ATOM     13  N   UNL     1       0.737   9.936  19.434  0.00  0.00    +0.000 N 
ATOM     14  C   UNL     1       1.407  11.220  19.730  0.00  0.00    +0.000 C 
ATOM     15  C   UNL     1       0.377  12.299  20.104  0.00  0.00    +0.000 C 
ATOM     16  O   UNL     1      -0.650  12.432  19.106  0.00  0.00    +0.000 OA
ATOM     17  C   UNL     1      -1.297  11.165  18.880  0.00  0.00    +0.000 C 
ATOM     18  C   UNL     1      -0.282  10.110  18.377  0.00  0.00    +0.000 C 
ENDBRANCH   3  13
BRANCH   4  19
ATOM     19  N   UNL     1       0.294   8.482  21.997  0.00  0.00    +0.000 N 
ATOM     20  H   UNL     1       0.764   9.232  22.469  0.00  0.00    +0.000 HD
ATOM     21  H   UNL     1      -0.698   8.653  21.865  0.00  0.00    +0.000 HD
ENDBRANCH   4  19
BRANCH  11  22
ATOM     22  C   UNL     1       4.264   6.518  16.878  0.00  0.00    +0.000 C 
ATOM     23  C   UNL     1       5.736   6.886  16.789  0.00  0.00    +0.000 C 
ATOM     24  C   UNL     1       5.240   5.675  16.083  0.00  0.00    +0.000 C 
ENDBRANCH  11  22
BRANCH   9  25
ATOM     25  C   UNL     1       4.003   2.559  19.651  0.00  0.00    +0.000 C 
ATOM     26  O   UNL     1       4.891   2.251  20.431  0.00  0.00    +0.000 OA
BRANCH  25  27
ATOM     27  O   UNL     1       3.377   1.648  18.876  0.00  0.00    +0.000 OA
ATOM     28  H   UNL     1       2.912   2.040  18.096  0.00  0.00    +0.000 HD
ENDBRANCH  25  27
ENDBRANCH   9  25
TORSDOF 5
ENDMDL
MODEL 6
REMARK VINA RESULT:      -6.5      1.558      7.447
REMARK  Name = 
REMARK  6 active torsions:
REMARK  status: ('A' for Active; 'I' for Inactive)
REMARK    1  A    between atoms: C_1  and  C_2
REMARK    2  A    between atoms: C_3  and  N_4
REMARK    3  A    between atoms: C_10  and  N_11
REMARK    4  A    between atoms: C_16  and  C_17
REMARK    5  A    between atoms: C_17  and  O_19
REMARK    6  A    between atoms: N_21  and  C_22
REMARK                            x       y       z     vdW  Elec       q    Type
REMARK                         _______ _______ _______ _____ _____    ______ ____
ROOT
ATOM      1  C   UNL     1       1.729   5.928  20.836  0.00  0.00    +0.000 C 
ATOM      2  C   UNL     1       2.244   6.710  19.655  0.00  0.00    +0.000 A 
ATOM      3  C   UNL     1       3.061   6.034  18.653  0.00  0.00    +0.000 A 
ATOM      4  C   UNL     1       3.547   6.815  17.564  0.00  0.00    +0.000 A 
ATOM      5  C   UNL     1       3.216   8.162  17.461  0.00  0.00    +0.000 A 
ATOM      6  C   UNL     1       2.377   8.781  18.387  0.00  0.00    +0.000 A 
ATOM      7  C   UNL     1       2.055  10.204  18.126  0.00  0.00    +0.000 A 
ATOM      8  O   UNL     1       2.458  10.796  17.126  0.00  0.00    +0.000 OA
ATOM      9  C   UNL     1       1.223  10.919  19.092  0.00  0.00    +0.000 A 
ATOM     10  C   UNL     1       0.804  10.217  20.150  0.00  0.00    +0.000 A 
ATOM     11  N   UNL     1       1.032   8.870  20.415  0.00  0.00    +0.000 N 
ATOM     12  C   UNL     1       1.878   8.100  19.520  0.00  0.00    +0.000 A 
ENDROOT
BRANCH   3  13
ATOM     13  N   UNL     1       3.240   4.640  18.688  0.00  0.00    +0.000 N 
ATOM     14  C   UNL     1       2.529   3.730  17.765  0.00  0.00    +0.000 C 
ATOM     15  C   UNL     1       2.227   2.387  18.450  0.00  0.00    +0.000 C 
ATOM     16  O   UNL     1       3.409   1.789  19.009  0.00  0.00    +0.000 OA
ATOM     17  C   UNL     1       4.043   2.699  19.929  0.00  0.00    +0.000 C 
ATOM     18  C   UNL     1       4.468   4.003  19.209  0.00  0.00    +0.000 C 
ENDBRANCH   3  13
BRANCH   4  19
ATOM     19  N   UNL     1       4.560   6.399  16.676  0.00  0.00    +0.000 N 
ATOM     20  H   UNL     1       4.562   5.428  16.420  0.00  0.00    +0.000 HD
ATOM     21  H   UNL     1       4.705   7.019  15.886  0.00  0.00    +0.000 HD
ENDBRANCH   4  19
BRANCH  11  22
ATOM     22  C   UNL     1       0.484   8.375  21.706  0.00  0.00    +0.000 C 
ATOM     23  C   UNL     1       0.646   9.065  23.051  0.00  0.00    +0.000 C 
ATOM     24  C   UNL     1      -0.677   9.083  22.374  0.00  0.00    +0.000 C 
ENDBRANCH  11  22
BRANCH   9  25
ATOM     25  C   UNL     1       0.840  12.341  18.955  0.00  0.00    +0.000 C 
ATOM     26  O   UNL     1       1.123  13.187  19.790  0.00  0.00    +0.000 OA
BRANCH  25  27
ATOM     27  O   UNL     1       0.144  12.637  17.837  0.00  0.00    +0.000 OA
ATOM     28  H   UNL     1       0.175  11.927  17.149  0.00  0.00    +0.000 HD
ENDBRANCH  25  27
ENDBRANCH   9  25
TORSDOF 5
ENDMDL
MODEL 7
REMARK VINA RESULT:      -6.2      1.602      7.509
REMARK  Name = 
REMARK  6 active torsions:
REMARK  status: ('A' for Active; 'I' for Inactive)
REMARK    1  A    between atoms: C_1  and  C_2
REMARK    2  A    between atoms: C_3  and  N_4
REMARK    3  A    between atoms: C_10  and  N_11
REMARK    4  A    between atoms: C_16  and  C_17
REMARK    5  A    between atoms: C_17  and  O_19
REMARK    6  A    between atoms: N_21  and  C_22
REMARK                            x       y       z     vdW  Elec       q    Type
REMARK                         _______ _______ _______ _____ _____    ______ ____
ROOT
ATOM      1  C   UNL     1       1.376   6.140  21.018  0.00  0.00    +0.000 C 
ATOM      2  C   UNL     1       1.954   6.863  19.829  0.00  0.00    +0.000 A 
ATOM      3  C   UNL     1       2.746   6.118  18.857  0.00  0.00    +0.000 A 
ATOM      4  C   UNL     1       3.294   6.844  17.759  0.00  0.00    +0.000 A 
ATOM      5  C   UNL     1       3.043   8.205  17.620  0.00  0.00    +0.000 A 
ATOM      6  C   UNL     1       2.226   8.892  18.517  0.00  0.00    +0.000 A 
ATOM      7  C   UNL     1       1.992  10.325  18.218  0.00  0.00    +0.000 A 
ATOM      8  O   UNL     1       2.444  10.869  17.212  0.00  0.00    +0.000 OA
ATOM      9  C   UNL     1       1.186  11.109  19.153  0.00  0.00    +0.000 A 
ATOM     10  C   UNL     1       0.711  10.457  20.220  0.00  0.00    +0.000 A 
ATOM     11  N   UNL     1       0.857   9.107  20.518  0.00  0.00    +0.000 N 
ATOM     12  C   UNL     1       1.671   8.269  19.655  0.00  0.00    +0.000 A 
ENDROOT
BRANCH   3  13
ATOM     13  N   UNL     1       2.844   4.718  18.926  0.00  0.00    +0.000 N 
ATOM     14  C   UNL     1       3.705   4.035  19.916  0.00  0.00    +0.000 C 
ATOM     15  C   UNL     1       4.276   2.732  19.334  0.00  0.00    +0.000 C 
ATOM     16  O   UNL     1       3.243   1.873  18.820  0.00  0.00    +0.000 OA
ATOM     17  C   UNL     1       2.458   2.570  17.834  0.00  0.00    +0.000 C 
ATOM     18  C   UNL     1       1.774   3.814  18.453  0.00  0.00    +0.000 C 
ENDBRANCH   3  13
BRANCH   4  19
ATOM     19  N   UNL     1       4.295   6.349  16.899  0.00  0.00    +0.000 N 
ATOM     20  H   UNL     1       3.997   6.045  15.990  0.00  0.00    +0.000 HD
ATOM     21  H   UNL     1       5.140   6.911  16.873  0.00  0.00    +0.000 HD
ENDBRANCH   4  19
BRANCH  11  22
ATOM     22  C   UNL     1       0.260   8.674  21.811  0.00  0.00    +0.000 C 
ATOM     23  C   UNL     1       0.647   9.211  23.179  0.00  0.00    +0.000 C 
ATOM     24  C   UNL     1      -0.659   9.598  22.584  0.00  0.00    +0.000 C 
ENDBRANCH  11  22
BRANCH   9  25
ATOM     25  C   UNL     1       0.889  12.547  18.977  0.00  0.00    +0.000 C 
ATOM     26  O   UNL     1       1.255  13.402  19.770  0.00  0.00    +0.000 OA
BRANCH  25  27
ATOM     27  O   UNL     1       0.171  12.848  17.874  0.00  0.00    +0.000 OA
ATOM     28  H   UNL     1       0.711  12.885  17.046  0.00  0.00    +0.000 HD
ENDBRANCH  25  27
ENDBRANCH   9  25
TORSDOF 5
ENDMDL
MODEL 8
REMARK VINA RESULT:      -6.2      2.846      4.297
REMARK  Name = 
REMARK  6 active torsions:
REMARK  status: ('A' for Active; 'I' for Inactive)
REMARK    1  A    between atoms: C_1  and  C_2
REMARK    2  A    between atoms: C_3  and  N_4
REMARK    3  A    between atoms: C_10  and  N_11
REMARK    4  A    between atoms: C_16  and  C_17
REMARK    5  A    between atoms: C_17  and  O_19
REMARK    6  A    between atoms: N_21  and  C_22
REMARK                            x       y       z     vdW  Elec       q    Type
REMARK                         _______ _______ _______ _____ _____    ______ ____
ROOT
ATOM      1  C   UNL     1       2.145   5.181  20.770  0.00  0.00    +0.000 C 
ATOM      2  C   UNL     1       2.570   6.094  19.649  0.00  0.00    +0.000 A 
ATOM      3  C   UNL     1       2.061   7.461  19.612  0.00  0.00    +0.000 A 
ATOM      4  C   UNL     1       2.469   8.286  18.522  0.00  0.00    +0.000 A 
ATOM      5  C   UNL     1       3.347   7.797  17.561  0.00  0.00    +0.000 A 
ATOM      6  C   UNL     1       3.882   6.513  17.645  0.00  0.00    +0.000 A 
ATOM      7  C   UNL     1       4.852   6.140  16.588  0.00  0.00    +0.000 A 
ATOM      8  O   UNL     1       5.209   6.930  15.716  0.00  0.00    +0.000 OA
ATOM      9  C   UNL     1       5.407   4.787  16.597  0.00  0.00    +0.000 A 
ATOM     10  C   UNL     1       4.991   3.980  17.579  0.00  0.00    +0.000 A 
ATOM     11  N   UNL     1       4.126   4.296  18.622  0.00  0.00    +0.000 N 
ATOM     12  C   UNL     1       3.509   5.609  18.665  0.00  0.00    +0.000 A 
ENDROOT
BRANCH   3  13
ATOM     13  N   UNL     1       1.313   7.983  20.681  0.00  0.00    +0.000 N 
ATOM     14  C   UNL     1      -0.074   7.552  20.959  0.00  0.00    +0.000 C 
ATOM     15  C   UNL     1      -0.900   8.714  21.536  0.00  0.00    +0.000 C 
ATOM     16  O   UNL     1      -0.268   9.305  22.684  0.00  0.00    +0.000 OA
ATOM     17  C   UNL     1       1.065   9.742  22.353  0.00  0.00    +0.000 C 
ATOM     18  C   UNL     1       1.938   8.548  21.896  0.00  0.00    +0.000 C 
ENDBRANCH   3  13
BRANCH   4  19
ATOM     19  N   UNL     1       1.864   9.513  18.184  0.00  0.00    +0.000 N 
ATOM     20  H   UNL     1       1.720  10.165  18.933  0.00  0.00    +0.000 HD
ATOM     21  H   UNL     1       2.237   9.946  17.346  0.00  0.00    +0.000 HD
ENDBRANCH   4  19
BRANCH  11  22
ATOM     22  C   UNL     1       3.802   3.171  19.540  0.00  0.00    +0.000 C 
ATOM     23  C   UNL     1       2.655   2.191  19.357  0.00  0.00    +0.000 C 
ATOM     24  C   UNL     1       4.051   1.736  19.121  0.00  0.00    +0.000 C 
ENDBRANCH  11  22
BRANCH   9  25
ATOM     25  C   UNL     1       6.372   4.287  15.594  0.00  0.00    +0.000 C 
ATOM     26  O   UNL     1       7.495   4.749  15.467  0.00  0.00    +0.000 OA
BRANCH  25  27
ATOM     27  O   UNL     1       5.915   3.280  14.818  0.00  0.00    +0.000 OA
ATOM     28  H   UNL     1       6.542   2.519  14.743  0.00  0.00    +0.000 HD
ENDBRANCH  25  27
ENDBRANCH   9  25
TORSDOF 5
ENDMDL
MODEL 9
REMARK VINA RESULT:      -6.1      2.562      6.977
REMARK  Name = 
REMARK  6 active torsions:
REMARK  status: ('A' for Active; 'I' for Inactive)
REMARK    1  A    between atoms: C_1  and  C_2
REMARK    2  A    between atoms: C_3  and  N_4
REMARK    3  A    between atoms: C_10  and  N_11
REMARK    4  A    between atoms: C_16  and  C_17
REMARK    5  A    between atoms: C_17  and  O_19
REMARK    6  A    between atoms: N_21  and  C_22
REMARK                            x       y       z     vdW  Elec       q    Type
REMARK                         _______ _______ _______ _____ _____    ______ ____
ROOT
ATOM      1  C   UNL     1       1.304   9.315  17.585  0.00  0.00    +0.000 C 
ATOM      2  C   UNL     1       1.252   8.874  19.025  0.00  0.00    +0.000 A 
ATOM      3  C   UNL     1       1.881   7.614  19.408  0.00  0.00    +0.000 A 
ATOM      4  C   UNL     1       1.788   7.222  20.776  0.00  0.00    +0.000 A 
ATOM      5  C   UNL     1       1.149   8.041  21.701  0.00  0.00    +0.000 A 
ATOM      6  C   UNL     1       0.614   9.276  21.336  0.00  0.00    +0.000 A 
ATOM      7  C   UNL     1       0.015  10.075  22.431  0.00  0.00    +0.000 A 
ATOM      8  O   UNL     1       0.032   9.701  23.603  0.00  0.00    +0.000 OA
ATOM      9  C   UNL     1      -0.609  11.355  22.099  0.00  0.00    +0.000 A 
ATOM     10  C   UNL     1      -0.583  11.712  20.811  0.00  0.00    +0.000 A 
ATOM     11  N   UNL     1       0.011  11.027  19.756  0.00  0.00    +0.000 N 
ATOM     12  C   UNL     1       0.622   9.732  20.000  0.00  0.00    +0.000 A 
ENDROOT
BRANCH   3  13
ATOM     13  N   UNL     1       2.664   6.890  18.493  0.00  0.00    +0.000 N 
ATOM     14  C   UNL     1       2.190   5.637  17.867  0.00  0.00    +0.000 C 
ATOM     15  C   UNL     1       3.363   4.673  17.622  0.00  0.00    +0.000 C 
ATOM     16  O   UNL     1       4.423   5.294  16.875  0.00  0.00    +0.000 OA
ATOM     17  C   UNL     1       4.875   6.487  17.544  0.00  0.00    +0.000 C 
ATOM     18  C   UNL     1       3.724   7.515  17.675  0.00  0.00    +0.000 C 
ENDBRANCH   3  13
BRANCH   4  19
ATOM     19  N   UNL     1       2.087   5.931  21.255  0.00  0.00    +0.000 N 
ATOM     20  H   UNL     1       2.194   5.833  22.248  0.00  0.00    +0.000 HD
ATOM     21  H   UNL     1       1.528   5.192  20.840  0.00  0.00    +0.000 HD
ENDBRANCH   4  19
BRANCH  11  22
ATOM     22  C   UNL     1      -0.170  11.646  18.415  0.00  0.00    +0.000 C 
ATOM     23  C   UNL     1      -1.507  11.898  17.738  0.00  0.00    +0.000 C 
ATOM     24  C   UNL     1      -0.734  13.045  18.281  0.00  0.00    +0.000 C 
ENDBRANCH  11  22
BRANCH   9  25
ATOM     25  C   UNL     1      -1.251  12.240  23.095  0.00  0.00    +0.000 C 
ATOM     26  O   UNL     1      -0.749  13.287  23.474  0.00  0.00    +0.000 OA
BRANCH  25  27
ATOM     27  O   UNL     1      -2.439  11.800  23.564  0.00  0.00    +0.000 OA
ATOM     28  H   UNL     1      -2.734  12.255  24.391  0.00  0.00    +0.000 HD
ENDBRANCH  25  27
ENDBRANCH   9  25
TORSDOF 5
ENDMDL
