MODEL 1
REMARK VINA RESULT:      -8.1      0.000      0.000
REMARK  Name = 
REMARK  3 active torsions:
REMARK  status: ('A' for Active; 'I' for Inactive)
REMARK    1  A    between atoms: C_4  and  C_5
REMARK    2  A    between atoms: C_8  and  C_9
REMARK    3  A    between atoms: C_14  and  C_15
REMARK                            x       y       z     vdW  Elec       q    Type
REMARK                         _______ _______ _______ _____ _____    ______ ____
ROOT
ATOM      1  C   UNL     1       3.771   3.969  19.657  0.00  0.00    +0.000 A 
ATOM      2  C   UNL     1       3.745   2.713  20.303  0.00  0.00    +0.000 A 
ATOM      3  C   UNL     1       2.716   2.364  21.178  0.00  0.00    +0.000 A 
ATOM      4  C   UNL     1       1.703   3.274  21.445  0.00  0.00    +0.000 A 
ATOM      5  C   UNL     1       1.721   4.532  20.838  0.00  0.00    +0.000 A 
ATOM      6  C   UNL     1       2.732   4.899  19.922  0.00  0.00    +0.000 A 
ENDROOT
BRANCH   6   7
ATOM      7  C   UNL     1       2.603   6.233  19.301  0.00  0.00    +0.000 A 
ATOM      8  N   UNL     1       2.118   7.327  19.872  0.00  0.00    +0.000 NA
ATOM      9  C   UNL     1       2.161   8.313  18.912  0.00  0.00    +0.000 A 
ATOM     10  C   UNL     1       2.654   7.821  17.730  0.00  0.00    +0.000 A 
ATOM     11  N   UNL     1       2.893   6.508  17.985  0.00  0.00    +0.000 N 
ATOM     12  H   UNL     1       3.302   5.847  17.336  0.00  0.00    +0.000 HD
ENDBRANCH   6   7
BRANCH   1  16
ATOM     13  C   UNL     1       6.104   4.412  17.008  0.00  0.00    +0.000 A 
ATOM     14  N   UNL     1       6.926   4.611  18.052  0.00  0.00    +0.000 NA
ATOM     15  O   UNL     1       6.088   4.489  19.167  0.00  0.00    +0.000 OA
ATOM     16  C   UNL     1       4.839   4.216  18.689  0.00  0.00    +0.000 A 
ATOM     17  N   UNL     1       4.802   4.145  17.380  0.00  0.00    +0.000 NA
BRANCH  13  21
ATOM     18  C   UNL     1       7.133   4.544  12.969  0.00  0.00    +0.000 A 
ATOM     19  C   UNL     1       6.143   3.721  13.448  0.00  0.00    +0.000 A 
ATOM     20  N   UNL     1       5.813   3.624  14.746  0.00  0.00    +0.000 NA
ATOM     21  C   UNL     1       6.504   4.417  15.594  0.00  0.00    +0.000 A 
ATOM     22  N   UNL     1       7.479   5.280  15.225  0.00  0.00    +0.000 NA
ATOM     23  C   UNL     1       7.783   5.308  13.914  0.00  0.00    +0.000 A 
ENDBRANCH  13  21
ENDBRANCH   1  16
TORSDOF 3
ENDMDL
MODEL 2
REMARK VINA RESULT:      -8.0      0.084      1.011
REMARK  Name = 
REMARK  3 active torsions:
REMARK  status: ('A' for Active; 'I' for Inactive)
REMARK    1  A    between atoms: C_4  and  C_5
REMARK    2  A    between atoms: C_8  and  C_9
REMARK    3  A    between atoms: C_14  and  C_15
REMARK                            x       y       z     vdW  Elec       q    Type
REMARK                         _______ _______ _______ _____ _____    ______ ____
ROOT
ATOM      1  C   UNL     1       3.726   3.968  19.632  0.00  0.00    +0.000 A 
ATOM      2  C   UNL     1       3.702   2.704  20.261  0.00  0.00    +0.000 A 
ATOM      3  C   UNL     1       2.684   2.350  21.147  0.00  0.00    +0.000 A 
ATOM      4  C   UNL     1       1.681   3.262  21.442  0.00  0.00    +0.000 A 
ATOM      5  C   UNL     1       1.697   4.527  20.851  0.00  0.00    +0.000 A 
ATOM      6  C   UNL     1       2.696   4.900  19.925  0.00  0.00    +0.000 A 
ENDROOT
BRANCH   6   7
ATOM      7  C   UNL     1       2.565   6.243  19.324  0.00  0.00    +0.000 A 
ATOM      8  N   UNL     1       2.112   7.336  19.921  0.00  0.00    +0.000 NA
ATOM      9  C   UNL     1       2.138   8.333  18.972  0.00  0.00    +0.000 A 
ATOM     10  C   UNL     1       2.589   7.849  17.770  0.00  0.00    +0.000 A 
ATOM     11  N   UNL     1       2.819   6.530  18.003  0.00  0.00    +0.000 N 
ATOM     12  H   UNL     1       3.200   5.872  17.334  0.00  0.00    +0.000 HD
ENDBRANCH   6   7
BRANCH   1  16
ATOM     13  C   UNL     1       6.012   4.454  16.950  0.00  0.00    +0.000 A 
ATOM     14  N   UNL     1       6.867   4.564  17.982  0.00  0.00    +0.000 NA
ATOM     15  O   UNL     1       6.051   4.418  19.111  0.00  0.00    +0.000 OA
ATOM     16  C   UNL     1       4.781   4.222  18.651  0.00  0.00    +0.000 A 
ATOM     17  N   UNL     1       4.710   4.221  17.342  0.00  0.00    +0.000 NA
BRANCH  13  21
ATOM     18  C   UNL     1       7.160   4.515  12.942  0.00  0.00    +0.000 A 
ATOM     19  C   UNL     1       7.784   5.281  13.897  0.00  0.00    +0.000 A 
ATOM     20  N   UNL     1       7.415   5.316  15.187  0.00  0.00    +0.000 NA
ATOM     21  C   UNL     1       6.380   4.518  15.529  0.00  0.00    +0.000 A 
ATOM     22  N   UNL     1       5.713   3.708  14.675  0.00  0.00    +0.000 NA
ATOM     23  C   UNL     1       6.112   3.741  13.390  0.00  0.00    +0.000 A 
ENDBRANCH  13  21
ENDBRANCH   1  16
TORSDOF 3
ENDMDL
MODEL 3
REMARK VINA RESULT:      -7.8      3.092      7.217
REMARK  Name = 
REMARK  3 active torsions:
REMARK  status: ('A' for Active; 'I' for Inactive)
REMARK    1  A    between atoms: C_4  and  C_5
REMARK    2  A    between atoms: C_8  and  C_9
REMARK    3  A    between atoms: C_14  and  C_15
REMARK                            x       y       z     vdW  Elec       q    Type
REMARK                         _______ _______ _______ _____ _____    ______ ____
ROOT
ATOM      1  C   UNL     1       3.690   6.359  17.555  0.00  0.00    +0.000 A 
ATOM      2  C   UNL     1       4.614   6.683  16.535  0.00  0.00    +0.000 A 
ATOM      3  C   UNL     1       5.367   5.698  15.895  0.00  0.00    +0.000 A 
ATOM      4  C   UNL     1       5.232   4.372  16.277  0.00  0.00    +0.000 A 
ATOM      5  C   UNL     1       4.343   4.030  17.299  0.00  0.00    +0.000 A 
ATOM      6  C   UNL     1       3.543   5.001  17.941  0.00  0.00    +0.000 A 
ENDROOT
BRANCH   6   7
ATOM      7  C   UNL     1       2.599   4.503  18.962  0.00  0.00    +0.000 A 
ATOM      8  N   UNL     1       1.399   3.984  18.744  0.00  0.00    +0.000 NA
ATOM      9  C   UNL     1       0.873   3.695  19.983  0.00  0.00    +0.000 A 
ATOM     10  C   UNL     1       1.744   4.058  20.978  0.00  0.00    +0.000 A 
ATOM     11  N   UNL     1       2.805   4.593  20.319  0.00  0.00    +0.000 N 
ATOM     12  H   UNL     1       3.656   4.931  20.751  0.00  0.00    +0.000 HD
ENDBRANCH   6   7
BRANCH   1  16
ATOM     13  C   UNL     1       1.657   8.740  19.243  0.00  0.00    +0.000 A 
ATOM     14  N   UNL     1       1.688   9.310  18.026  0.00  0.00    +0.000 NA
ATOM     15  O   UNL     1       2.505   8.456  17.275  0.00  0.00    +0.000 OA
ATOM     16  C   UNL     1       2.880   7.442  18.110  0.00  0.00    +0.000 A 
ATOM     17  N   UNL     1       2.376   7.565  19.314  0.00  0.00    +0.000 NA
BRANCH  13  21
ATOM     18  C   UNL     1      -0.349  10.287  22.555  0.00  0.00    +0.000 A 
ATOM     19  C   UNL     1       0.579   9.280  22.663  0.00  0.00    +0.000 A 
ATOM     20  N   UNL     1       1.214   8.732  21.614  0.00  0.00    +0.000 NA
ATOM     21  C   UNL     1       0.909   9.246  20.403  0.00  0.00    +0.000 A 
ATOM     22  N   UNL     1       0.031  10.252  20.188  0.00  0.00    +0.000 NA
ATOM     23  C   UNL     1      -0.594  10.739  21.277  0.00  0.00    +0.000 A 
ENDBRANCH  13  21
ENDBRANCH   1  16
TORSDOF 3
ENDMDL
MODEL 4
REMARK VINA RESULT:      -7.7      2.878      7.021
REMARK  Name = 
REMARK  3 active torsions:
REMARK  status: ('A' for Active; 'I' for Inactive)
REMARK    1  A    between atoms: C_4  and  C_5
REMARK    2  A    between atoms: C_8  and  C_9
REMARK    3  A    between atoms: C_14  and  C_15
REMARK                            x       y       z     vdW  Elec       q    Type
REMARK                         _______ _______ _______ _____ _____    ______ ____
ROOT
ATOM      1  C   UNL     1       3.696   6.068  17.613  0.00  0.00    +0.000 A 
ATOM      2  C   UNL     1       4.659   6.709  16.802  0.00  0.00    +0.000 A 
ATOM      3  C   UNL     1       5.452   5.991  15.907  0.00  0.00    +0.000 A 
ATOM      4  C   UNL     1       5.317   4.613  15.821  0.00  0.00    +0.000 A 
ATOM      5  C   UNL     1       4.388   3.954  16.630  0.00  0.00    +0.000 A 
ATOM      6  C   UNL     1       3.549   4.659  17.521  0.00  0.00    +0.000 A 
ENDROOT
BRANCH   6   7
ATOM      7  C   UNL     1       2.567   3.853  18.275  0.00  0.00    +0.000 A 
ATOM      8  N   UNL     1       1.388   3.432  17.839  0.00  0.00    +0.000 NA
ATOM      9  C   UNL     1       0.810   2.752  18.888  0.00  0.00    +0.000 A 
ATOM     10  C   UNL     1       1.626   2.773  19.990  0.00  0.00    +0.000 A 
ATOM     11  N   UNL     1       2.707   3.496  19.596  0.00  0.00    +0.000 N 
ATOM     12  H   UNL     1       3.531   3.675  20.156  0.00  0.00    +0.000 HD
ENDBRANCH   6   7
BRANCH   1  16
ATOM     13  C   UNL     1       1.649   8.400  19.353  0.00  0.00    +0.000 A 
ATOM     14  N   UNL     1       1.915   7.554  20.363  0.00  0.00    +0.000 NA
ATOM     15  O   UNL     1       2.703   6.560  19.770  0.00  0.00    +0.000 OA
ATOM     16  C   UNL     1       2.848   6.908  18.458  0.00  0.00    +0.000 A 
ATOM     17  N   UNL     1       2.236   8.029  18.161  0.00  0.00    +0.000 NA
BRANCH  13  21
ATOM     18  C   UNL     1      -0.713  11.818  19.710  0.00  0.00    +0.000 A 
ATOM     19  C   UNL     1      -0.639  11.094  18.544  0.00  0.00    +0.000 A 
ATOM     20  N   UNL     1       0.141  10.013  18.382  0.00  0.00    +0.000 NA
ATOM     21  C   UNL     1       0.861   9.636  19.462  0.00  0.00    +0.000 A 
ATOM     22  N   UNL     1       0.843  10.261  20.661  0.00  0.00    +0.000 NA
ATOM     23  C   UNL     1       0.064  11.355  20.749  0.00  0.00    +0.000 A 
ENDBRANCH  13  21
ENDBRANCH   1  16
TORSDOF 3
ENDMDL
MODEL 5
REMARK VINA RESULT:      -7.6      1.031      1.037
REMARK  Name = 
REMARK  3 active torsions:
REMARK  status: ('A' for Active; 'I' for Inactive)
REMARK    1  A    between atoms: C_4  and  C_5
REMARK    2  A    between atoms: C_8  and  C_9
REMARK    3  A    between atoms: C_14  and  C_15
REMARK                            x       y       z     vdW  Elec       q    Type
REMARK                         _______ _______ _______ _____ _____    ______ ____
ROOT
ATOM      1  C   UNL     1       3.429   3.732  18.469  0.00  0.00    +0.000 A 
ATOM      2  C   UNL     1       3.227   2.359  18.734  0.00  0.00    +0.000 A 
ATOM      3  C   UNL     1       2.135   1.915  19.480  0.00  0.00    +0.000 A 
ATOM      4  C   UNL     1       1.236   2.835  19.998  0.00  0.00    +0.000 A 
ATOM      5  C   UNL     1       1.428   4.199  19.770  0.00  0.00    +0.000 A 
ATOM      6  C   UNL     1       2.505   4.675  18.990  0.00  0.00    +0.000 A 
ENDROOT
BRANCH   6   7
ATOM      7  C   UNL     1       2.563   6.135  18.771  0.00  0.00    +0.000 A 
ATOM      8  N   UNL     1       2.050   7.073  19.555  0.00  0.00    +0.000 NA
ATOM      9  C   UNL     1       2.315   8.276  18.940  0.00  0.00    +0.000 A 
ATOM     10  C   UNL     1       2.977   8.081  17.754  0.00  0.00    +0.000 A 
ATOM     11  N   UNL     1       3.092   6.732  17.651  0.00  0.00    +0.000 N 
ATOM     12  H   UNL     1       3.570   6.237  16.907  0.00  0.00    +0.000 HD
ENDBRANCH   6   7
BRANCH   1  16
ATOM     13  C   UNL     1       5.949   4.424  16.055  0.00  0.00    +0.000 A 
ATOM     14  N   UNL     1       6.615   4.781  17.167  0.00  0.00    +0.000 NA
ATOM     15  O   UNL     1       5.686   4.575  18.195  0.00  0.00    +0.000 OA
ATOM     16  C   UNL     1       4.550   4.102  17.605  0.00  0.00    +0.000 A 
ATOM     17  N   UNL     1       4.667   3.979  16.305  0.00  0.00    +0.000 NA
BRANCH  13  21
ATOM     18  C   UNL     1       7.393   4.577  12.146  0.00  0.00    +0.000 A 
ATOM     19  C   UNL     1       6.412   3.697  12.533  0.00  0.00    +0.000 A 
ATOM     20  N   UNL     1       5.952   3.594  13.790  0.00  0.00    +0.000 NA
ATOM     21  C   UNL     1       6.497   4.439  14.692  0.00  0.00    +0.000 A 
ATOM     22  N   UNL     1       7.449   5.359  14.412  0.00  0.00    +0.000 NA
ATOM     23  C   UNL     1       7.889   5.392  13.140  0.00  0.00    +0.000 A 
ENDBRANCH  13  21
ENDBRANCH   1  16
TORSDOF 3
ENDMDL
MODEL 6
REMARK VINA RESULT:      -7.6      2.940      7.157
REMARK  Name = 
REMARK  3 active torsions:
REMARK  status: ('A' for Active; 'I' for Inactive)
REMARK    1  A    between atoms: C_4  and  C_5
REMARK    2  A    between atoms: C_8  and  C_9
REMARK    3  A    between atoms: C_14  and  C_15
REMARK                            x       y       z     vdW  Elec       q    Type
REMARK                         _______ _______ _______ _____ _____    ______ ____
ROOT
ATOM      1  C   UNL     1       3.650   6.000  17.845  0.00  0.00    +0.000 A 
ATOM      2  C   UNL     1       4.578   6.777  17.116  0.00  0.00    +0.000 A 
ATOM      3  C   UNL     1       5.376   6.213  16.119  0.00  0.00    +0.000 A 
ATOM      4  C   UNL     1       5.280   4.856  15.848  0.00  0.00    +0.000 A 
ATOM      5  C   UNL     1       4.388   4.063  16.573  0.00  0.00    +0.000 A 
ATOM      6  C   UNL     1       3.544   4.613  17.563  0.00  0.00    +0.000 A 
ENDROOT
BRANCH   6   7
ATOM      7  C   UNL     1       2.602   3.681  18.214  0.00  0.00    +0.000 A 
ATOM      8  N   UNL     1       1.372   3.391  17.814  0.00  0.00    +0.000 NA
ATOM      9  C   UNL     1       0.862   2.508  18.739  0.00  0.00    +0.000 A 
ATOM     10  C   UNL     1       1.775   2.266  19.735  0.00  0.00    +0.000 A 
ATOM     11  N   UNL     1       2.845   3.036  19.405  0.00  0.00    +0.000 N 
ATOM     12  H   UNL     1       3.723   3.070  19.908  0.00  0.00    +0.000 HD
ENDBRANCH   6   7
BRANCH   1  16
ATOM     13  C   UNL     1       1.633   8.030  19.959  0.00  0.00    +0.000 A 
ATOM     14  N   UNL     1       1.739   6.944  20.743  0.00  0.00    +0.000 NA
ATOM     15  O   UNL     1       2.502   6.051  19.980  0.00  0.00    +0.000 OA
ATOM     16  C   UNL     1       2.794   6.690  18.810  0.00  0.00    +0.000 A 
ATOM     17  N   UNL     1       2.299   7.903  18.757  0.00  0.00    +0.000 NA
BRANCH  13  21
ATOM     18  C   UNL     1      -0.211  11.613  21.031  0.00  0.00    +0.000 A 
ATOM     19  C   UNL     1      -0.186  10.521  21.865  0.00  0.00    +0.000 A 
ATOM     20  N   UNL     1       0.364   9.341  21.536  0.00  0.00    +0.000 NA
ATOM     21  C   UNL     1       0.935   9.273  20.314  0.00  0.00    +0.000 A 
ATOM     22  N   UNL     1       0.987  10.294  19.427  0.00  0.00    +0.000 NA
ATOM     23  C   UNL     1       0.392  11.441  19.804  0.00  0.00    +0.000 A 
ENDBRANCH  13  21
ENDBRANCH   1  16
TORSDOF 3
ENDMDL
MODEL 7
REMARK VINA RESULT:      -7.5      1.782      3.245
REMARK  Name = 
REMARK  3 active torsions:
REMARK  status: ('A' for Active; 'I' for Inactive)
REMARK    1  A    between atoms: C_4  and  C_5
REMARK    2  A    between atoms: C_8  and  C_9
REMARK    3  A    between atoms: C_14  and  C_15
REMARK                            x       y       z     vdW  Elec       q    Type
REMARK                         _______ _______ _______ _____ _____    ______ ____
ROOT
ATOM      1  C   UNL     1       3.510   6.034  18.545  0.00  0.00    +0.000 A 
ATOM      2  C   UNL     1       3.034   7.335  18.823  0.00  0.00    +0.000 A 
ATOM      3  C   UNL     1       2.054   7.562  19.789  0.00  0.00    +0.000 A 
ATOM      4  C   UNL     1       1.510   6.489  20.481  0.00  0.00    +0.000 A 
ATOM      5  C   UNL     1       1.947   5.191  20.207  0.00  0.00    +0.000 A 
ATOM      6  C   UNL     1       2.962   4.936  19.258  0.00  0.00    +0.000 A 
ENDROOT
BRANCH   6   7
ATOM      7  C   UNL     1       3.378   3.527  19.105  0.00  0.00    +0.000 A 
ATOM      8  N   UNL     1       4.169   2.843  19.919  0.00  0.00    +0.000 NA
ATOM      9  C   UNL     1       4.304   1.591  19.363  0.00  0.00    +0.000 A 
ATOM     10  C   UNL     1       3.609   1.504  18.184  0.00  0.00    +0.000 A 
ATOM     11  N   UNL     1       3.063   2.738  18.023  0.00  0.00    +0.000 N 
ATOM     12  H   UNL     1       2.449   3.016  17.268  0.00  0.00    +0.000 HD
ENDBRANCH   6   7
BRANCH   1  16
ATOM     13  C   UNL     1       5.902   5.445  15.979  0.00  0.00    +0.000 A 
ATOM     14  N   UNL     1       6.703   6.029  16.887  0.00  0.00    +0.000 NA
ATOM     15  O   UNL     1       5.840   6.338  17.947  0.00  0.00    +0.000 OA
ATOM     16  C   UNL     1       4.600   5.899  17.580  0.00  0.00    +0.000 A 
ATOM     17  N   UNL     1       4.591   5.335  16.397  0.00  0.00    +0.000 NA
BRANCH  13  21
ATOM     18  C   UNL     1       7.045   4.056  12.217  0.00  0.00    +0.000 A 
ATOM     19  C   UNL     1       5.904   3.620  12.846  0.00  0.00    +0.000 A 
ATOM     20  N   UNL     1       5.527   4.016  14.073  0.00  0.00    +0.000 NA
ATOM     21  C   UNL     1       6.334   4.914  14.679  0.00  0.00    +0.000 A 
ATOM     22  N   UNL     1       7.464   5.426  14.140  0.00  0.00    +0.000 NA
ATOM     23  C   UNL     1       7.803   4.966  12.921  0.00  0.00    +0.000 A 
ENDBRANCH  13  21
ENDBRANCH   1  16
TORSDOF 3
ENDMDL
MODEL 8
REMARK VINA RESULT:      -7.5      1.745      3.404
REMARK  Name = 
REMARK  3 active torsions:
REMARK  status: ('A' for Active; 'I' for Inactive)
REMARK    1  A    between atoms: C_4  and  C_5
REMARK    2  A    between atoms: C_8  and  C_9
REMARK    3  A    between atoms: C_14  and  C_15
REMARK                            x       y       z     vdW  Elec       q    Type
REMARK                         _______ _______ _______ _____ _____    ______ ____
ROOT
ATOM      1  C   UNL     1       3.590   5.937  18.553  0.00  0.00    +0.000 A 
ATOM      2  C   UNL     1       3.106   7.246  18.773  0.00  0.00    +0.000 A 
ATOM      3  C   UNL     1       2.122   7.508  19.726  0.00  0.00    +0.000 A 
ATOM      4  C   UNL     1       1.582   6.464  20.462  0.00  0.00    +0.000 A 
ATOM      5  C   UNL     1       2.027   5.158  20.245  0.00  0.00    +0.000 A 
ATOM      6  C   UNL     1       3.046   4.867  19.311  0.00  0.00    +0.000 A 
ENDROOT
BRANCH   6   7
ATOM      7  C   UNL     1       3.470   3.455  19.221  0.00  0.00    +0.000 A 
ATOM      8  N   UNL     1       4.381   2.853  19.972  0.00  0.00    +0.000 NA
ATOM      9  C   UNL     1       4.468   1.559  19.509  0.00  0.00    +0.000 A 
ATOM     10  C   UNL     1       3.621   1.364  18.447  0.00  0.00    +0.000 A 
ATOM     11  N   UNL     1       3.030   2.573  18.261  0.00  0.00    +0.000 N 
ATOM     12  H   UNL     1       2.312   2.778  17.577  0.00  0.00    +0.000 HD
ENDBRANCH   6   7
BRANCH   1  16
ATOM     13  C   UNL     1       5.962   5.341  15.969  0.00  0.00    +0.000 A 
ATOM     14  N   UNL     1       6.807   5.650  16.968  0.00  0.00    +0.000 NA
ATOM     15  O   UNL     1       5.961   5.938  18.047  0.00  0.00    +0.000 OA
ATOM     16  C   UNL     1       4.684   5.766  17.597  0.00  0.00    +0.000 A 
ATOM     17  N   UNL     1       4.634   5.388  16.343  0.00  0.00    +0.000 NA
BRANCH  13  21
ATOM     18  C   UNL     1       7.173   4.085  12.182  0.00  0.00    +0.000 A 
ATOM     19  C   UNL     1       7.870   5.025  12.902  0.00  0.00    +0.000 A 
ATOM     20  N   UNL     1       7.487   5.481  14.106  0.00  0.00    +0.000 NA
ATOM     21  C   UNL     1       6.357   4.940  14.612  0.00  0.00    +0.000 A 
ATOM     22  N   UNL     1       5.610   3.994  13.998  0.00  0.00    +0.000 NA
ATOM     23  C   UNL     1       6.031   3.601  12.782  0.00  0.00    +0.000 A 
ENDBRANCH  13  21
ENDBRANCH   1  16
TORSDOF 3
ENDMDL
MODEL 9
REMARK VINA RESULT:      -7.5      2.946      6.990
REMARK  Name = 
REMARK  3 active torsions:
REMARK  status: ('A' for Active; 'I' for Inactive)
REMARK    1  A    between atoms: C_4  and  C_5
REMARK    2  A    between atoms: C_8  and  C_9
REMARK    3  A    between atoms: C_14  and  C_15
REMARK                            x       y       z     vdW  Elec       q    Type
REMARK                         _______ _______ _______ _____ _____    ______ ____
ROOT
ATOM      1  C   UNL     1       3.667   6.242  17.531  0.00  0.00    +0.000 A 
ATOM      2  C   UNL     1       4.688   6.772  16.711  0.00  0.00    +0.000 A 
ATOM      3  C   UNL     1       5.499   5.946  15.933  0.00  0.00    +0.000 A 
ATOM      4  C   UNL     1       5.324   4.571  15.977  0.00  0.00    +0.000 A 
ATOM      5  C   UNL     1       4.338   4.022  16.799  0.00  0.00    +0.000 A 
ATOM      6  C   UNL     1       3.480   4.835  17.571  0.00  0.00    +0.000 A 
ENDROOT
BRANCH   6   7
ATOM      7  C   UNL     1       2.437   4.136  18.350  0.00  0.00    +0.000 A 
ATOM      8  N   UNL     1       1.329   3.588  17.875  0.00  0.00    +0.000 NA
ATOM      9  C   UNL     1       0.649   3.085  18.962  0.00  0.00    +0.000 A 
ATOM     10  C   UNL     1       1.332   3.344  20.124  0.00  0.00    +0.000 A 
ATOM     11  N   UNL     1       2.432   4.033  19.722  0.00  0.00    +0.000 N 
ATOM     12  H   UNL     1       3.180   4.350  20.326  0.00  0.00    +0.000 HD
ENDBRANCH   6   7
BRANCH   1  16
ATOM     13  C   UNL     1       1.614   8.791  18.926  0.00  0.00    +0.000 A 
ATOM     14  N   UNL     1       1.805   8.044  20.027  0.00  0.00    +0.000 NA
ATOM     15  O   UNL     1       2.589   6.975  19.576  0.00  0.00    +0.000 OA
ATOM     16  C   UNL     1       2.807   7.185  18.245  0.00  0.00    +0.000 A 
ATOM     17  N   UNL     1       2.245   8.286  17.807  0.00  0.00    +0.000 NA
BRANCH  13  21
ATOM     18  C   UNL     1      -0.514  12.363  18.609  0.00  0.00    +0.000 A 
ATOM     19  C   UNL     1       0.857  12.329  18.699  0.00  0.00    +0.000 A 
ATOM     20  N   UNL     1       1.571  11.201  18.842  0.00  0.00    +0.000 NA
ATOM     21  C   UNL     1       0.861  10.052  18.871  0.00  0.00    +0.000 A 
ATOM     22  N   UNL     1      -0.485   9.970  18.766  0.00  0.00    +0.000 NA
ATOM     23  C   UNL     1      -1.144  11.139  18.655  0.00  0.00    +0.000 A 
ENDBRANCH  13  21
ENDBRANCH   1  16
TORSDOF 3
ENDMDL
