MODEL 1
REMARK VINA RESULT:      -8.6      0.000      0.000
REMARK  Name = 
REMARK  5 active torsions:
REMARK  status: ('A' for Active; 'I' for Inactive)
REMARK    1  A    between atoms: C_1  and  C_2
REMARK    2  A    between atoms: N_6  and  N_7
REMARK    3  A    between atoms: N_7  and  C_8
REMARK    4  A    between atoms: C_17  and  C_18
REMARK    5  A    between atoms: N_20  and  N_21
REMARK                            x       y       z     vdW  Elec       q    Type
REMARK                         _______ _______ _______ _____ _____    ______ ____
ROOT
ATOM      1  C   UNL     1       1.677   2.794  18.363  0.00  0.00    +0.000 C 
ATOM      2  C   UNL     1       2.809   3.429  19.182  0.00  0.00    +0.000 C 
ATOM      3  C   UNL     1       2.334   3.854  20.567  0.00  0.00    +0.000 C 
ATOM      4  C   UNL     1       1.437   5.071  20.473  0.00  0.00    +0.000 C 
ATOM      5  C   UNL     1       2.240   6.204  19.890  0.00  0.00    +0.000 C 
ATOM      6  N   UNL     1       2.212   7.432  20.319  0.00  0.00    +0.000 NA
ATOM      7  C   UNL     1       3.137   5.871  18.690  0.00  0.00    +0.000 A 
ATOM      8  N   UNL     1       3.608   6.843  17.973  0.00  0.00    +0.000 NA
ATOM      9  C   UNL     1       4.430   6.526  16.923  0.00  0.00    +0.000 A 
ATOM     10  C   UNL     1       4.801   5.290  16.570  0.00  0.00    +0.000 A 
ATOM     11  C   UNL     1       4.273   4.190  17.398  0.00  0.00    +0.000 A 
ATOM     12  O   UNL     1       4.573   3.023  17.134  0.00  0.00    +0.000 OA
ATOM     13  N   UNL     1       3.432   4.535  18.448  0.00  0.00    +0.000 N 
ENDROOT
BRANCH  10  14
ATOM     14  C   UNL     1       5.677   5.094  15.379  0.00  0.00    +0.000 C 
ATOM     15  O   UNL     1       5.299   4.485  14.379  0.00  0.00    +0.000 OA
ATOM     16  N   UNL     1       6.953   5.627  15.489  0.00  0.00    +0.000 N 
ATOM     17  H   UNL     1       7.216   6.164  16.324  0.00  0.00    +0.000 HD
BRANCH  16  18
ATOM     18  N   UNL     1       7.867   5.523  14.419  0.00  0.00    +0.000 NA
ATOM     19  H   UNL     1       7.512   4.794  13.787  0.00  0.00    +0.000 HD
ATOM     20  H   UNL     1       8.741   5.140  14.788  0.00  0.00    +0.000 HD
ENDBRANCH  16  18
ENDBRANCH  10  14
BRANCH   6  21
ATOM     21  N   UNL     1       1.427   7.689  21.413  0.00  0.00    +0.000 N 
ATOM     22  H   UNL     1       1.903   7.560  22.307  0.00  0.00    +0.000 HD
BRANCH  21  23
ATOM     23  C   UNL     1       0.765   8.948  21.418  0.00  0.00    +0.000 A 
ATOM     24  C   UNL     1       0.627   9.706  20.248  0.00  0.00    +0.000 A 
ATOM     25  C   UNL     1      -0.090  10.904  20.248  0.00  0.00    +0.000 A 
ATOM     26  C   UNL     1      -0.694  11.356  21.419  0.00  0.00    +0.000 A 
ATOM     27  C   UNL     1      -0.594  10.600  22.584  0.00  0.00    +0.000 A 
ATOM     28  C   UNL     1       0.115   9.394  22.580  0.00  0.00    +0.000 A 
ENDBRANCH  21  23
ENDBRANCH   6  21
TORSDOF 4
ENDMDL
MODEL 2
REMARK VINA RESULT:      -8.5      0.836      1.290
REMARK  Name = 
REMARK  5 active torsions:
REMARK  status: ('A' for Active; 'I' for Inactive)
REMARK    1  A    between atoms: C_1  and  C_2
REMARK    2  A    between atoms: N_6  and  N_7
REMARK    3  A    between atoms: N_7  and  C_8
REMARK    4  A    between atoms: C_17  and  C_18
REMARK    5  A    between atoms: N_20  and  N_21
REMARK                            x       y       z     vdW  Elec       q    Type
REMARK                         _______ _______ _______ _____ _____    ______ ____
ROOT
ATOM      1  C   UNL     1       1.674   2.812  18.331  0.00  0.00    +0.000 C 
ATOM      2  C   UNL     1       2.792   3.439  19.176  0.00  0.00    +0.000 C 
ATOM      3  C   UNL     1       2.291   3.856  20.555  0.00  0.00    +0.000 C 
ATOM      4  C   UNL     1       1.400   5.076  20.451  0.00  0.00    +0.000 C 
ATOM      5  C   UNL     1       2.217   6.211  19.892  0.00  0.00    +0.000 C 
ATOM      6  N   UNL     1       2.184   7.436  20.328  0.00  0.00    +0.000 NA
ATOM      7  C   UNL     1       3.136   5.883  18.707  0.00  0.00    +0.000 A 
ATOM      8  N   UNL     1       3.623   6.858  18.005  0.00  0.00    +0.000 NA
ATOM      9  C   UNL     1       4.465   6.546  16.969  0.00  0.00    +0.000 A 
ATOM     10  C   UNL     1       4.839   5.311  16.615  0.00  0.00    +0.000 A 
ATOM     11  C   UNL     1       4.293   4.207  17.425  0.00  0.00    +0.000 A 
ATOM     12  O   UNL     1       4.594   3.041  17.160  0.00  0.00    +0.000 OA
ATOM     13  N   UNL     1       3.432   4.547  18.462  0.00  0.00    +0.000 N 
ENDROOT
BRANCH  10  14
ATOM     14  C   UNL     1       5.737   5.120  15.440  0.00  0.00    +0.000 C 
ATOM     15  O   UNL     1       6.632   5.917  15.161  0.00  0.00    +0.000 OA
ATOM     16  N   UNL     1       5.478   3.992  14.675  0.00  0.00    +0.000 N 
ATOM     17  H   UNL     1       4.749   3.329  14.965  0.00  0.00    +0.000 HD
BRANCH  16  18
ATOM     18  N   UNL     1       6.274   3.692  13.550  0.00  0.00    +0.000 NA
ATOM     19  H   UNL     1       6.252   2.672  13.426  0.00  0.00    +0.000 HD
ATOM     20  H   UNL     1       7.247   3.900  13.788  0.00  0.00    +0.000 HD
ENDBRANCH  16  18
ENDBRANCH  10  14
BRANCH   6  21
ATOM     21  N   UNL     1       1.378   7.688  21.408  0.00  0.00    +0.000 N 
ATOM     22  H   UNL     1       1.860   7.640  22.307  0.00  0.00    +0.000 HD
BRANCH  21  23
ATOM     23  C   UNL     1       0.624   8.893  21.350  0.00  0.00    +0.000 A 
ATOM     24  C   UNL     1       0.040   9.445  22.497  0.00  0.00    +0.000 A 
ATOM     25  C   UNL     1      -0.634  10.667  22.444  0.00  0.00    +0.000 A 
ATOM     26  C   UNL     1      -0.720  11.364  21.241  0.00  0.00    +0.000 A 
ATOM     27  C   UNL     1      -0.117  10.846  20.097  0.00  0.00    +0.000 A 
ATOM     28  C   UNL     1       0.567   9.627  20.156  0.00  0.00    +0.000 A 
ENDBRANCH  21  23
ENDBRANCH   6  21
TORSDOF 4
ENDMDL
MODEL 3
REMARK VINA RESULT:      -8.1      4.362      8.692
REMARK  Name = 
REMARK  5 active torsions:
REMARK  status: ('A' for Active; 'I' for Inactive)
REMARK    1  A    between atoms: C_1  and  C_2
REMARK    2  A    between atoms: N_6  and  N_7
REMARK    3  A    between atoms: N_7  and  C_8
REMARK    4  A    between atoms: C_17  and  C_18
REMARK    5  A    between atoms: N_20  and  N_21
REMARK                            x       y       z     vdW  Elec       q    Type
REMARK                         _______ _______ _______ _____ _____    ______ ____
ROOT
ATOM      1  C   UNL     1      -0.839  10.449  17.934  0.00  0.00    +0.000 C 
ATOM      2  C   UNL     1       0.419  10.706  18.776  0.00  0.00    +0.000 C 
ATOM      3  C   UNL     1       1.613   9.908  18.263  0.00  0.00    +0.000 C 
ATOM      4  C   UNL     1       1.447   8.437  18.581  0.00  0.00    +0.000 C 
ATOM      5  C   UNL     1       1.393   8.281  20.078  0.00  0.00    +0.000 C 
ATOM      6  N   UNL     1       2.006   7.352  20.750  0.00  0.00    +0.000 NA
ATOM      7  C   UNL     1       0.530   9.290  20.847  0.00  0.00    +0.000 A 
ATOM      8  N   UNL     1       0.208   9.029  22.076  0.00  0.00    +0.000 NA
ATOM      9  C   UNL     1      -0.539   9.956  22.755  0.00  0.00    +0.000 A 
ATOM     10  C   UNL     1      -0.967  11.123  22.262  0.00  0.00    +0.000 A 
ATOM     11  C   UNL     1      -0.587  11.421  20.869  0.00  0.00    +0.000 A 
ATOM     12  O   UNL     1      -0.945  12.479  20.346  0.00  0.00    +0.000 OA
ATOM     13  N   UNL     1       0.159  10.461  20.197  0.00  0.00    +0.000 N 
ENDROOT
BRANCH  10  14
ATOM     14  C   UNL     1      -1.804  12.021  23.110  0.00  0.00    +0.000 C 
ATOM     15  O   UNL     1      -2.877  11.658  23.590  0.00  0.00    +0.000 OA
ATOM     16  N   UNL     1      -1.295  13.297  23.300  0.00  0.00    +0.000 N 
ATOM     17  H   UNL     1      -0.376  13.548  22.917  0.00  0.00    +0.000 HD
BRANCH  16  18
ATOM     18  N   UNL     1      -1.986  14.231  24.100  0.00  0.00    +0.000 NA
ATOM     19  H   UNL     1      -2.490  14.862  23.464  0.00  0.00    +0.000 HD
ATOM     20  H   UNL     1      -1.293  14.829  24.557  0.00  0.00    +0.000 HD
ENDBRANCH  16  18
ENDBRANCH  10  14
BRANCH   6  21
ATOM     21  N   UNL     1       2.795   6.488  20.037  0.00  0.00    +0.000 N 
ATOM     22  H   UNL     1       3.732   6.364  20.423  0.00  0.00    +0.000 HD
BRANCH  21  23
ATOM     23  C   UNL     1       2.231   5.209  19.772  0.00  0.00    +0.000 A 
ATOM     24  C   UNL     1       1.694   4.421  20.797  0.00  0.00    +0.000 A 
ATOM     25  C   UNL     1       1.073   3.201  20.518  0.00  0.00    +0.000 A 
ATOM     26  C   UNL     1       0.968   2.758  19.202  0.00  0.00    +0.000 A 
ATOM     27  C   UNL     1       1.468   3.543  18.166  0.00  0.00    +0.000 A 
ATOM     28  C   UNL     1       2.079   4.771  18.448  0.00  0.00    +0.000 A 
ENDBRANCH  21  23
ENDBRANCH   6  21
TORSDOF 4
ENDMDL
MODEL 4
REMARK VINA RESULT:      -8.1      4.391      8.760
REMARK  Name = 
REMARK  5 active torsions:
REMARK  status: ('A' for Active; 'I' for Inactive)
REMARK    1  A    between atoms: C_1  and  C_2
REMARK    2  A    between atoms: N_6  and  N_7
REMARK    3  A    between atoms: N_7  and  C_8
REMARK    4  A    between atoms: C_17  and  C_18
REMARK    5  A    between atoms: N_20  and  N_21
REMARK                            x       y       z     vdW  Elec       q    Type
REMARK                         _______ _______ _______ _____ _____    ______ ____
ROOT
ATOM      1  C   UNL     1      -0.862  10.637  18.004  0.00  0.00    +0.000 C 
ATOM      2  C   UNL     1       0.407  10.868  18.837  0.00  0.00    +0.000 C 
ATOM      3  C   UNL     1       1.589  10.068  18.298  0.00  0.00    +0.000 C 
ATOM      4  C   UNL     1       1.412   8.593  18.592  0.00  0.00    +0.000 C 
ATOM      5  C   UNL     1       1.371   8.412  20.087  0.00  0.00    +0.000 C 
ATOM      6  N   UNL     1       1.982   7.465  20.737  0.00  0.00    +0.000 NA
ATOM      7  C   UNL     1       0.525   9.415  20.882  0.00  0.00    +0.000 A 
ATOM      8  N   UNL     1       0.214   9.135  22.110  0.00  0.00    +0.000 NA
ATOM      9  C   UNL     1      -0.517  10.057  22.812  0.00  0.00    +0.000 A 
ATOM     10  C   UNL     1      -0.940  11.236  22.344  0.00  0.00    +0.000 A 
ATOM     11  C   UNL     1      -0.571  11.555  20.953  0.00  0.00    +0.000 A 
ATOM     12  O   UNL     1      -0.924  12.625  20.452  0.00  0.00    +0.000 OA
ATOM     13  N   UNL     1       0.159  10.600  20.256  0.00  0.00    +0.000 N 
ENDROOT
BRANCH  10  14
ATOM     14  C   UNL     1      -1.759  12.127  23.216  0.00  0.00    +0.000 C 
ATOM     15  O   UNL     1      -1.314  13.171  23.691  0.00  0.00    +0.000 OA
ATOM     16  N   UNL     1      -3.049  11.684  23.468  0.00  0.00    +0.000 N 
ATOM     17  H   UNL     1      -3.397  10.828  23.018  0.00  0.00    +0.000 HD
BRANCH  16  18
ATOM     18  N   UNL     1      -3.927  12.450  24.262  0.00  0.00    +0.000 NA
ATOM     19  H   UNL     1      -4.019  13.371  23.812  0.00  0.00    +0.000 HD
ATOM     20  H   UNL     1      -3.459  12.646  25.151  0.00  0.00    +0.000 HD
ENDBRANCH  16  18
ENDBRANCH  10  14
BRANCH   6  21
ATOM     21  N   UNL     1       2.756   6.606  20.000  0.00  0.00    +0.000 N 
ATOM     22  H   UNL     1       3.664   6.400  20.419  0.00  0.00    +0.000 HD
BRANCH  21  23
ATOM     23  C   UNL     1       2.134   5.385  19.619  0.00  0.00    +0.000 A 
ATOM     24  C   UNL     1       2.175   4.927  18.296  0.00  0.00    +0.000 A 
ATOM     25  C   UNL     1       1.627   3.690  17.946  0.00  0.00    +0.000 A 
ATOM     26  C   UNL     1       1.042   2.886  18.921  0.00  0.00    +0.000 A 
ATOM     27  C   UNL     1       1.020   3.311  20.247  0.00  0.00    +0.000 A 
ATOM     28  C   UNL     1       1.580   4.545  20.597  0.00  0.00    +0.000 A 
ENDBRANCH  21  23
ENDBRANCH   6  21
TORSDOF 4
ENDMDL
MODEL 5
REMARK VINA RESULT:      -8.0      1.142      1.155
REMARK  Name = 
REMARK  5 active torsions:
REMARK  status: ('A' for Active; 'I' for Inactive)
REMARK    1  A    between atoms: C_1  and  C_2
REMARK    2  A    between atoms: N_6  and  N_7
REMARK    3  A    between atoms: N_7  and  C_8
REMARK    4  A    between atoms: C_17  and  C_18
REMARK    5  A    between atoms: N_20  and  N_21
REMARK                            x       y       z     vdW  Elec       q    Type
REMARK                         _______ _______ _______ _____ _____    ______ ____
ROOT
ATOM      1  C   UNL     1       2.812   2.845  18.899  0.00  0.00    +0.000 C 
ATOM      2  C   UNL     1       3.551   3.854  19.790  0.00  0.00    +0.000 C 
ATOM      3  C   UNL     1       2.734   4.221  21.024  0.00  0.00    +0.000 C 
ATOM      4  C   UNL     1       1.560   5.099  20.645  0.00  0.00    +0.000 C 
ATOM      5  C   UNL     1       2.097   6.373  20.049  0.00  0.00    +0.000 C 
ATOM      6  N   UNL     1       1.643   7.564  20.310  0.00  0.00    +0.000 NA
ATOM      7  C   UNL     1       3.251   6.235  19.047  0.00  0.00    +0.000 A 
ATOM      8  N   UNL     1       3.546   7.246  18.289  0.00  0.00    +0.000 NA
ATOM      9  C   UNL     1       4.598   7.112  17.421  0.00  0.00    +0.000 A 
ATOM     10  C   UNL     1       5.362   6.023  17.286  0.00  0.00    +0.000 A 
ATOM     11  C   UNL     1       5.031   4.882  18.159  0.00  0.00    +0.000 A 
ATOM     12  O   UNL     1       5.693   3.843  18.093  0.00  0.00    +0.000 OA
ATOM     13  N   UNL     1       3.953   5.036  19.022  0.00  0.00    +0.000 N 
ENDROOT
BRANCH  10  14
ATOM     14  C   UNL     1       6.456   6.009  16.272  0.00  0.00    +0.000 C 
ATOM     15  O   UNL     1       7.519   6.603  16.445  0.00  0.00    +0.000 OA
ATOM     16  N   UNL     1       6.180   5.297  15.114  0.00  0.00    +0.000 N 
ATOM     17  H   UNL     1       5.297   4.780  15.026  0.00  0.00    +0.000 HD
BRANCH  16  18
ATOM     18  N   UNL     1       7.145   5.194  14.090  0.00  0.00    +0.000 NA
ATOM     19  H   UNL     1       8.055   5.431  14.506  0.00  0.00    +0.000 HD
ATOM     20  H   UNL     1       6.969   5.942  13.415  0.00  0.00    +0.000 HD
ENDBRANCH  16  18
ENDBRANCH  10  14
BRANCH   6  21
ATOM     21  N   UNL     1       0.636   7.655  21.235  0.00  0.00    +0.000 N 
ATOM     22  H   UNL     1       0.844   7.199  22.124  0.00  0.00    +0.000 HD
BRANCH  21  23
ATOM     23  C   UNL     1       0.147   8.966  21.490  0.00  0.00    +0.000 A 
ATOM     24  C   UNL     1      -0.028   9.895  20.457  0.00  0.00    +0.000 A 
ATOM     25  C   UNL     1      -0.580  11.154  20.707  0.00  0.00    +0.000 A 
ATOM     26  C   UNL     1      -0.980  11.496  21.996  0.00  0.00    +0.000 A 
ATOM     27  C   UNL     1      -0.844  10.573  23.030  0.00  0.00    +0.000 A 
ATOM     28  C   UNL     1      -0.301   9.309  22.775  0.00  0.00    +0.000 A 
ENDBRANCH  21  23
ENDBRANCH   6  21
TORSDOF 4
ENDMDL
MODEL 6
REMARK VINA RESULT:      -7.9      1.136      1.488
REMARK  Name = 
REMARK  5 active torsions:
REMARK  status: ('A' for Active; 'I' for Inactive)
REMARK    1  A    between atoms: C_1  and  C_2
REMARK    2  A    between atoms: N_6  and  N_7
REMARK    3  A    between atoms: N_7  and  C_8
REMARK    4  A    between atoms: C_17  and  C_18
REMARK    5  A    between atoms: N_20  and  N_21
REMARK                            x       y       z     vdW  Elec       q    Type
REMARK                         _______ _______ _______ _____ _____    ______ ____
ROOT
ATOM      1  C   UNL     1       2.500   2.515  19.120  0.00  0.00    +0.000 C 
ATOM      2  C   UNL     1       3.271   3.466  20.046  0.00  0.00    +0.000 C 
ATOM      3  C   UNL     1       2.402   3.962  21.196  0.00  0.00    +0.000 C 
ATOM      4  C   UNL     1       1.369   4.950  20.696  0.00  0.00    +0.000 C 
ATOM      5  C   UNL     1       2.095   6.137  20.118  0.00  0.00    +0.000 C 
ATOM      6  N   UNL     1       1.758   7.379  20.310  0.00  0.00    +0.000 NA
ATOM      7  C   UNL     1       3.305   5.838  19.223  0.00  0.00    +0.000 A 
ATOM      8  N   UNL     1       3.774   6.784  18.469  0.00  0.00    +0.000 NA
ATOM      9  C   UNL     1       4.872   6.506  17.699  0.00  0.00    +0.000 A 
ATOM     10  C   UNL     1       5.518   5.335  17.656  0.00  0.00    +0.000 A 
ATOM     11  C   UNL     1       4.989   4.268  18.525  0.00  0.00    +0.000 A 
ATOM     12  O   UNL     1       5.532   3.161  18.541  0.00  0.00    +0.000 OA
ATOM     13  N   UNL     1       3.867   4.569  19.287  0.00  0.00    +0.000 N 
ENDROOT
BRANCH  10  14
ATOM     14  C   UNL     1       6.683   5.167  16.741  0.00  0.00    +0.000 C 
ATOM     15  O   UNL     1       7.764   4.725  17.130  0.00  0.00    +0.000 OA
ATOM     16  N   UNL     1       6.468   5.563  15.430  0.00  0.00    +0.000 N 
ATOM     17  H   UNL     1       5.539   5.887  15.136  0.00  0.00    +0.000 HD
BRANCH  16  18
ATOM     18  N   UNL     1       7.489   5.432  14.465  0.00  0.00    +0.000 NA
ATOM     19  H   UNL     1       7.963   4.537  14.644  0.00  0.00    +0.000 HD
ATOM     20  H   UNL     1       8.200   6.142  14.661  0.00  0.00    +0.000 HD
ENDBRANCH  16  18
ENDBRANCH  10  14
BRANCH   6  21
ATOM     21  N   UNL     1       0.694   7.612  21.141  0.00  0.00    +0.000 N 
ATOM     22  H   UNL     1       0.774   7.164  22.056  0.00  0.00    +0.000 HD
BRANCH  21  23
ATOM     23  C   UNL     1       0.338   8.977  21.323  0.00  0.00    +0.000 A 
ATOM     24  C   UNL     1      -0.345   9.408  22.467  0.00  0.00    +0.000 A 
ATOM     25  C   UNL     1      -0.623  10.761  22.673  0.00  0.00    +0.000 A 
ATOM     26  C   UNL     1      -0.207  11.707  21.739  0.00  0.00    +0.000 A 
ATOM     27  C   UNL     1       0.500  11.301  20.610  0.00  0.00    +0.000 A 
ATOM     28  C   UNL     1       0.788   9.946  20.413  0.00  0.00    +0.000 A 
ENDBRANCH  21  23
ENDBRANCH   6  21
TORSDOF 4
ENDMDL
MODEL 7
REMARK VINA RESULT:      -7.7      2.762      7.748
REMARK  Name = 
REMARK  5 active torsions:
REMARK  status: ('A' for Active; 'I' for Inactive)
REMARK    1  A    between atoms: C_1  and  C_2
REMARK    2  A    between atoms: N_6  and  N_7
REMARK    3  A    between atoms: N_7  and  C_8
REMARK    4  A    between atoms: C_17  and  C_18
REMARK    5  A    between atoms: N_20  and  N_21
REMARK                            x       y       z     vdW  Elec       q    Type
REMARK                         _______ _______ _______ _____ _____    ______ ____
ROOT
ATOM      1  C   UNL     1       3.052   2.949  20.797  0.00  0.00    +0.000 C 
ATOM      2  C   UNL     1       2.356   3.323  19.481  0.00  0.00    +0.000 C 
ATOM      3  C   UNL     1       2.746   2.380  18.348  0.00  0.00    +0.000 C 
ATOM      4  C   UNL     1       4.172   2.636  17.909  0.00  0.00    +0.000 C 
ATOM      5  C   UNL     1       4.259   4.047  17.389  0.00  0.00    +0.000 C 
ATOM      6  N   UNL     1       4.901   4.404  16.315  0.00  0.00    +0.000 NA
ATOM      7  C   UNL     1       3.548   5.131  18.209  0.00  0.00    +0.000 A 
ATOM      8  N   UNL     1       3.836   6.376  17.983  0.00  0.00    +0.000 NA
ATOM      9  C   UNL     1       3.169   7.330  18.706  0.00  0.00    +0.000 A 
ATOM     10  C   UNL     1       2.233   7.093  19.632  0.00  0.00    +0.000 A 
ATOM     11  C   UNL     1       1.900   5.678  19.875  0.00  0.00    +0.000 A 
ATOM     12  O   UNL     1       1.046   5.381  20.713  0.00  0.00    +0.000 OA
ATOM     13  N   UNL     1       2.598   4.728  19.140  0.00  0.00    +0.000 N 
ENDROOT
BRANCH  10  14
ATOM     14  C   UNL     1       1.615   8.235  20.366  0.00  0.00    +0.000 C 
ATOM     15  O   UNL     1       0.998   9.129  19.789  0.00  0.00    +0.000 OA
ATOM     16  N   UNL     1       1.802   8.225  21.740  0.00  0.00    +0.000 N 
ATOM     17  H   UNL     1       2.287   7.438  22.188  0.00  0.00    +0.000 HD
BRANCH  16  18
ATOM     18  N   UNL     1       1.247   9.241  22.546  0.00  0.00    +0.000 NA
ATOM     19  H   UNL     1       0.285   8.955  22.775  0.00  0.00    +0.000 HD
ATOM     20  H   UNL     1       1.134  10.077  21.966  0.00  0.00    +0.000 HD
ENDBRANCH  16  18
ENDBRANCH  10  14
BRANCH   6  21
ATOM     21  N   UNL     1       5.496   3.407  15.587  0.00  0.00    +0.000 N 
ATOM     22  H   UNL     1       4.867   2.643  15.336  0.00  0.00    +0.000 HD
BRANCH  21  23
ATOM     23  C   UNL     1       6.203   3.826  14.426  0.00  0.00    +0.000 A 
ATOM     24  C   UNL     1       5.899   3.310  13.160  0.00  0.00    +0.000 A 
ATOM     25  C   UNL     1       6.546   3.783  12.016  0.00  0.00    +0.000 A 
ATOM     26  C   UNL     1       7.499   4.793  12.122  0.00  0.00    +0.000 A 
ATOM     27  C   UNL     1       7.792   5.341  13.368  0.00  0.00    +0.000 A 
ATOM     28  C   UNL     1       7.134   4.873  14.512  0.00  0.00    +0.000 A 
ENDBRANCH  21  23
ENDBRANCH   6  21
TORSDOF 4
ENDMDL
MODEL 8
REMARK VINA RESULT:      -7.6      3.603      8.123
REMARK  Name = 
REMARK  5 active torsions:
REMARK  status: ('A' for Active; 'I' for Inactive)
REMARK    1  A    between atoms: C_1  and  C_2
REMARK    2  A    between atoms: N_6  and  N_7
REMARK    3  A    between atoms: N_7  and  C_8
REMARK    4  A    between atoms: C_17  and  C_18
REMARK    5  A    between atoms: N_20  and  N_21
REMARK                            x       y       z     vdW  Elec       q    Type
REMARK                         _______ _______ _______ _____ _____    ______ ____
ROOT
ATOM      1  C   UNL     1       1.988   6.732  17.728  0.00  0.00    +0.000 C 
ATOM      2  C   UNL     1       3.347   6.774  18.442  0.00  0.00    +0.000 C 
ATOM      3  C   UNL     1       4.402   7.490  17.605  0.00  0.00    +0.000 C 
ATOM      4  C   UNL     1       4.814   6.636  16.424  0.00  0.00    +0.000 C 
ATOM      5  C   UNL     1       5.424   5.364  16.952  0.00  0.00    +0.000 C 
ATOM      6  N   UNL     1       6.499   4.805  16.478  0.00  0.00    +0.000 NA
ATOM      7  C   UNL     1       4.700   4.682  18.120  0.00  0.00    +0.000 A 
ATOM      8  N   UNL     1       5.000   3.454  18.410  0.00  0.00    +0.000 NA
ATOM      9  C   UNL     1       4.363   2.873  19.475  0.00  0.00    +0.000 A 
ATOM     10  C   UNL     1       3.452   3.464  20.256  0.00  0.00    +0.000 A 
ATOM     11  C   UNL     1       3.125   4.865  19.929  0.00  0.00    +0.000 A 
ATOM     12  O   UNL     1       2.295   5.477  20.606  0.00  0.00    +0.000 OA
ATOM     13  N   UNL     1       3.774   5.429  18.838  0.00  0.00    +0.000 N 
ENDROOT
BRANCH  10  14
ATOM     14  C   UNL     1       2.815   2.694  21.362  0.00  0.00    +0.000 C 
ATOM     15  O   UNL     1       3.442   1.886  22.046  0.00  0.00    +0.000 OA
ATOM     16  N   UNL     1       1.463   2.939  21.551  0.00  0.00    +0.000 N 
ATOM     17  H   UNL     1       0.985   3.651  20.987  0.00  0.00    +0.000 HD
BRANCH  16  18
ATOM     18  N   UNL     1       0.754   2.285  22.581  0.00  0.00    +0.000 NA
ATOM     19  H   UNL     1       0.461   1.370  22.214  0.00  0.00    +0.000 HD
ATOM     20  H   UNL     1      -0.122   2.792  22.732  0.00  0.00    +0.000 HD
ENDBRANCH  16  18
ENDBRANCH  10  14
BRANCH   6  21
ATOM     21  N   UNL     1       7.140   5.457  15.458  0.00  0.00    +0.000 N 
ATOM     22  H   UNL     1       8.121   5.668  15.649  0.00  0.00    +0.000 HD
BRANCH  21  23
ATOM     23  C   UNL     1       7.039   4.851  14.175  0.00  0.00    +0.000 A 
ATOM     24  C   UNL     1       6.098   3.847  13.914  0.00  0.00    +0.000 A 
ATOM     25  C   UNL     1       5.954   3.311  12.632  0.00  0.00    +0.000 A 
ATOM     26  C   UNL     1       6.742   3.785  11.586  0.00  0.00    +0.000 A 
ATOM     27  C   UNL     1       7.661   4.806  11.820  0.00  0.00    +0.000 A 
ATOM     28  C   UNL     1       7.795   5.349  13.103  0.00  0.00    +0.000 A 
ENDBRANCH  21  23
ENDBRANCH   6  21
TORSDOF 4
ENDMDL
MODEL 9
REMARK VINA RESULT:      -7.5      1.229      1.338
REMARK  Name = 
REMARK  5 active torsions:
REMARK  status: ('A' for Active; 'I' for Inactive)
REMARK    1  A    between atoms: C_1  and  C_2
REMARK    2  A    between atoms: N_6  and  N_7
REMARK    3  A    between atoms: N_7  and  C_8
REMARK    4  A    between atoms: C_17  and  C_18
REMARK    5  A    between atoms: N_20  and  N_21
REMARK                            x       y       z     vdW  Elec       q    Type
REMARK                         _______ _______ _______ _____ _____    ______ ____
ROOT
ATOM      1  C   UNL     1       2.488   2.941  19.205  0.00  0.00    +0.000 C 
ATOM      2  C   UNL     1       3.325   3.948  20.007  0.00  0.00    +0.000 C 
ATOM      3  C   UNL     1       2.501   4.623  21.098  0.00  0.00    +0.000 C 
ATOM      4  C   UNL     1       1.517   5.604  20.494  0.00  0.00    +0.000 C 
ATOM      5  C   UNL     1       2.299   6.671  19.774  0.00  0.00    +0.000 C 
ATOM      6  N   UNL     1       2.034   7.944  19.822  0.00  0.00    +0.000 NA
ATOM      7  C   UNL     1       3.477   6.202  18.911  0.00  0.00    +0.000 A 
ATOM      8  N   UNL     1       3.987   7.026  18.048  0.00  0.00    +0.000 NA
ATOM      9  C   UNL     1       5.057   6.598  17.307  0.00  0.00    +0.000 A 
ATOM     10  C   UNL     1       5.636   5.396  17.397  0.00  0.00    +0.000 A 
ATOM     11  C   UNL     1       5.062   4.468  18.389  0.00  0.00    +0.000 A 
ATOM     12  O   UNL     1       5.543   3.342  18.531  0.00  0.00    +0.000 OA
ATOM     13  N   UNL     1       3.969   4.920  19.120  0.00  0.00    +0.000 N 
ENDROOT
BRANCH  10  14
ATOM     14  C   UNL     1       6.777   5.056  16.499  0.00  0.00    +0.000 C 
ATOM     15  O   UNL     1       7.753   4.416  16.890  0.00  0.00    +0.000 OA
ATOM     16  N   UNL     1       6.669   5.529  15.200  0.00  0.00    +0.000 N 
ATOM     17  H   UNL     1       5.819   6.023  14.901  0.00  0.00    +0.000 HD
BRANCH  16  18
ATOM     18  N   UNL     1       7.676   5.254  14.251  0.00  0.00    +0.000 NA
ATOM     19  H   UNL     1       7.391   4.406  13.743  0.00  0.00    +0.000 HD
ATOM     20  H   UNL     1       8.520   4.976  14.759  0.00  0.00    +0.000 HD
ENDBRANCH  16  18
ENDBRANCH  10  14
BRANCH   6  21
ATOM     21  N   UNL     1       0.997   8.332  20.629  0.00  0.00    +0.000 N 
ATOM     22  H   UNL     1       1.167   8.188  21.625  0.00  0.00    +0.000 HD
BRANCH  21  23
ATOM     23  C   UNL     1       0.519   9.657  20.429  0.00  0.00    +0.000 A 
ATOM     24  C   UNL     1       0.938  10.428  19.337  0.00  0.00    +0.000 A 
ATOM     25  C   UNL     1       0.407  11.699  19.107  0.00  0.00    +0.000 A 
ATOM     26  C   UNL     1      -0.567  12.212  19.960  0.00  0.00    +0.000 A 
ATOM     27  C   UNL     1      -1.019  11.448  21.033  0.00  0.00    +0.000 A 
ATOM     28  C   UNL     1      -0.493  10.170  21.255  0.00  0.00    +0.000 A 
ENDBRANCH  21  23
ENDBRANCH   6  21
TORSDOF 4
ENDMDL
