MODEL 1
REMARK VINA RESULT:      -8.1      0.000      0.000
REMARK  Name = 
REMARK  9 active torsions:
REMARK  status: ('A' for Active; 'I' for Inactive)
REMARK    1  A    between atoms: C_1  and  O_2
REMARK    2  A    between atoms: O_2  and  C_3
REMARK    3  A    between atoms: C_6  and  C_7
REMARK    4  A    between atoms: C_8  and  C_9
REMARK    5  A    between atoms: C_9  and  C_11
REMARK    6  A    between atoms: C_14  and  C_15
REMARK    7  A    between atoms: C_18  and  C_19
REMARK    8  A    between atoms: C_19  and  N_20
REMARK    9  A    between atoms: C_26  and  O_27
REMARK                            x       y       z     vdW  Elec       q    Type
REMARK                         _______ _______ _______ _____ _____    ______ ____
ROOT
ATOM      1  C   UNL     1       1.602   8.706  19.269  0.00  0.00    +0.000 A 
ATOM      2  C   UNL     1       2.168   8.875  18.019  0.00  0.00    +0.000 A 
ATOM      3  C   UNL     1       3.043   7.904  17.537  0.00  0.00    +0.000 A 
ATOM      4  C   UNL     1       3.355   6.737  18.271  0.00  0.00    +0.000 A 
ATOM      5  C   UNL     1       2.708   6.498  19.513  0.00  0.00    +0.000 A 
ATOM      6  C   UNL     1       1.896   7.541  20.003  0.00  0.00    +0.000 A 
ENDROOT
BRANCH   1   8
ATOM      7  C   UNL     1       0.033  10.482  19.064  0.00  0.00    +0.000 C 
ATOM      8  O   UNL     1       0.767   9.594  19.901  0.00  0.00    +0.000 OA
ENDBRANCH   1   8
BRANCH   4   9
ATOM      9  C   UNL     1       4.393   5.856  17.673  0.00  0.00    +0.000 C 
ATOM     10  C   UNL     1       5.622   5.751  18.217  0.00  0.00    +0.000 C 
BRANCH  10  11
ATOM     11  C   UNL     1       6.702   4.940  17.581  0.00  0.00    +0.000 C 
ATOM     12  O   UNL     1       7.652   4.536  18.245  0.00  0.00    +0.000 OA
BRANCH  11  13
ATOM     13  C   UNL     1       6.620   4.632  16.121  0.00  0.00    +0.000 A 
ATOM     14  C   UNL     1       5.657   3.694  15.710  0.00  0.00    +0.000 A 
ATOM     15  C   UNL     1       5.537   3.323  14.369  0.00  0.00    +0.000 A 
ATOM     16  C   UNL     1       6.377   3.885  13.402  0.00  0.00    +0.000 A 
ATOM     17  C   UNL     1       6.251   3.501  11.951  0.00  0.00    +0.000 C 
ATOM     18  C   UNL     1       7.325   4.831  13.797  0.00  0.00    +0.000 A 
ATOM     19  C   UNL     1       7.445   5.205  15.144  0.00  0.00    +0.000 A 
ENDBRANCH  11  13
ENDBRANCH  10  11
ENDBRANCH   4   9
BRANCH   6  20
ATOM     20  O   UNL     1       1.420   7.490  21.292  0.00  0.00    +0.000 OA
ATOM     21  H   UNL     1       1.589   6.574  21.588  0.00  0.00    +0.000 HD
ENDBRANCH   6  20
BRANCH   5  22
ATOM     22  C   UNL     1       2.974   5.272  20.381  0.00  0.00    +0.000 C 
BRANCH  22  23
ATOM     23  N   UNL     1       2.354   3.974  20.081  0.00  0.00    +0.000 NA
ATOM     24  C   UNL     1       3.173   2.772  20.188  0.00  0.00    +0.000 C 
ATOM     25  C   UNL     1       3.795   2.355  18.852  0.00  0.00    +0.000 C 
ATOM     26  O   UNL     1       2.771   2.084  17.887  0.00  0.00    +0.000 OA
ATOM     27  C   UNL     1       1.947   3.235  17.661  0.00  0.00    +0.000 C 
ATOM     28  C   UNL     1       1.407   3.869  18.965  0.00  0.00    +0.000 C 
ENDBRANCH  22  23
ENDBRANCH   5  22
TORSDOF 7
ENDMDL
MODEL 2
REMARK VINA RESULT:      -8.0      1.971      7.113
REMARK  Name = 
REMARK  9 active torsions:
REMARK  status: ('A' for Active; 'I' for Inactive)
REMARK    1  A    between atoms: C_1  and  O_2
REMARK    2  A    between atoms: O_2  and  C_3
REMARK    3  A    between atoms: C_6  and  C_7
REMARK    4  A    between atoms: C_8  and  C_9
REMARK    5  A    between atoms: C_9  and  C_11
REMARK    6  A    between atoms: C_14  and  C_15
REMARK    7  A    between atoms: C_18  and  C_19
REMARK    8  A    between atoms: C_19  and  N_20
REMARK    9  A    between atoms: C_26  and  O_27
REMARK                            x       y       z     vdW  Elec       q    Type
REMARK                         _______ _______ _______ _____ _____    ______ ____
ROOT
ATOM      1  C   UNL     1       5.547   4.497  15.518  0.00  0.00    +0.000 A 
ATOM      2  C   UNL     1       5.651   5.791  15.042  0.00  0.00    +0.000 A 
ATOM      3  C   UNL     1       5.104   6.832  15.790  0.00  0.00    +0.000 A 
ATOM      4  C   UNL     1       4.468   6.616  17.034  0.00  0.00    +0.000 A 
ATOM      5  C   UNL     1       4.438   5.307  17.585  0.00  0.00    +0.000 A 
ATOM      6  C   UNL     1       4.926   4.273  16.761  0.00  0.00    +0.000 A 
ENDROOT
BRANCH   1   8
ATOM      7  C   UNL     1       6.046   3.426  13.454  0.00  0.00    +0.000 C 
ATOM      8  O   UNL     1       5.985   3.366  14.875  0.00  0.00    +0.000 OA
ENDBRANCH   1   8
BRANCH   4   9
ATOM      9  C   UNL     1       3.834   7.810  17.652  0.00  0.00    +0.000 C 
ATOM     10  C   UNL     1       2.513   8.045  17.532  0.00  0.00    +0.000 C 
BRANCH  10  11
ATOM     11  C   UNL     1       1.876   9.282  18.072  0.00  0.00    +0.000 C 
ATOM     12  O   UNL     1       1.847  10.312  17.405  0.00  0.00    +0.000 OA
BRANCH  11  13
ATOM     13  C   UNL     1       1.277   9.257  19.442  0.00  0.00    +0.000 A 
ATOM     14  C   UNL     1       0.252  10.178  19.718  0.00  0.00    +0.000 A 
ATOM     15  C   UNL     1      -0.337  10.245  20.983  0.00  0.00    +0.000 A 
ATOM     16  C   UNL     1       0.084   9.388  22.005  0.00  0.00    +0.000 A 
ATOM     17  C   UNL     1      -0.550   9.442  23.370  0.00  0.00    +0.000 C 
ATOM     18  C   UNL     1       1.089   8.456  21.736  0.00  0.00    +0.000 A 
ATOM     19  C   UNL     1       1.680   8.388  20.464  0.00  0.00    +0.000 A 
ENDBRANCH  11  13
ENDBRANCH  10  11
ENDBRANCH   4   9
BRANCH   6  20
ATOM     20  O   UNL     1       4.726   2.959  17.119  0.00  0.00    +0.000 OA
ATOM     21  H   UNL     1       3.769   2.892  17.310  0.00  0.00    +0.000 HD
ENDBRANCH   6  20
BRANCH   5  22
ATOM     22  C   UNL     1       3.777   4.967  18.917  0.00  0.00    +0.000 C 
BRANCH  22  23
ATOM     23  N   UNL     1       2.315   4.919  19.056  0.00  0.00    +0.000 NA
ATOM     24  C   UNL     1       1.746   4.842  20.397  0.00  0.00    +0.000 C 
ATOM     25  C   UNL     1       1.455   3.404  20.836  0.00  0.00    +0.000 C 
ATOM     26  O   UNL     1       0.518   2.788  19.944  0.00  0.00    +0.000 OA
ATOM     27  C   UNL     1       1.018   2.757  18.601  0.00  0.00    +0.000 C 
ATOM     28  C   UNL     1       1.528   4.130  18.102  0.00  0.00    +0.000 C 
ENDBRANCH  22  23
ENDBRANCH   5  22
TORSDOF 7
ENDMDL
MODEL 3
REMARK VINA RESULT:      -7.8      2.086      7.497
REMARK  Name = 
REMARK  9 active torsions:
REMARK  status: ('A' for Active; 'I' for Inactive)
REMARK    1  A    between atoms: C_1  and  O_2
REMARK    2  A    between atoms: O_2  and  C_3
REMARK    3  A    between atoms: C_6  and  C_7
REMARK    4  A    between atoms: C_8  and  C_9
REMARK    5  A    between atoms: C_9  and  C_11
REMARK    6  A    between atoms: C_14  and  C_15
REMARK    7  A    between atoms: C_18  and  C_19
REMARK    8  A    between atoms: C_19  and  N_20
REMARK    9  A    between atoms: C_26  and  O_27
REMARK                            x       y       z     vdW  Elec       q    Type
REMARK                         _______ _______ _______ _____ _____    ______ ____
ROOT
ATOM      1  C   UNL     1       2.987   3.774  20.435  0.00  0.00    +0.000 A 
ATOM      2  C   UNL     1       2.172   4.778  20.925  0.00  0.00    +0.000 A 
ATOM      3  C   UNL     1       1.970   5.921  20.154  0.00  0.00    +0.000 A 
ATOM      4  C   UNL     1       2.550   6.081  18.874  0.00  0.00    +0.000 A 
ATOM      5  C   UNL     1       3.310   5.020  18.314  0.00  0.00    +0.000 A 
ATOM      6  C   UNL     1       3.559   3.919  19.158  0.00  0.00    +0.000 A 
ENDROOT
BRANCH   1   8
ATOM      7  C   UNL     1       2.272   1.950  21.784  0.00  0.00    +0.000 C 
ATOM      8  O   UNL     1       3.324   2.618  21.095  0.00  0.00    +0.000 OA
ENDBRANCH   1   8
BRANCH   4   9
ATOM      9  C   UNL     1       2.336   7.403  18.229  0.00  0.00    +0.000 C 
ATOM     10  C   UNL     1       1.800   8.437  18.906  0.00  0.00    +0.000 C 
BRANCH  10  11
ATOM     11  C   UNL     1       1.498   9.743  18.251  0.00  0.00    +0.000 C 
ATOM     12  O   UNL     1       2.377  10.363  17.660  0.00  0.00    +0.000 OA
BRANCH  11  13
ATOM     13  C   UNL     1       0.110  10.295  18.328  0.00  0.00    +0.000 A 
ATOM     14  C   UNL     1      -0.890   9.635  17.594  0.00  0.00    +0.000 A 
ATOM     15  C   UNL     1      -2.206  10.104  17.583  0.00  0.00    +0.000 A 
ATOM     16  C   UNL     1      -2.555  11.247  18.311  0.00  0.00    +0.000 A 
ATOM     17  C   UNL     1      -3.971  11.758  18.316  0.00  0.00    +0.000 C 
ATOM     18  C   UNL     1      -1.571  11.900  19.058  0.00  0.00    +0.000 A 
ATOM     19  C   UNL     1      -0.250  11.427  19.070  0.00  0.00    +0.000 A 
ENDBRANCH  11  13
ENDBRANCH  10  11
ENDBRANCH   4   9
BRANCH   6  20
ATOM     20  O   UNL     1       4.470   2.959  18.780  0.00  0.00    +0.000 OA
ATOM     21  H   UNL     1       4.930   2.707  19.605  0.00  0.00    +0.000 HD
ENDBRANCH   6  20
BRANCH   5  22
ATOM     22  C   UNL     1       3.977   5.092  16.944  0.00  0.00    +0.000 C 
BRANCH  22  23
ATOM     23  N   UNL     1       5.294   5.718  16.766  0.00  0.00    +0.000 NA
ATOM     24  C   UNL     1       6.017   5.475  15.522  0.00  0.00    +0.000 C 
ATOM     25  C   UNL     1       7.008   4.312  15.630  0.00  0.00    +0.000 C 
ATOM     26  O   UNL     1       7.986   4.580  16.643  0.00  0.00    +0.000 OA
ATOM     27  C   UNL     1       7.373   4.770  17.924  0.00  0.00    +0.000 C 
ATOM     28  C   UNL     1       6.214   5.795  17.905  0.00  0.00    +0.000 C 
ENDBRANCH  22  23
ENDBRANCH   5  22
TORSDOF 7
ENDMDL
MODEL 4
REMARK VINA RESULT:      -7.8      2.091      7.508
REMARK  Name = 
REMARK  9 active torsions:
REMARK  status: ('A' for Active; 'I' for Inactive)
REMARK    1  A    between atoms: C_1  and  O_2
REMARK    2  A    between atoms: O_2  and  C_3
REMARK    3  A    between atoms: C_6  and  C_7
REMARK    4  A    between atoms: C_8  and  C_9
REMARK    5  A    between atoms: C_9  and  C_11
REMARK    6  A    between atoms: C_14  and  C_15
REMARK    7  A    between atoms: C_18  and  C_19
REMARK    8  A    between atoms: C_19  and  N_20
REMARK    9  A    between atoms: C_26  and  O_27
REMARK                            x       y       z     vdW  Elec       q    Type
REMARK                         _______ _______ _______ _____ _____    ______ ____
ROOT
ATOM      1  C   UNL     1       2.862   3.658  20.454  0.00  0.00    +0.000 A 
ATOM      2  C   UNL     1       2.035   4.666  20.913  0.00  0.00    +0.000 A 
ATOM      3  C   UNL     1       1.883   5.818  20.144  0.00  0.00    +0.000 A 
ATOM      4  C   UNL     1       2.526   5.983  18.895  0.00  0.00    +0.000 A 
ATOM      5  C   UNL     1       3.301   4.918  18.363  0.00  0.00    +0.000 A 
ATOM      6  C   UNL     1       3.497   3.807  19.207  0.00  0.00    +0.000 A 
ENDROOT
BRANCH   1   8
ATOM      7  C   UNL     1       2.150   1.992  21.997  0.00  0.00    +0.000 C 
ATOM      8  O   UNL     1       3.154   2.492  21.119  0.00  0.00    +0.000 OA
ENDBRANCH   1   8
BRANCH   4   9
ATOM      9  C   UNL     1       2.358   7.313  18.252  0.00  0.00    +0.000 C 
ATOM     10  C   UNL     1       1.726   8.322  18.883  0.00  0.00    +0.000 C 
BRANCH  10  11
ATOM     11  C   UNL     1       1.472   9.635  18.219  0.00  0.00    +0.000 C 
ATOM     12  O   UNL     1       2.372  10.216  17.620  0.00  0.00    +0.000 OA
BRANCH  11  13
ATOM     13  C   UNL     1       0.108  10.241  18.300  0.00  0.00    +0.000 A 
ATOM     14  C   UNL     1      -0.913   9.641  17.544  0.00  0.00    +0.000 A 
ATOM     15  C   UNL     1      -2.208  10.165  17.535  0.00  0.00    +0.000 A 
ATOM     16  C   UNL     1      -2.516  11.303  18.288  0.00  0.00    +0.000 A 
ATOM     17  C   UNL     1      -3.910  11.872  18.296  0.00  0.00    +0.000 C 
ATOM     18  C   UNL     1      -1.513  11.896  19.057  0.00  0.00    +0.000 A 
ATOM     19  C   UNL     1      -0.212  11.369  19.067  0.00  0.00    +0.000 A 
ENDBRANCH  11  13
ENDBRANCH  10  11
ENDBRANCH   4   9
BRANCH   6  20
ATOM     20  O   UNL     1       4.415   2.840  18.865  0.00  0.00    +0.000 OA
ATOM     21  H   UNL     1       5.253   3.129  19.277  0.00  0.00    +0.000 HD
ENDBRANCH   6  20
BRANCH   5  22
ATOM     22  C   UNL     1       4.035   4.995  17.027  0.00  0.00    +0.000 C 
BRANCH  22  23
ATOM     23  N   UNL     1       5.419   4.523  16.887  0.00  0.00    +0.000 NA
ATOM     24  C   UNL     1       6.487   5.310  17.495  0.00  0.00    +0.000 C 
ATOM     25  C   UNL     1       7.126   6.298  16.516  0.00  0.00    +0.000 C 
ATOM     26  O   UNL     1       7.697   5.601  15.402  0.00  0.00    +0.000 OA
ATOM     27  C   UNL     1       6.706   4.845  14.695  0.00  0.00    +0.000 C 
ATOM     28  C   UNL     1       5.854   3.938  15.614  0.00  0.00    +0.000 C 
ENDBRANCH  22  23
ENDBRANCH   5  22
TORSDOF 7
ENDMDL
MODEL 5
REMARK VINA RESULT:      -7.7      0.735      1.169
REMARK  Name = 
REMARK  9 active torsions:
REMARK  status: ('A' for Active; 'I' for Inactive)
REMARK    1  A    between atoms: C_1  and  O_2
REMARK    2  A    between atoms: O_2  and  C_3
REMARK    3  A    between atoms: C_6  and  C_7
REMARK    4  A    between atoms: C_8  and  C_9
REMARK    5  A    between atoms: C_9  and  C_11
REMARK    6  A    between atoms: C_14  and  C_15
REMARK    7  A    between atoms: C_18  and  C_19
REMARK    8  A    between atoms: C_19  and  N_20
REMARK    9  A    between atoms: C_26  and  O_27
REMARK                            x       y       z     vdW  Elec       q    Type
REMARK                         _______ _______ _______ _____ _____    ______ ____
ROOT
ATOM      1  C   UNL     1       1.430   8.968  19.162  0.00  0.00    +0.000 A 
ATOM      2  C   UNL     1       2.161   9.210  18.014  0.00  0.00    +0.000 A 
ATOM      3  C   UNL     1       3.117   8.279  17.613  0.00  0.00    +0.000 A 
ATOM      4  C   UNL     1       3.350   7.080  18.325  0.00  0.00    +0.000 A 
ATOM      5  C   UNL     1       2.541   6.769  19.451  0.00  0.00    +0.000 A 
ATOM      6  C   UNL     1       1.645   7.772  19.872  0.00  0.00    +0.000 A 
ENDROOT
BRANCH   1   8
ATOM      7  C   UNL     1      -0.625  10.137  18.897  0.00  0.00    +0.000 C 
ATOM      8  O   UNL     1       0.495   9.810  19.713  0.00  0.00    +0.000 OA
ENDBRANCH   1   8
BRANCH   4   9
ATOM      9  C   UNL     1       4.481   6.248  17.838  0.00  0.00    +0.000 C 
ATOM     10  C   UNL     1       5.538   6.799  17.210  0.00  0.00    +0.000 C 
BRANCH  10  11
ATOM     11  C   UNL     1       6.640   5.971  16.638  0.00  0.00    +0.000 C 
ATOM     12  O   UNL     1       7.754   5.970  17.154  0.00  0.00    +0.000 OA
BRANCH  11  13
ATOM     13  C   UNL     1       6.375   5.145  15.419  0.00  0.00    +0.000 A 
ATOM     14  C   UNL     1       7.307   5.222  14.370  0.00  0.00    +0.000 A 
ATOM     15  C   UNL     1       7.118   4.510  13.183  0.00  0.00    +0.000 A 
ATOM     16  C   UNL     1       5.990   3.699  13.017  0.00  0.00    +0.000 A 
ATOM     17  C   UNL     1       5.779   2.919  11.747  0.00  0.00    +0.000 C 
ATOM     18  C   UNL     1       5.067   3.602  14.061  0.00  0.00    +0.000 A 
ATOM     19  C   UNL     1       5.258   4.316  15.255  0.00  0.00    +0.000 A 
ENDBRANCH  11  13
ENDBRANCH  10  11
ENDBRANCH   4   9
BRANCH   6  20
ATOM     20  O   UNL     1       0.994   7.647  21.078  0.00  0.00    +0.000 OA
ATOM     21  H   UNL     1       1.516   8.186  21.704  0.00  0.00    +0.000 HD
ENDBRANCH   6  20
BRANCH   5  22
ATOM     22  C   UNL     1       2.711   5.504  20.286  0.00  0.00    +0.000 C 
BRANCH  22  23
ATOM     23  N   UNL     1       2.081   4.236  19.892  0.00  0.00    +0.000 NA
ATOM     24  C   UNL     1       2.681   2.989  20.352  0.00  0.00    +0.000 C 
ATOM     25  C   UNL     1       3.650   2.385  19.332  0.00  0.00    +0.000 C 
ATOM     26  O   UNL     1       2.971   2.099  18.104  0.00  0.00    +0.000 OA
ATOM     27  C   UNL     1       2.398   3.283  17.535  0.00  0.00    +0.000 C 
ATOM     28  C   UNL     1       1.540   4.093  18.536  0.00  0.00    +0.000 C 
ENDBRANCH  22  23
ENDBRANCH   5  22
TORSDOF 7
ENDMDL
MODEL 6
REMARK VINA RESULT:      -7.7      1.193      1.715
REMARK  Name = 
REMARK  9 active torsions:
REMARK  status: ('A' for Active; 'I' for Inactive)
REMARK    1  A    between atoms: C_1  and  O_2
REMARK    2  A    between atoms: O_2  and  C_3
REMARK    3  A    between atoms: C_6  and  C_7
REMARK    4  A    between atoms: C_8  and  C_9
REMARK    5  A    between atoms: C_9  and  C_11
REMARK    6  A    between atoms: C_14  and  C_15
REMARK    7  A    between atoms: C_18  and  C_19
REMARK    8  A    between atoms: C_19  and  N_20
REMARK    9  A    between atoms: C_26  and  O_27
REMARK                            x       y       z     vdW  Elec       q    Type
REMARK                         _______ _______ _______ _____ _____    ______ ____
ROOT
ATOM      1  C   UNL     1       1.363   8.413  19.641  0.00  0.00    +0.000 A 
ATOM      2  C   UNL     1       1.579   8.980  18.399  0.00  0.00    +0.000 A 
ATOM      3  C   UNL     1       2.550   8.430  17.565  0.00  0.00    +0.000 A 
ATOM      4  C   UNL     1       3.307   7.294  17.934  0.00  0.00    +0.000 A 
ATOM      5  C   UNL     1       3.031   6.640  19.164  0.00  0.00    +0.000 A 
ATOM      6  C   UNL     1       2.102   7.275  20.013  0.00  0.00    +0.000 A 
ENDROOT
BRANCH   1   8
ATOM      7  C   UNL     1       0.231  10.272  20.603  0.00  0.00    +0.000 C 
ATOM      8  O   UNL     1       0.484   8.870  20.592  0.00  0.00    +0.000 OA
ENDBRANCH   1   8
BRANCH   4   9
ATOM      9  C   UNL     1       4.383   6.899  16.987  0.00  0.00    +0.000 C 
ATOM     10  C   UNL     1       5.593   6.501  17.426  0.00  0.00    +0.000 C 
BRANCH  10  11
ATOM     11  C   UNL     1       6.711   6.185  16.488  0.00  0.00    +0.000 C 
ATOM     12  O   UNL     1       7.823   6.677  16.655  0.00  0.00    +0.000 OA
BRANCH  11  13
ATOM     13  C   UNL     1       6.459   5.267  15.335  0.00  0.00    +0.000 A 
ATOM     14  C   UNL     1       7.342   5.341  14.244  0.00  0.00    +0.000 A 
ATOM     15  C   UNL     1       7.159   4.544  13.112  0.00  0.00    +0.000 A 
ATOM     16  C   UNL     1       6.086   3.648  13.044  0.00  0.00    +0.000 A 
ATOM     17  C   UNL     1       5.883   2.775  11.834  0.00  0.00    +0.000 C 
ATOM     18  C   UNL     1       5.214   3.554  14.131  0.00  0.00    +0.000 A 
ATOM     19  C   UNL     1       5.399   4.354  15.269  0.00  0.00    +0.000 A 
ENDBRANCH  11  13
ENDBRANCH  10  11
ENDBRANCH   4   9
BRANCH   6  20
ATOM     20  O   UNL     1       1.948   6.837  21.308  0.00  0.00    +0.000 OA
ATOM     21  H   UNL     1       1.301   6.106  21.253  0.00  0.00    +0.000 HD
ENDBRANCH   6  20
BRANCH   5  22
ATOM     22  C   UNL     1       3.788   5.409  19.654  0.00  0.00    +0.000 C 
BRANCH  22  23
ATOM     23  N   UNL     1       3.278   4.052  19.416  0.00  0.00    +0.000 NA
ATOM     24  C   UNL     1       2.872   3.689  18.063  0.00  0.00    +0.000 C 
ATOM     25  C   UNL     1       1.373   3.885  17.820  0.00  0.00    +0.000 C 
ATOM     26  O   UNL     1       0.610   3.074  18.722  0.00  0.00    +0.000 OA
ATOM     27  C   UNL     1       0.892   3.404  20.088  0.00  0.00    +0.000 C 
ATOM     28  C   UNL     1       2.404   3.427  20.414  0.00  0.00    +0.000 C 
ENDBRANCH  22  23
ENDBRANCH   5  22
TORSDOF 7
ENDMDL
MODEL 7
REMARK VINA RESULT:      -7.6      2.112      7.577
REMARK  Name = 
REMARK  9 active torsions:
REMARK  status: ('A' for Active; 'I' for Inactive)
REMARK    1  A    between atoms: C_1  and  O_2
REMARK    2  A    between atoms: O_2  and  C_3
REMARK    3  A    between atoms: C_6  and  C_7
REMARK    4  A    between atoms: C_8  and  C_9
REMARK    5  A    between atoms: C_9  and  C_11
REMARK    6  A    between atoms: C_14  and  C_15
REMARK    7  A    between atoms: C_18  and  C_19
REMARK    8  A    between atoms: C_19  and  N_20
REMARK    9  A    between atoms: C_26  and  O_27
REMARK                            x       y       z     vdW  Elec       q    Type
REMARK                         _______ _______ _______ _____ _____    ______ ____
ROOT
ATOM      1  C   UNL     1       5.652   5.669  18.001  0.00  0.00    +0.000 A 
ATOM      2  C   UNL     1       5.486   6.750  17.154  0.00  0.00    +0.000 A 
ATOM      3  C   UNL     1       4.280   7.448  17.179  0.00  0.00    +0.000 A 
ATOM      4  C   UNL     1       3.227   7.106  18.059  0.00  0.00    +0.000 A 
ATOM      5  C   UNL     1       3.416   6.062  19.003  0.00  0.00    +0.000 A 
ATOM      6  C   UNL     1       4.614   5.328  18.889  0.00  0.00    +0.000 A 
ENDROOT
BRANCH   1   8
ATOM      7  C   UNL     1       7.367   4.528  16.812  0.00  0.00    +0.000 C 
ATOM      8  O   UNL     1       6.755   4.853  18.056  0.00  0.00    +0.000 OA
ENDBRANCH   1   8
BRANCH   4   9
ATOM      9  C   UNL     1       1.964   7.871  17.883  0.00  0.00    +0.000 C 
ATOM     10  C   UNL     1       1.707   8.977  18.609  0.00  0.00    +0.000 C 
BRANCH  10  11
ATOM     11  C   UNL     1       0.408   9.706  18.508  0.00  0.00    +0.000 C 
ATOM     12  O   UNL     1      -0.221   9.717  17.455  0.00  0.00    +0.000 OA
BRANCH  11  13
ATOM     13  C   UNL     1      -0.115  10.434  19.705  0.00  0.00    +0.000 A 
ATOM     14  C   UNL     1       0.076   9.835  20.961  0.00  0.00    +0.000 A 
ATOM     15  C   UNL     1      -0.412  10.430  22.127  0.00  0.00    +0.000 A 
ATOM     16  C   UNL     1      -1.103  11.645  22.064  0.00  0.00    +0.000 A 
ATOM     17  C   UNL     1      -1.625  12.303  23.314  0.00  0.00    +0.000 C 
ATOM     18  C   UNL     1      -1.282  12.258  20.822  0.00  0.00    +0.000 A 
ATOM     19  C   UNL     1      -0.790  11.660  19.651  0.00  0.00    +0.000 A 
ENDBRANCH  11  13
ENDBRANCH  10  11
ENDBRANCH   4   9
BRANCH   6  20
ATOM     20  O   UNL     1       4.776   4.165  19.606  0.00  0.00    +0.000 OA
ATOM     21  H   UNL     1       5.614   3.781  19.279  0.00  0.00    +0.000 HD
ENDBRANCH   6  20
BRANCH   5  22
ATOM     22  C   UNL     1       2.346   5.616  19.994  0.00  0.00    +0.000 C 
BRANCH  22  23
ATOM     23  N   UNL     1       1.388   4.553  19.659  0.00  0.00    +0.000 NA
ATOM     24  C   UNL     1       1.093   3.540  20.666  0.00  0.00    +0.000 C 
ATOM     25  C   UNL     1       1.957   2.285  20.516  0.00  0.00    +0.000 C 
ATOM     26  O   UNL     1       1.744   1.681  19.234  0.00  0.00    +0.000 OA
ATOM     27  C   UNL     1       2.072   2.583  18.170  0.00  0.00    +0.000 C 
ATOM     28  C   UNL     1       1.402   3.970  18.313  0.00  0.00    +0.000 C 
ENDBRANCH  22  23
ENDBRANCH   5  22
TORSDOF 7
ENDMDL
MODEL 8
REMARK VINA RESULT:      -7.5      2.231      7.204
REMARK  Name = 
REMARK  9 active torsions:
REMARK  status: ('A' for Active; 'I' for Inactive)
REMARK    1  A    between atoms: C_1  and  O_2
REMARK    2  A    between atoms: O_2  and  C_3
REMARK    3  A    between atoms: C_6  and  C_7
REMARK    4  A    between atoms: C_8  and  C_9
REMARK    5  A    between atoms: C_9  and  C_11
REMARK    6  A    between atoms: C_14  and  C_15
REMARK    7  A    between atoms: C_18  and  C_19
REMARK    8  A    between atoms: C_19  and  N_20
REMARK    9  A    between atoms: C_26  and  O_27
REMARK                            x       y       z     vdW  Elec       q    Type
REMARK                         _______ _______ _______ _____ _____    ______ ____
ROOT
ATOM      1  C   UNL     1       5.632   5.428  16.076  0.00  0.00    +0.000 A 
ATOM      2  C   UNL     1       5.181   6.670  15.670  0.00  0.00    +0.000 A 
ATOM      3  C   UNL     1       4.268   7.352  16.472  0.00  0.00    +0.000 A 
ATOM      4  C   UNL     1       3.805   6.830  17.701  0.00  0.00    +0.000 A 
ATOM      5  C   UNL     1       4.331   5.601  18.181  0.00  0.00    +0.000 A 
ATOM      6  C   UNL     1       5.186   4.905  17.303  0.00  0.00    +0.000 A 
ENDROOT
BRANCH   1   8
ATOM      7  C   UNL     1       6.019   4.136  14.116  0.00  0.00    +0.000 C 
ATOM      8  O   UNL     1       6.486   4.614  15.373  0.00  0.00    +0.000 OA
ENDBRANCH   1   8
BRANCH   4   9
ATOM      9  C   UNL     1       2.746   7.622  18.381  0.00  0.00    +0.000 C 
ATOM     10  C   UNL     1       2.302   8.787  17.869  0.00  0.00    +0.000 C 
BRANCH  10  11
ATOM     11  C   UNL     1       1.304   9.636  18.583  0.00  0.00    +0.000 C 
ATOM     12  O   UNL     1       0.348   9.127  19.158  0.00  0.00    +0.000 OA
BRANCH  11  13
ATOM     13  C   UNL     1       1.477  11.122  18.582  0.00  0.00    +0.000 A 
ATOM     14  C   UNL     1       0.449  11.894  19.149  0.00  0.00    +0.000 A 
ATOM     15  C   UNL     1       0.514  13.289  19.158  0.00  0.00    +0.000 A 
ATOM     16  C   UNL     1       1.615  13.949  18.601  0.00  0.00    +0.000 A 
ATOM     17  C   UNL     1       1.704  15.452  18.613  0.00  0.00    +0.000 C 
ATOM     18  C   UNL     1       2.651  13.190  18.051  0.00  0.00    +0.000 A 
ATOM     19  C   UNL     1       2.586  11.788  18.044  0.00  0.00    +0.000 A 
ENDBRANCH  11  13
ENDBRANCH  10  11
ENDBRANCH   4   9
BRANCH   6  20
ATOM     20  O   UNL     1       5.556   3.611  17.591  0.00  0.00    +0.000 OA
ATOM     21  H   UNL     1       5.939   3.267  16.760  0.00  0.00    +0.000 HD
ENDBRANCH   6  20
BRANCH   5  22
ATOM     22  C   UNL     1       3.898   4.953  19.492  0.00  0.00    +0.000 C 
BRANCH  22  23
ATOM     23  N   UNL     1       3.139   3.696  19.509  0.00  0.00    +0.000 NA
ATOM     24  C   UNL     1       1.731   3.729  19.128  0.00  0.00    +0.000 C 
ATOM     25  C   UNL     1       0.794   3.869  20.331  0.00  0.00    +0.000 C 
ATOM     26  O   UNL     1       0.962   2.764  21.229  0.00  0.00    +0.000 OA
ATOM     27  C   UNL     1       2.309   2.685  21.713  0.00  0.00    +0.000 C 
ATOM     28  C   UNL     1       3.370   2.729  20.588  0.00  0.00    +0.000 C 
ENDBRANCH  22  23
ENDBRANCH   5  22
TORSDOF 7
ENDMDL
MODEL 9
REMARK VINA RESULT:      -7.4      1.629      7.200
REMARK  Name = 
REMARK  9 active torsions:
REMARK  status: ('A' for Active; 'I' for Inactive)
REMARK    1  A    between atoms: C_1  and  O_2
REMARK    2  A    between atoms: O_2  and  C_3
REMARK    3  A    between atoms: C_6  and  C_7
REMARK    4  A    between atoms: C_8  and  C_9
REMARK    5  A    between atoms: C_9  and  C_11
REMARK    6  A    between atoms: C_14  and  C_15
REMARK    7  A    between atoms: C_18  and  C_19
REMARK    8  A    between atoms: C_19  and  N_20
REMARK    9  A    between atoms: C_26  and  O_27
REMARK                            x       y       z     vdW  Elec       q    Type
REMARK                         _______ _______ _______ _____ _____    ______ ____
ROOT
ATOM      1  C   UNL     1       5.827   5.731  15.987  0.00  0.00    +0.000 A 
ATOM      2  C   UNL     1       4.983   6.824  15.911  0.00  0.00    +0.000 A 
ATOM      3  C   UNL     1       4.069   7.043  16.940  0.00  0.00    +0.000 A 
ATOM      4  C   UNL     1       3.990   6.201  18.073  0.00  0.00    +0.000 A 
ATOM      5  C   UNL     1       4.914   5.131  18.214  0.00  0.00    +0.000 A 
ATOM      6  C   UNL     1       5.764   4.893  17.116  0.00  0.00    +0.000 A 
ENDROOT
BRANCH   1   8
ATOM      7  C   UNL     1       6.257   4.513  13.989  0.00  0.00    +0.000 C 
ATOM      8  O   UNL     1       6.739   5.352  15.033  0.00  0.00    +0.000 OA
ENDBRANCH   1   8
BRANCH   4   9
ATOM      9  C   UNL     1       2.887   6.499  19.024  0.00  0.00    +0.000 C 
ATOM     10  C   UNL     1       2.448   7.758  19.217  0.00  0.00    +0.000 C 
BRANCH  10  11
ATOM     11  C   UNL     1       1.402   8.086  20.231  0.00  0.00    +0.000 C 
ATOM     12  O   UNL     1       1.189   7.332  21.175  0.00  0.00    +0.000 OA
BRANCH  11  13
ATOM     13  C   UNL     1       0.608   9.344  20.079  0.00  0.00    +0.000 A 
ATOM     14  C   UNL     1       0.078   9.920  21.246  0.00  0.00    +0.000 A 
ATOM     15  C   UNL     1      -0.706  11.075  21.189  0.00  0.00    +0.000 A 
ATOM     16  C   UNL     1      -0.975  11.688  19.961  0.00  0.00    +0.000 A 
ATOM     17  C   UNL     1      -1.809  12.939  19.886  0.00  0.00    +0.000 C 
ATOM     18  C   UNL     1      -0.437  11.133  18.796  0.00  0.00    +0.000 A 
ATOM     19  C   UNL     1       0.351   9.973  18.853  0.00  0.00    +0.000 A 
ENDBRANCH  11  13
ENDBRANCH  10  11
ENDBRANCH   4   9
BRANCH   6  20
ATOM     20  O   UNL     1       6.524   3.747  17.074  0.00  0.00    +0.000 OA
ATOM     21  H   UNL     1       6.847   3.624  17.988  0.00  0.00    +0.000 HD
ENDBRANCH   6  20
BRANCH   5  22
ATOM     22  C   UNL     1       4.913   4.167  19.396  0.00  0.00    +0.000 C 
BRANCH  22  23
ATOM     23  N   UNL     1       4.157   2.908  19.355  0.00  0.00    +0.000 NA
ATOM     24  C   UNL     1       3.495   2.534  18.110  0.00  0.00    +0.000 C 
ATOM     25  C   UNL     1       2.030   2.974  18.062  0.00  0.00    +0.000 C 
ATOM     26  O   UNL     1       1.290   2.370  19.131  0.00  0.00    +0.000 OA
ATOM     27  C   UNL     1       1.828   2.733  20.409  0.00  0.00    +0.000 C 
ATOM     28  C   UNL     1       3.355   2.511  20.518  0.00  0.00    +0.000 C 
ENDBRANCH  22  23
ENDBRANCH   5  22
TORSDOF 7
ENDMDL
