MODEL 1
REMARK VINA RESULT:      -8.0      0.000      0.000
REMARK  Name = 
REMARK  3 active torsions:
REMARK  status: ('A' for Active; 'I' for Inactive)
REMARK    1  A    between atoms: C_1  and  C_2
REMARK    2  A    between atoms: C_2  and  C_3
REMARK    3  A    between atoms: C_3  and  C_4
REMARK                            x       y       z     vdW  Elec       q    Type
REMARK                         _______ _______ _______ _____ _____    ______ ____
ROOT
ATOM      1  C   UNL     1       1.775   4.957  20.070  0.00  0.00    +0.000 C 
ATOM      2  O   UNL     1       1.877   5.831  20.930  0.00  0.00    +0.000 OA
ATOM      3  N   UNL     1       2.506   4.998  18.895  0.00  0.00    +0.000 N 
ATOM      4  C   UNL     1       3.513   6.048  18.714  0.00  0.00    +0.000 C 
ATOM      5  C   UNL     1       4.854   5.439  18.272  0.00  0.00    +0.000 C 
ATOM      6  N   UNL     1       4.657   4.609  17.071  0.00  0.00    +0.000 N 
ATOM      7  C   UNL     1       5.498   4.680  15.974  0.00  0.00    +0.000 A 
ATOM      8  N   UNL     1       6.592   5.547  16.040  0.00  0.00    +0.000 NA
ATOM      9  N   UNL     1       7.399   5.661  15.083  0.00  0.00    +0.000 NA
ATOM     10  C   UNL     1       7.186   4.946  13.960  0.00  0.00    +0.000 A 
ATOM     11  N   UNL     1       7.829   4.863  12.811  0.00  0.00    +0.000 NA
ATOM     12  N   UNL     1       7.140   3.976  12.004  0.00  0.00    +0.000 NA
ATOM     13  C   UNL     1       6.103   3.548  12.689  0.00  0.00    +0.000 A 
ATOM     14  N   UNL     1       6.101   4.121  13.924  0.00  0.00    +0.000 N 
ATOM     15  N   UNL     1       5.219   3.944  14.926  0.00  0.00    +0.000 NA
ATOM     16  C   UNL     1       3.652   3.547  17.230  0.00  0.00    +0.000 C 
ATOM     17  C   UNL     1       2.317   4.131  17.724  0.00  0.00    +0.000 C 
ENDROOT
BRANCH   1  18
ATOM     18  C   UNL     1       0.880   3.746  20.271  0.00  0.00    +0.000 C 
BRANCH  18  20
ATOM     19  C   UNL     1       2.777   2.520  21.380  0.00  0.00    +0.000 C 
ATOM     20  C   UNL     1       1.310   2.905  21.470  0.00  0.00    +0.000 C 
ENDBRANCH  18  20
ENDBRANCH   1  18
TORSDOF 2
ENDMDL
MODEL 2
REMARK VINA RESULT:      -6.9      4.186      7.902
REMARK  Name = 
REMARK  3 active torsions:
REMARK  status: ('A' for Active; 'I' for Inactive)
REMARK    1  A    between atoms: C_1  and  C_2
REMARK    2  A    between atoms: C_2  and  C_3
REMARK    3  A    between atoms: C_3  and  C_4
REMARK                            x       y       z     vdW  Elec       q    Type
REMARK                         _______ _______ _______ _____ _____    ______ ____
ROOT
ATOM      1  C   UNL     1       4.424   4.010  18.084  0.00  0.00    +0.000 C 
ATOM      2  O   UNL     1       5.036   4.175  17.030  0.00  0.00    +0.000 OA
ATOM      3  N   UNL     1       3.901   5.073  18.801  0.00  0.00    +0.000 N 
ATOM      4  C   UNL     1       3.975   6.424  18.235  0.00  0.00    +0.000 C 
ATOM      5  C   UNL     1       2.596   7.103  18.278  0.00  0.00    +0.000 C 
ATOM      6  N   UNL     1       2.065   7.076  19.652  0.00  0.00    +0.000 N 
ATOM      7  C   UNL     1       1.492   8.186  20.248  0.00  0.00    +0.000 A 
ATOM      8  N   UNL     1       1.385   9.357  19.491  0.00  0.00    +0.000 NA
ATOM      9  N   UNL     1       0.874  10.401  19.967  0.00  0.00    +0.000 NA
ATOM     10  C   UNL     1       0.442  10.395  21.244  0.00  0.00    +0.000 A 
ATOM     11  N   UNL     1      -0.112  11.316  22.010  0.00  0.00    +0.000 NA
ATOM     12  N   UNL     1      -0.331  10.754  23.254  0.00  0.00    +0.000 NA
ATOM     13  C   UNL     1       0.095   9.511  23.203  0.00  0.00    +0.000 A 
ATOM     14  N   UNL     1       0.574   9.242  21.957  0.00  0.00    +0.000 N 
ATOM     15  N   UNL     1       1.093   8.090  21.492  0.00  0.00    +0.000 NA
ATOM     16  C   UNL     1       1.979   5.730  20.239  0.00  0.00    +0.000 C 
ATOM     17  C   UNL     1       3.339   5.014  20.157  0.00  0.00    +0.000 C 
ENDROOT
BRANCH   1  18
ATOM     18  C   UNL     1       4.157   2.621  18.638  0.00  0.00    +0.000 C 
BRANCH  18  20
ATOM     19  C   UNL     1       1.676   2.210  18.705  0.00  0.00    +0.000 C 
ATOM     20  C   UNL     1       2.970   1.947  17.955  0.00  0.00    +0.000 C 
ENDBRANCH  18  20
ENDBRANCH   1  18
TORSDOF 2
ENDMDL
MODEL 3
REMARK VINA RESULT:      -6.9      3.852      5.422
REMARK  Name = 
REMARK  3 active torsions:
REMARK  status: ('A' for Active; 'I' for Inactive)
REMARK    1  A    between atoms: C_1  and  C_2
REMARK    2  A    between atoms: C_2  and  C_3
REMARK    3  A    between atoms: C_3  and  C_4
REMARK                            x       y       z     vdW  Elec       q    Type
REMARK                         _______ _______ _______ _____ _____    ______ ____
ROOT
ATOM      1  C   UNL     1      -0.163  10.033  19.555  0.00  0.00    +0.000 C 
ATOM      2  O   UNL     1      -0.705  10.037  20.660  0.00  0.00    +0.000 OA
ATOM      3  N   UNL     1       1.027   9.363  19.327  0.00  0.00    +0.000 N 
ATOM      4  C   UNL     1       1.602   8.540  20.394  0.00  0.00    +0.000 C 
ATOM      5  C   UNL     1       1.951   7.139  19.867  0.00  0.00    +0.000 C 
ATOM      6  N   UNL     1       2.822   7.249  18.684  0.00  0.00    +0.000 N 
ATOM      7  C   UNL     1       3.956   6.473  18.522  0.00  0.00    +0.000 A 
ATOM      8  N   UNL     1       4.250   5.525  19.508  0.00  0.00    +0.000 NA
ATOM      9  N   UNL     1       5.261   4.784  19.425  0.00  0.00    +0.000 NA
ATOM     10  C   UNL     1       6.091   4.926  18.373  0.00  0.00    +0.000 A 
ATOM     11  N   UNL     1       7.212   4.322  18.023  0.00  0.00    +0.000 NA
ATOM     12  N   UNL     1       7.649   4.894  16.843  0.00  0.00    +0.000 NA
ATOM     13  C   UNL     1       6.781   5.824  16.513  0.00  0.00    +0.000 A 
ATOM     14  N   UNL     1       5.783   5.868  17.438  0.00  0.00    +0.000 N 
ATOM     15  N   UNL     1       4.704   6.673  17.465  0.00  0.00    +0.000 NA
ATOM     16  C   UNL     1       2.263   8.069  17.598  0.00  0.00    +0.000 C 
ATOM     17  C   UNL     1       1.859   9.459  18.120  0.00  0.00    +0.000 C 
ENDROOT
BRANCH   1  18
ATOM     18  C   UNL     1      -0.798  10.720  18.358  0.00  0.00    +0.000 C 
BRANCH  18  20
ATOM     19  C   UNL     1      -2.508  10.458  16.531  0.00  0.00    +0.000 C 
ATOM     20  C   UNL     1      -2.106  10.054  17.939  0.00  0.00    +0.000 C 
ENDBRANCH  18  20
ENDBRANCH   1  18
TORSDOF 2
ENDMDL
MODEL 4
REMARK VINA RESULT:      -6.5      0.808      1.072
REMARK  Name = 
REMARK  3 active torsions:
REMARK  status: ('A' for Active; 'I' for Inactive)
REMARK    1  A    between atoms: C_1  and  C_2
REMARK    2  A    between atoms: C_2  and  C_3
REMARK    3  A    between atoms: C_3  and  C_4
REMARK                            x       y       z     vdW  Elec       q    Type
REMARK                         _______ _______ _______ _____ _____    ______ ____
ROOT
ATOM      1  C   UNL     1       2.601   4.453  20.394  0.00  0.00    +0.000 C 
ATOM      2  O   UNL     1       2.694   5.318  21.263  0.00  0.00    +0.000 OA
ATOM      3  N   UNL     1       3.217   4.586  19.161  0.00  0.00    +0.000 N 
ATOM      4  C   UNL     1       4.099   5.731  18.920  0.00  0.00    +0.000 C 
ATOM      5  C   UNL     1       5.447   5.264  18.347  0.00  0.00    +0.000 C 
ATOM      6  N   UNL     1       5.224   4.439  17.147  0.00  0.00    +0.000 N 
ATOM      7  C   UNL     1       5.953   4.611  15.983  0.00  0.00    +0.000 A 
ATOM      8  N   UNL     1       6.961   5.579  15.976  0.00  0.00    +0.000 NA
ATOM      9  N   UNL     1       7.665   5.787  14.956  0.00  0.00    +0.000 NA
ATOM     10  C   UNL     1       7.421   5.074  13.838  0.00  0.00    +0.000 A 
ATOM     11  N   UNL     1       7.965   5.075  12.635  0.00  0.00    +0.000 NA
ATOM     12  N   UNL     1       7.295   4.139  11.869  0.00  0.00    +0.000 NA
ATOM     13  C   UNL     1       6.369   3.600  12.630  0.00  0.00    +0.000 A 
ATOM     14  N   UNL     1       6.422   4.149  13.875  0.00  0.00    +0.000 N 
ATOM     15  N   UNL     1       5.654   3.870  14.945  0.00  0.00    +0.000 NA
ATOM     16  C   UNL     1       4.343   3.282  17.366  0.00  0.00    +0.000 C 
ATOM     17  C   UNL     1       3.008   3.725  17.988  0.00  0.00    +0.000 C 
ENDROOT
BRANCH   1  18
ATOM     18  C   UNL     1       1.846   3.157  20.640  0.00  0.00    +0.000 C 
BRANCH  18  20
ATOM     19  C   UNL     1       0.459   2.110  18.821  0.00  0.00    +0.000 C 
ATOM     20  C   UNL     1       0.491   3.138  19.939  0.00  0.00    +0.000 C 
ENDBRANCH  18  20
ENDBRANCH   1  18
TORSDOF 2
ENDMDL
MODEL 5
REMARK VINA RESULT:      -6.5      2.670      7.199
REMARK  Name = 
REMARK  3 active torsions:
REMARK  status: ('A' for Active; 'I' for Inactive)
REMARK    1  A    between atoms: C_1  and  C_2
REMARK    2  A    between atoms: C_2  and  C_3
REMARK    3  A    between atoms: C_3  and  C_4
REMARK                            x       y       z     vdW  Elec       q    Type
REMARK                         _______ _______ _______ _____ _____    ______ ____
ROOT
ATOM      1  C   UNL     1       7.362   4.782  13.665  0.00  0.00    +0.000 C 
ATOM      2  O   UNL     1       8.095   5.752  13.477  0.00  0.00    +0.000 OA
ATOM      3  N   UNL     1       6.707   4.581  14.868  0.00  0.00    +0.000 N 
ATOM      4  C   UNL     1       6.795   5.607  15.912  0.00  0.00    +0.000 C 
ATOM      5  C   UNL     1       5.395   5.965  16.435  0.00  0.00    +0.000 C 
ATOM      6  N   UNL     1       4.696   4.746  16.876  0.00  0.00    +0.000 N 
ATOM      7  C   UNL     1       4.006   4.678  18.074  0.00  0.00    +0.000 A 
ATOM      8  N   UNL     1       3.946   5.830  18.864  0.00  0.00    +0.000 NA
ATOM      9  N   UNL     1       3.335   5.842  19.962  0.00  0.00    +0.000 NA
ATOM     10  C   UNL     1       2.745   4.710  20.394  0.00  0.00    +0.000 A 
ATOM     11  N   UNL     1       2.061   4.411  21.482  0.00  0.00    +0.000 NA
ATOM     12  N   UNL     1       1.710   3.076  21.407  0.00  0.00    +0.000 NA
ATOM     13  C   UNL     1       2.190   2.608  20.277  0.00  0.00    +0.000 A 
ATOM     14  N   UNL     1       2.835   3.601  19.606  0.00  0.00    +0.000 N 
ATOM     15  N   UNL     1       3.457   3.538  18.413  0.00  0.00    +0.000 NA
ATOM     16  C   UNL     1       4.593   3.703  15.843  0.00  0.00    +0.000 C 
ATOM     17  C   UNL     1       5.981   3.368  15.270  0.00  0.00    +0.000 C 
ENDROOT
BRANCH   1  18
ATOM     18  C   UNL     1       7.086   3.771  12.564  0.00  0.00    +0.000 C 
BRANCH  18  20
ATOM     19  C   UNL     1       5.246   2.424  11.501  0.00  0.00    +0.000 C 
ATOM     20  C   UNL     1       5.611   3.738  12.170  0.00  0.00    +0.000 C 
ENDBRANCH  18  20
ENDBRANCH   1  18
TORSDOF 2
ENDMDL
MODEL 6
REMARK VINA RESULT:      -6.4      3.888      5.454
REMARK  Name = 
REMARK  3 active torsions:
REMARK  status: ('A' for Active; 'I' for Inactive)
REMARK    1  A    between atoms: C_1  and  C_2
REMARK    2  A    between atoms: C_2  and  C_3
REMARK    3  A    between atoms: C_3  and  C_4
REMARK                            x       y       z     vdW  Elec       q    Type
REMARK                         _______ _______ _______ _____ _____    ______ ____
ROOT
ATOM      1  C   UNL     1      -0.166   9.789  19.901  0.00  0.00    +0.000 C 
ATOM      2  O   UNL     1      -0.644   9.753  21.035  0.00  0.00    +0.000 OA
ATOM      3  N   UNL     1       1.023   9.153  19.589  0.00  0.00    +0.000 N 
ATOM      4  C   UNL     1       1.677   8.318  20.601  0.00  0.00    +0.000 C 
ATOM      5  C   UNL     1       2.026   6.938  20.019  0.00  0.00    +0.000 C 
ATOM      6  N   UNL     1       2.825   7.098  18.793  0.00  0.00    +0.000 N 
ATOM      7  C   UNL     1       3.966   6.353  18.547  0.00  0.00    +0.000 A 
ATOM      8  N   UNL     1       4.336   5.389  19.490  0.00  0.00    +0.000 NA
ATOM      9  N   UNL     1       5.356   4.673  19.332  0.00  0.00    +0.000 NA
ATOM     10  C   UNL     1       6.122   4.860  18.238  0.00  0.00    +0.000 A 
ATOM     11  N   UNL     1       7.234   4.292  17.811  0.00  0.00    +0.000 NA
ATOM     12  N   UNL     1       7.591   4.902  16.624  0.00  0.00    +0.000 NA
ATOM     13  C   UNL     1       6.686   5.820  16.367  0.00  0.00    +0.000 A 
ATOM     14  N   UNL     1       5.741   5.818  17.347  0.00  0.00    +0.000 N 
ATOM     15  N   UNL     1       4.647   6.596  17.455  0.00  0.00    +0.000 NA
ATOM     16  C   UNL     1       2.188   7.931  17.761  0.00  0.00    +0.000 C 
ATOM     17  C   UNL     1       1.784   9.298  18.340  0.00  0.00    +0.000 C 
ENDROOT
BRANCH   1  18
ATOM     18  C   UNL     1      -0.882  10.490  18.759  0.00  0.00    +0.000 C 
BRANCH  18  20
ATOM     19  C   UNL     1      -1.929  12.614  19.611  0.00  0.00    +0.000 C 
ATOM     20  C   UNL     1      -0.762  12.009  18.850  0.00  0.00    +0.000 C 
ENDBRANCH  18  20
ENDBRANCH   1  18
TORSDOF 2
ENDMDL
MODEL 7
REMARK VINA RESULT:      -6.1      4.474      6.715
REMARK  Name = 
REMARK  3 active torsions:
REMARK  status: ('A' for Active; 'I' for Inactive)
REMARK    1  A    between atoms: C_1  and  C_2
REMARK    2  A    between atoms: C_2  and  C_3
REMARK    3  A    between atoms: C_3  and  C_4
REMARK                            x       y       z     vdW  Elec       q    Type
REMARK                         _______ _______ _______ _____ _____    ______ ____
ROOT
ATOM      1  C   UNL     1       0.115  11.473  19.712  0.00  0.00    +0.000 C 
ATOM      2  O   UNL     1      -0.006  12.221  18.743  0.00  0.00    +0.000 OA
ATOM      3  N   UNL     1       0.465  10.142  19.569  0.00  0.00    +0.000 N 
ATOM      4  C   UNL     1       0.815   9.631  18.240  0.00  0.00    +0.000 C 
ATOM      5  C   UNL     1       2.150   8.871  18.288  0.00  0.00    +0.000 C 
ATOM      6  N   UNL     1       2.093   7.820  19.318  0.00  0.00    +0.000 N 
ATOM      7  C   UNL     1       2.542   6.531  19.088  0.00  0.00    +0.000 A 
ATOM      8  N   UNL     1       3.105   6.243  17.841  0.00  0.00    +0.000 NA
ATOM      9  N   UNL     1       3.536   5.096  17.564  0.00  0.00    +0.000 NA
ATOM     10  C   UNL     1       3.430   4.117  18.486  0.00  0.00    +0.000 A 
ATOM     11  N   UNL     1       3.767   2.841  18.486  0.00  0.00    +0.000 NA
ATOM     12  N   UNL     1       3.400   2.308  19.706  0.00  0.00    +0.000 NA
ATOM     13  C   UNL     1       2.853   3.275  20.408  0.00  0.00    +0.000 A 
ATOM     14  N   UNL     1       2.863   4.428  19.686  0.00  0.00    +0.000 N 
ATOM     15  N   UNL     1       2.406   5.643  20.043  0.00  0.00    +0.000 NA
ATOM     16  C   UNL     1       1.746   8.309  20.661  0.00  0.00    +0.000 C 
ATOM     17  C   UNL     1       0.438   9.118  20.623  0.00  0.00    +0.000 C 
ENDROOT
BRANCH   1  18
ATOM     18  C   UNL     1      -0.061  11.981  21.133  0.00  0.00    +0.000 C 
BRANCH  18  20
ATOM     19  C   UNL     1      -1.719  11.574  22.981  0.00  0.00    +0.000 C 
ATOM     20  C   UNL     1      -1.529  12.038  21.547  0.00  0.00    +0.000 C 
ENDBRANCH  18  20
ENDBRANCH   1  18
TORSDOF 2
ENDMDL
MODEL 8
REMARK VINA RESULT:      -6.1      4.356      7.668
REMARK  Name = 
REMARK  3 active torsions:
REMARK  status: ('A' for Active; 'I' for Inactive)
REMARK    1  A    between atoms: C_1  and  C_2
REMARK    2  A    between atoms: C_2  and  C_3
REMARK    3  A    between atoms: C_3  and  C_4
REMARK                            x       y       z     vdW  Elec       q    Type
REMARK                         _______ _______ _______ _____ _____    ______ ____
ROOT
ATOM      1  C   UNL     1       2.334   3.008  18.703  0.00  0.00    +0.000 C 
ATOM      2  O   UNL     1       2.207   2.077  19.499  0.00  0.00    +0.000 OA
ATOM      3  N   UNL     1       1.899   4.288  19.000  0.00  0.00    +0.000 N 
ATOM      4  C   UNL     1       1.375   4.575  20.338  0.00  0.00    +0.000 C 
ATOM      5  C   UNL     1       2.055   5.821  20.929  0.00  0.00    +0.000 C 
ATOM      6  N   UNL     1       1.922   6.954  19.997  0.00  0.00    +0.000 N 
ATOM      7  C   UNL     1       1.548   8.219  20.416  0.00  0.00    +0.000 A 
ATOM      8  N   UNL     1       1.330   8.422  21.782  0.00  0.00    +0.000 NA
ATOM      9  N   UNL     1       0.992   9.544  22.234  0.00  0.00    +0.000 NA
ATOM     10  C   UNL     1       0.812  10.567  21.375  0.00  0.00    +0.000 A 
ATOM     11  N   UNL     1       0.452  11.827  21.539  0.00  0.00    +0.000 NA
ATOM     12  N   UNL     1       0.409  12.419  20.291  0.00  0.00    +0.000 NA
ATOM     13  C   UNL     1       0.746  11.503  19.410  0.00  0.00    +0.000 A 
ATOM     14  N   UNL     1       1.018  10.332  20.048  0.00  0.00    +0.000 N 
ATOM     15  N   UNL     1       1.402   9.158  19.513  0.00  0.00    +0.000 NA
ATOM     16  C   UNL     1       2.444   6.690  18.647  0.00  0.00    +0.000 C 
ATOM     17  C   UNL     1       1.813   5.415  18.061  0.00  0.00    +0.000 C 
ENDROOT
BRANCH   1  18
ATOM     18  C   UNL     1       3.029   2.819  17.365  0.00  0.00    +0.000 C 
BRANCH  18  20
ATOM     19  C   UNL     1       4.823   4.188  16.252  0.00  0.00    +0.000 C 
ATOM     20  C   UNL     1       4.490   3.260  17.408  0.00  0.00    +0.000 C 
ENDBRANCH  18  20
ENDBRANCH   1  18
TORSDOF 2
ENDMDL
MODEL 9
REMARK VINA RESULT:      -6.1      4.508      8.456
REMARK  Name = 
REMARK  3 active torsions:
REMARK  status: ('A' for Active; 'I' for Inactive)
REMARK    1  A    between atoms: C_1  and  C_2
REMARK    2  A    between atoms: C_2  and  C_3
REMARK    3  A    between atoms: C_3  and  C_4
REMARK                            x       y       z     vdW  Elec       q    Type
REMARK                         _______ _______ _______ _____ _____    ______ ____
ROOT
ATOM      1  C   UNL     1       4.779   6.008  16.626  0.00  0.00    +0.000 C 
ATOM      2  O   UNL     1       5.133   6.482  15.547  0.00  0.00    +0.000 OA
ATOM      3  N   UNL     1       4.146   6.775  17.590  0.00  0.00    +0.000 N 
ATOM      4  C   UNL     1       3.781   8.160  17.278  0.00  0.00    +0.000 C 
ATOM      5  C   UNL     1       2.308   8.423  17.631  0.00  0.00    +0.000 C 
ATOM      6  N   UNL     1       2.054   8.057  19.035  0.00  0.00    +0.000 N 
ATOM      7  C   UNL     1       1.341   8.871  19.897  0.00  0.00    +0.000 A 
ATOM      8  N   UNL     1       0.815  10.063  19.390  0.00  0.00    +0.000 NA
ATOM      9  N   UNL     1       0.154  10.849  20.114  0.00  0.00    +0.000 NA
ATOM     10  C   UNL     1      -0.028  10.544  21.414  0.00  0.00    +0.000 A 
ATOM     11  N   UNL     1      -0.645  11.159  22.405  0.00  0.00    +0.000 NA
ATOM     12  N   UNL     1      -0.493  10.388  23.542  0.00  0.00    +0.000 NA
ATOM     13  C   UNL     1       0.210   9.329  23.206  0.00  0.00    +0.000 A 
ATOM     14  N   UNL     1       0.511   9.381  21.879  0.00  0.00    +0.000 N 
ATOM     15  N   UNL     1       1.207   8.493  21.144  0.00  0.00    +0.000 NA
ATOM     16  C   UNL     1       2.411   6.669  19.370  0.00  0.00    +0.000 C 
ATOM     17  C   UNL     1       3.868   6.372  18.975  0.00  0.00    +0.000 C 
ENDROOT
BRANCH   1  18
ATOM     18  C   UNL     1       4.968   4.535  16.946  0.00  0.00    +0.000 C 
BRANCH  18  20
ATOM     19  C   UNL     1       7.392   4.760  17.580  0.00  0.00    +0.000 C 
ATOM     20  C   UNL     1       6.393   4.064  16.671  0.00  0.00    +0.000 C 
ENDBRANCH  18  20
ENDBRANCH   1  18
TORSDOF 2
ENDMDL
