MODEL 1
REMARK VINA RESULT:      -8.6      0.000      0.000
REMARK  Name = 
REMARK  6 active torsions:
REMARK  status: ('A' for Active; 'I' for Inactive)
REMARK    1  A    between atoms: C_1  and  C_2
REMARK    2  A    between atoms: C_5  and  N_6
REMARK    3  A    between atoms: C_8  and  C_9
REMARK    4  A    between atoms: N_11  and  C_12
REMARK    5  A    between atoms: C_12  and  C_13
REMARK    6  A    between atoms: C_17  and  C_18
REMARK                            x       y       z     vdW  Elec       q    Type
REMARK                         _______ _______ _______ _____ _____    ______ ____
ROOT
ATOM      1  N   UNL     1       2.550   6.748  19.310  0.00  0.00    +0.000 N 
ATOM      2  N   UNL     1       3.690   6.649  18.469  0.00  0.00    +0.000 N 
ATOM      3  C   UNL     1       4.107   5.327  18.599  0.00  0.00    +0.000 A 
ATOM      4  C   UNL     1       3.302   4.570  19.350  0.00  0.00    +0.000 A 
ATOM      5  C   UNL     1       2.258   5.486  19.839  0.00  0.00    +0.000 A 
ATOM      6  O   UNL     1       1.372   5.111  20.587  0.00  0.00    +0.000 OA
ATOM      7  H   UNL     1       4.437   7.289  18.749  0.00  0.00    +0.000 HD
ENDROOT
BRANCH   1  12
ATOM      8  C   UNL     1      -0.324  11.658  20.149  0.00  0.00    +0.000 C 
ATOM      9  C   UNL     1       0.447  10.390  19.932  0.00  0.00    +0.000 A 
ATOM     10  C   UNL     1       0.706   9.526  20.994  0.00  0.00    +0.000 A 
ATOM     11  C   UNL     1       1.403   8.332  20.781  0.00  0.00    +0.000 A 
ATOM     12  C   UNL     1       1.857   7.965  19.506  0.00  0.00    +0.000 A 
ATOM     13  C   UNL     1       1.602   8.843  18.445  0.00  0.00    +0.000 A 
ATOM     14  C   UNL     1       0.903  10.042  18.655  0.00  0.00    +0.000 A 
ENDBRANCH   1  12
BRANCH   3  15
ATOM     15  C   UNL     1       5.390   4.762  18.111  0.00  0.00    +0.000 C 
ATOM     16  O   UNL     1       6.025   3.951  18.783  0.00  0.00    +0.000 OA
ATOM     17  N   UNL     1       5.811   5.193  16.885  0.00  0.00    +0.000 N 
ATOM     18  H   UNL     1       5.204   5.725  16.270  0.00  0.00    +0.000 HD
BRANCH  17  19
ATOM     19  C   UNL     1       7.028   4.626  16.324  0.00  0.00    +0.000 C 
BRANCH  19  20
ATOM     20  C   UNL     1       7.087   4.598  14.814  0.00  0.00    +0.000 A 
ATOM     21  N   UNL     1       7.923   5.450  14.184  0.00  0.00    +0.000 NA
ATOM     22  C   UNL     1       7.915   5.406  12.838  0.00  0.00    +0.000 A 
ATOM     23  C   UNL     1       7.116   4.558  12.107  0.00  0.00    +0.000 A 
ATOM     24  C   UNL     1       6.292   3.717  12.829  0.00  0.00    +0.000 A 
ATOM     25  N   UNL     1       6.270   3.727  14.185  0.00  0.00    +0.000 NA
BRANCH  24  26
ATOM     26  C   UNL     1       5.376   2.762  12.097  0.00  0.00    +0.000 C 
ATOM     27  F   UNL     1       4.462   3.411  11.318  0.00  0.00    +0.000 F 
ATOM     28  F   UNL     1       6.054   1.935  11.249  0.00  0.00    +0.000 F 
ENDBRANCH  24  26
ENDBRANCH  19  20
ENDBRANCH  17  19
ENDBRANCH   3  15
TORSDOF 5
ENDMDL
MODEL 2
REMARK VINA RESULT:      -8.6      1.053      1.082
REMARK  Name = 
REMARK  6 active torsions:
REMARK  status: ('A' for Active; 'I' for Inactive)
REMARK    1  A    between atoms: C_1  and  C_2
REMARK    2  A    between atoms: C_5  and  N_6
REMARK    3  A    between atoms: C_8  and  C_9
REMARK    4  A    between atoms: N_11  and  C_12
REMARK    5  A    between atoms: C_12  and  C_13
REMARK    6  A    between atoms: C_17  and  C_18
REMARK                            x       y       z     vdW  Elec       q    Type
REMARK                         _______ _______ _______ _____ _____    ______ ____
ROOT
ATOM      1  N   UNL     1       2.475   7.488  18.716  0.00  0.00    +0.000 N 
ATOM      2  N   UNL     1       3.507   7.705  17.764  0.00  0.00    +0.000 N 
ATOM      3  C   UNL     1       4.189   6.493  17.705  0.00  0.00    +0.000 A 
ATOM      4  C   UNL     1       3.643   5.520  18.440  0.00  0.00    +0.000 A 
ATOM      5  C   UNL     1       2.503   6.151  19.127  0.00  0.00    +0.000 A 
ATOM      6  O   UNL     1       1.802   5.533  19.910  0.00  0.00    +0.000 OA
ATOM      7  H   UNL     1       4.140   8.459  18.040  0.00  0.00    +0.000 HD
ENDROOT
BRANCH   1  12
ATOM      8  C   UNL     1      -1.192  11.595  20.375  0.00  0.00    +0.000 C 
ATOM      9  C   UNL     1      -0.217  10.541  19.942  0.00  0.00    +0.000 A 
ATOM     10  C   UNL     1       0.360   9.681  20.876  0.00  0.00    +0.000 A 
ATOM     11  C   UNL     1       1.249   8.683  20.464  0.00  0.00    +0.000 A 
ATOM     12  C   UNL     1       1.584   8.511  19.113  0.00  0.00    +0.000 A 
ATOM     13  C   UNL     1       1.009   9.385  18.182  0.00  0.00    +0.000 A 
ATOM     14  C   UNL     1       0.116  10.387  18.592  0.00  0.00    +0.000 A 
ENDBRANCH   1  12
BRANCH   3  15
ATOM     15  C   UNL     1       5.492   6.254  17.035  0.00  0.00    +0.000 C 
ATOM     16  O   UNL     1       6.234   7.187  16.735  0.00  0.00    +0.000 OA
ATOM     17  N   UNL     1       5.809   4.949  16.781  0.00  0.00    +0.000 N 
ATOM     18  H   UNL     1       5.275   4.185  17.180  0.00  0.00    +0.000 HD
BRANCH  17  19
ATOM     19  C   UNL     1       7.102   4.647  16.186  0.00  0.00    +0.000 C 
BRANCH  19  20
ATOM     20  C   UNL     1       7.116   4.588  14.676  0.00  0.00    +0.000 A 
ATOM     21  N   UNL     1       7.960   5.401  14.005  0.00  0.00    +0.000 NA
ATOM     22  C   UNL     1       7.911   5.332  12.661  0.00  0.00    +0.000 A 
ATOM     23  C   UNL     1       7.065   4.496  11.971  0.00  0.00    +0.000 A 
ATOM     24  C   UNL     1       6.236   3.695  12.733  0.00  0.00    +0.000 A 
ATOM     25  N   UNL     1       6.254   3.733  14.088  0.00  0.00    +0.000 NA
BRANCH  24  26
ATOM     26  C   UNL     1       5.270   2.756  12.046  0.00  0.00    +0.000 C 
ATOM     27  F   UNL     1       4.400   3.413  11.225  0.00  0.00    +0.000 F 
ATOM     28  F   UNL     1       5.903   1.846  11.250  0.00  0.00    +0.000 F 
ENDBRANCH  24  26
ENDBRANCH  19  20
ENDBRANCH  17  19
ENDBRANCH   3  15
TORSDOF 5
ENDMDL
MODEL 3
REMARK VINA RESULT:      -8.4      0.535      1.240
REMARK  Name = 
REMARK  6 active torsions:
REMARK  status: ('A' for Active; 'I' for Inactive)
REMARK    1  A    between atoms: C_1  and  C_2
REMARK    2  A    between atoms: C_5  and  N_6
REMARK    3  A    between atoms: C_8  and  C_9
REMARK    4  A    between atoms: N_11  and  C_12
REMARK    5  A    between atoms: C_12  and  C_13
REMARK    6  A    between atoms: C_17  and  C_18
REMARK                            x       y       z     vdW  Elec       q    Type
REMARK                         _______ _______ _______ _____ _____    ______ ____
ROOT
ATOM      1  N   UNL     1       2.735   6.880  19.059  0.00  0.00    +0.000 N 
ATOM      2  N   UNL     1       3.776   6.649  18.119  0.00  0.00    +0.000 N 
ATOM      3  C   UNL     1       4.315   5.420  18.491  0.00  0.00    +0.000 A 
ATOM      4  C   UNL     1       3.670   4.818  19.494  0.00  0.00    +0.000 A 
ATOM      5  C   UNL     1       2.615   5.764  19.895  0.00  0.00    +0.000 A 
ATOM      6  O   UNL     1       1.856   5.528  20.819  0.00  0.00    +0.000 OA
ATOM      7  H   UNL     1       4.493   7.377  18.146  0.00  0.00    +0.000 HD
ENDROOT
BRANCH   1  12
ATOM      8  C   UNL     1      -0.321  11.751  19.037  0.00  0.00    +0.000 C 
ATOM      9  C   UNL     1       0.455  10.468  19.040  0.00  0.00    +0.000 A 
ATOM     10  C   UNL     1       1.072  10.008  17.877  0.00  0.00    +0.000 A 
ATOM     11  C   UNL     1       1.816   8.824  17.891  0.00  0.00    +0.000 A 
ATOM     12  C   UNL     1       1.969   8.068  19.063  0.00  0.00    +0.000 A 
ATOM     13  C   UNL     1       1.338   8.530  20.225  0.00  0.00    +0.000 A 
ATOM     14  C   UNL     1       0.591   9.718  20.214  0.00  0.00    +0.000 A 
ENDBRANCH   1  12
BRANCH   3  15
ATOM     15  C   UNL     1       5.577   4.828  17.979  0.00  0.00    +0.000 C 
ATOM     16  O   UNL     1       6.292   4.134  18.699  0.00  0.00    +0.000 OA
ATOM     17  N   UNL     1       5.884   5.099  16.675  0.00  0.00    +0.000 N 
ATOM     18  H   UNL     1       5.211   5.525  16.047  0.00  0.00    +0.000 HD
BRANCH  17  19
ATOM     19  C   UNL     1       7.074   4.493  16.098  0.00  0.00    +0.000 C 
BRANCH  19  20
ATOM     20  C   UNL     1       7.173   4.579  14.592  0.00  0.00    +0.000 A 
ATOM     21  N   UNL     1       8.083   5.416  14.051  0.00  0.00    +0.000 NA
ATOM     22  C   UNL     1       8.109   5.478  12.706  0.00  0.00    +0.000 A 
ATOM     23  C   UNL     1       7.273   4.750  11.892  0.00  0.00    +0.000 A 
ATOM     24  C   UNL     1       6.373   3.915  12.527  0.00  0.00    +0.000 A 
ATOM     25  N   UNL     1       6.315   3.821  13.878  0.00  0.00    +0.000 NA
BRANCH  24  26
ATOM     26  C   UNL     1       5.413   3.089  11.700  0.00  0.00    +0.000 C 
ATOM     27  F   UNL     1       5.624   1.748  11.843  0.00  0.00    +0.000 F 
ATOM     28  F   UNL     1       4.111   3.291  12.054  0.00  0.00    +0.000 F 
ENDBRANCH  24  26
ENDBRANCH  19  20
ENDBRANCH  17  19
ENDBRANCH   3  15
TORSDOF 5
ENDMDL
MODEL 4
REMARK VINA RESULT:      -8.2      6.185     11.183
REMARK  Name = 
REMARK  6 active torsions:
REMARK  status: ('A' for Active; 'I' for Inactive)
REMARK    1  A    between atoms: C_1  and  C_2
REMARK    2  A    between atoms: C_5  and  N_6
REMARK    3  A    between atoms: C_8  and  C_9
REMARK    4  A    between atoms: N_11  and  C_12
REMARK    5  A    between atoms: C_12  and  C_13
REMARK    6  A    between atoms: C_17  and  C_18
REMARK                            x       y       z     vdW  Elec       q    Type
REMARK                         _______ _______ _______ _____ _____    ______ ____
ROOT
ATOM      1  N   UNL     1       2.454   7.625  18.727  0.00  0.00    +0.000 N 
ATOM      2  N   UNL     1       2.090   7.488  20.093  0.00  0.00    +0.000 N 
ATOM      3  C   UNL     1       1.397   8.658  20.389  0.00  0.00    +0.000 A 
ATOM      4  C   UNL     1       1.207   9.463  19.340  0.00  0.00    +0.000 A 
ATOM      5  C   UNL     1       1.900   8.805  18.220  0.00  0.00    +0.000 A 
ATOM      6  O   UNL     1       1.945   9.304  17.109  0.00  0.00    +0.000 OA
ATOM      7  H   UNL     1       2.903   7.390  20.705  0.00  0.00    +0.000 HD
ENDROOT
BRANCH   1  12
ATOM      8  C   UNL     1       5.628   3.743  15.912  0.00  0.00    +0.000 C 
ATOM      9  C   UNL     1       4.812   4.749  16.667  0.00  0.00    +0.000 A 
ATOM     10  C   UNL     1       5.174   6.096  16.675  0.00  0.00    +0.000 A 
ATOM     11  C   UNL     1       4.395   7.034  17.359  0.00  0.00    +0.000 A 
ATOM     12  C   UNL     1       3.234   6.659  18.051  0.00  0.00    +0.000 A 
ATOM     13  C   UNL     1       2.882   5.303  18.048  0.00  0.00    +0.000 A 
ATOM     14  C   UNL     1       3.661   4.359  17.361  0.00  0.00    +0.000 A 
ENDBRANCH   1  12
BRANCH   3  15
ATOM     15  C   UNL     1       1.001   9.122  21.743  0.00  0.00    +0.000 C 
ATOM     16  O   UNL     1       1.833   9.261  22.637  0.00  0.00    +0.000 OA
ATOM     17  N   UNL     1      -0.328   9.383  21.926  0.00  0.00    +0.000 N 
ATOM     18  H   UNL     1      -0.974   9.429  21.144  0.00  0.00    +0.000 HD
BRANCH  17  19
ATOM     19  C   UNL     1      -0.768   9.904  23.211  0.00  0.00    +0.000 C 
BRANCH  19  20
ATOM     20  C   UNL     1      -1.332  11.305  23.178  0.00  0.00    +0.000 A 
ATOM     21  N   UNL     1      -0.521  12.320  22.811  0.00  0.00    +0.000 NA
ATOM     22  C   UNL     1      -1.064  13.552  22.829  0.00  0.00    +0.000 A 
ATOM     23  C   UNL     1      -2.365  13.808  23.194  0.00  0.00    +0.000 A 
ATOM     24  C   UNL     1      -3.127  12.713  23.553  0.00  0.00    +0.000 A 
ATOM     25  N   UNL     1      -2.621  11.455  23.548  0.00  0.00    +0.000 NA
BRANCH  24  26
ATOM     26  C   UNL     1      -4.566  12.914  23.977  0.00  0.00    +0.000 C 
ATOM     27  F   UNL     1      -5.446  12.673  22.963  0.00  0.00    +0.000 F 
ATOM     28  F   UNL     1      -4.935  12.073  24.986  0.00  0.00    +0.000 F 
ENDBRANCH  24  26
ENDBRANCH  19  20
ENDBRANCH  17  19
ENDBRANCH   3  15
TORSDOF 5
ENDMDL
MODEL 5
REMARK VINA RESULT:      -8.0      2.257      3.907
REMARK  Name = 
REMARK  6 active torsions:
REMARK  status: ('A' for Active; 'I' for Inactive)
REMARK    1  A    between atoms: C_1  and  C_2
REMARK    2  A    between atoms: C_5  and  N_6
REMARK    3  A    between atoms: C_8  and  C_9
REMARK    4  A    between atoms: N_11  and  C_12
REMARK    5  A    between atoms: C_12  and  C_13
REMARK    6  A    between atoms: C_17  and  C_18
REMARK                            x       y       z     vdW  Elec       q    Type
REMARK                         _______ _______ _______ _____ _____    ______ ____
ROOT
ATOM      1  N   UNL     1       0.718   9.416  20.242  0.00  0.00    +0.000 N 
ATOM      2  N   UNL     1       1.251   8.176  20.687  0.00  0.00    +0.000 N 
ATOM      3  C   UNL     1       1.956   7.686  19.592  0.00  0.00    +0.000 A 
ATOM      4  C   UNL     1       2.001   8.521  18.549  0.00  0.00    +0.000 A 
ATOM      5  C   UNL     1       1.185   9.680  18.950  0.00  0.00    +0.000 A 
ATOM      6  O   UNL     1       0.994  10.622  18.200  0.00  0.00    +0.000 OA
ATOM      7  H   UNL     1       0.522   7.517  20.967  0.00  0.00    +0.000 HD
ENDROOT
BRANCH   1  12
ATOM      8  C   UNL     1      -2.671  12.719  23.508  0.00  0.00    +0.000 C 
ATOM      9  C   UNL     1      -1.807  11.843  22.653  0.00  0.00    +0.000 A 
ATOM     10  C   UNL     1      -1.599  12.145  21.308  0.00  0.00    +0.000 A 
ATOM     11  C   UNL     1      -0.771  11.338  20.521  0.00  0.00    +0.000 A 
ATOM     12  C   UNL     1      -0.125  10.212  21.051  0.00  0.00    +0.000 A 
ATOM     13  C   UNL     1      -0.347   9.908  22.401  0.00  0.00    +0.000 A 
ATOM     14  C   UNL     1      -1.176  10.716  23.193  0.00  0.00    +0.000 A 
ENDBRANCH   1  12
BRANCH   3  15
ATOM     15  C   UNL     1       2.510   6.316  19.450  0.00  0.00    +0.000 C 
ATOM     16  O   UNL     1       2.566   5.550  20.409  0.00  0.00    +0.000 OA
ATOM     17  N   UNL     1       2.945   5.968  18.202  0.00  0.00    +0.000 N 
ATOM     18  H   UNL     1       2.740   6.539  17.389  0.00  0.00    +0.000 HD
BRANCH  17  19
ATOM     19  C   UNL     1       3.437   4.616  17.985  0.00  0.00    +0.000 C 
BRANCH  19  20
ATOM     20  C   UNL     1       4.835   4.524  17.416  0.00  0.00    +0.000 A 
ATOM     21  N   UNL     1       5.883   4.712  18.245  0.00  0.00    +0.000 NA
ATOM     22  C   UNL     1       7.105   4.651  17.682  0.00  0.00    +0.000 A 
ATOM     23  C   UNL     1       7.318   4.414  16.344  0.00  0.00    +0.000 A 
ATOM     24  C   UNL     1       6.191   4.230  15.567  0.00  0.00    +0.000 A 
ATOM     25  N   UNL     1       4.942   4.282  16.093  0.00  0.00    +0.000 NA
BRANCH  24  26
ATOM     26  C   UNL     1       6.342   3.975  14.083  0.00  0.00    +0.000 C 
ATOM     27  F   UNL     1       5.150   4.023  13.422  0.00  0.00    +0.000 F 
ATOM     28  F   UNL     1       7.134   4.903  13.472  0.00  0.00    +0.000 F 
ENDBRANCH  24  26
ENDBRANCH  19  20
ENDBRANCH  17  19
ENDBRANCH   3  15
TORSDOF 5
ENDMDL
MODEL 6
REMARK VINA RESULT:      -7.9      4.633      9.266
REMARK  Name = 
REMARK  6 active torsions:
REMARK  status: ('A' for Active; 'I' for Inactive)
REMARK    1  A    between atoms: C_1  and  C_2
REMARK    2  A    between atoms: C_5  and  N_6
REMARK    3  A    between atoms: C_8  and  C_9
REMARK    4  A    between atoms: N_11  and  C_12
REMARK    5  A    between atoms: C_12  and  C_13
REMARK    6  A    between atoms: C_17  and  C_18
REMARK                            x       y       z     vdW  Elec       q    Type
REMARK                         _______ _______ _______ _____ _____    ______ ____
ROOT
ATOM      1  N   UNL     1       2.502   7.412  18.720  0.00  0.00    +0.000 N 
ATOM      2  N   UNL     1       2.226   8.739  18.293  0.00  0.00    +0.000 N 
ATOM      3  C   UNL     1       1.380   9.252  19.273  0.00  0.00    +0.000 A 
ATOM      4  C   UNL     1       1.174   8.429  20.305  0.00  0.00    +0.000 A 
ATOM      5  C   UNL     1       1.906   7.197  19.967  0.00  0.00    +0.000 A 
ATOM      6  O   UNL     1       1.896   6.221  20.698  0.00  0.00    +0.000 OA
ATOM      7  H   UNL     1       1.771   8.767  17.378  0.00  0.00    +0.000 HD
ENDROOT
BRANCH   1  12
ATOM      8  C   UNL     1       5.711   3.734  15.679  0.00  0.00    +0.000 C 
ATOM      9  C   UNL     1       4.861   4.699  16.451  0.00  0.00    +0.000 A 
ATOM     10  C   UNL     1       3.770   4.248  17.193  0.00  0.00    +0.000 A 
ATOM     11  C   UNL     1       2.997   5.148  17.933  0.00  0.00    +0.000 A 
ATOM     12  C   UNL     1       3.289   6.520  17.957  0.00  0.00    +0.000 A 
ATOM     13  C   UNL     1       4.381   6.967  17.200  0.00  0.00    +0.000 A 
ATOM     14  C   UNL     1       5.159   6.066  16.458  0.00  0.00    +0.000 A 
ENDBRANCH   1  12
BRANCH   3  15
ATOM     15  C   UNL     1       0.613  10.520  19.189  0.00  0.00    +0.000 C 
ATOM     16  O   UNL     1       1.113  11.535  18.709  0.00  0.00    +0.000 OA
ATOM     17  N   UNL     1      -0.665  10.485  19.672  0.00  0.00    +0.000 N 
ATOM     18  H   UNL     1      -1.121   9.609  19.908  0.00  0.00    +0.000 HD
BRANCH  17  19
ATOM     19  C   UNL     1      -1.488  11.679  19.559  0.00  0.00    +0.000 C 
BRANCH  19  20
ATOM     20  C   UNL     1      -2.632  11.579  18.576  0.00  0.00    +0.000 A 
ATOM     21  N   UNL     1      -3.867  11.942  18.982  0.00  0.00    +0.000 NA
ATOM     22  C   UNL     1      -4.855  11.804  18.077  0.00  0.00    +0.000 A 
ATOM     23  C   UNL     1      -4.661  11.326  16.802  0.00  0.00    +0.000 A 
ATOM     24  C   UNL     1      -3.367  10.980  16.466  0.00  0.00    +0.000 A 
ATOM     25  N   UNL     1      -2.342  11.104  17.346  0.00  0.00    +0.000 NA
BRANCH  24  26
ATOM     26  C   UNL     1      -3.075  10.437  15.085  0.00  0.00    +0.000 C 
ATOM     27  F   UNL     1      -2.323   9.299  15.122  0.00  0.00    +0.000 F 
ATOM     28  F   UNL     1      -4.210  10.100  14.406  0.00  0.00    +0.000 F 
ENDBRANCH  24  26
ENDBRANCH  19  20
ENDBRANCH  17  19
ENDBRANCH   3  15
TORSDOF 5
ENDMDL
MODEL 7
REMARK VINA RESULT:      -7.9      4.325      9.058
REMARK  Name = 
REMARK  6 active torsions:
REMARK  status: ('A' for Active; 'I' for Inactive)
REMARK    1  A    between atoms: C_1  and  C_2
REMARK    2  A    between atoms: C_5  and  N_6
REMARK    3  A    between atoms: C_8  and  C_9
REMARK    4  A    between atoms: N_11  and  C_12
REMARK    5  A    between atoms: C_12  and  C_13
REMARK    6  A    between atoms: C_17  and  C_18
REMARK                            x       y       z     vdW  Elec       q    Type
REMARK                         _______ _______ _______ _____ _____    ______ ____
ROOT
ATOM      1  N   UNL     1       2.711   6.755  18.933  0.00  0.00    +0.000 N 
ATOM      2  N   UNL     1       2.275   8.098  18.776  0.00  0.00    +0.000 N 
ATOM      3  C   UNL     1       1.471   8.336  19.887  0.00  0.00    +0.000 A 
ATOM      4  C   UNL     1       1.433   7.328  20.763  0.00  0.00    +0.000 A 
ATOM      5  C   UNL     1       2.246   6.261  20.157  0.00  0.00    +0.000 A 
ATOM      6  O   UNL     1       2.391   5.177  20.696  0.00  0.00    +0.000 OA
ATOM      7  H   UNL     1       1.743   8.236  17.913  0.00  0.00    +0.000 HD
ENDROOT
BRANCH   1  12
ATOM      8  C   UNL     1       5.982   4.037  15.062  0.00  0.00    +0.000 C 
ATOM      9  C   UNL     1       5.114   4.753  16.053  0.00  0.00    +0.000 A 
ATOM     10  C   UNL     1       4.135   4.065  16.768  0.00  0.00    +0.000 A 
ATOM     11  C   UNL     1       3.346   4.732  17.710  0.00  0.00    +0.000 A 
ATOM     12  C   UNL     1       3.511   6.101  17.968  0.00  0.00    +0.000 A 
ATOM     13  C   UNL     1       4.490   6.789  17.239  0.00  0.00    +0.000 A 
ATOM     14  C   UNL     1       5.284   6.122  16.294  0.00  0.00    +0.000 A 
ENDBRANCH   1  12
BRANCH   3  15
ATOM     15  C   UNL     1       0.583   9.509  20.088  0.00  0.00    +0.000 C 
ATOM     16  O   UNL     1      -0.165   9.581  21.062  0.00  0.00    +0.000 OA
ATOM     17  N   UNL     1       0.651  10.488  19.138  0.00  0.00    +0.000 N 
ATOM     18  H   UNL     1       1.385  10.499  18.437  0.00  0.00    +0.000 HD
BRANCH  17  19
ATOM     19  C   UNL     1      -0.147  11.692  19.315  0.00  0.00    +0.000 C 
BRANCH  19  20
ATOM     20  C   UNL     1      -1.530  11.640  18.709  0.00  0.00    +0.000 A 
ATOM     21  N   UNL     1      -2.579  12.043  19.457  0.00  0.00    +0.000 NA
ATOM     22  C   UNL     1      -3.792  11.947  18.880  0.00  0.00    +0.000 A 
ATOM     23  C   UNL     1      -3.997  11.472  17.606  0.00  0.00    +0.000 A 
ATOM     24  C   UNL     1      -2.870  11.083  16.908  0.00  0.00    +0.000 A 
ATOM     25  N   UNL     1      -1.629  11.164  17.450  0.00  0.00    +0.000 NA
BRANCH  24  26
ATOM     26  C   UNL     1      -3.014  10.540  15.504  0.00  0.00    +0.000 C 
ATOM     27  F   UNL     1      -2.602   9.243  15.402  0.00  0.00    +0.000 F 
ATOM     28  F   UNL     1      -4.309  10.544  15.072  0.00  0.00    +0.000 F 
ENDBRANCH  24  26
ENDBRANCH  19  20
ENDBRANCH  17  19
ENDBRANCH   3  15
TORSDOF 5
ENDMDL
MODEL 8
REMARK VINA RESULT:      -7.8      6.243     11.236
REMARK  Name = 
REMARK  6 active torsions:
REMARK  status: ('A' for Active; 'I' for Inactive)
REMARK    1  A    between atoms: C_1  and  C_2
REMARK    2  A    between atoms: C_5  and  N_6
REMARK    3  A    between atoms: C_8  and  C_9
REMARK    4  A    between atoms: N_11  and  C_12
REMARK    5  A    between atoms: C_12  and  C_13
REMARK    6  A    between atoms: C_17  and  C_18
REMARK                            x       y       z     vdW  Elec       q    Type
REMARK                         _______ _______ _______ _____ _____    ______ ____
ROOT
ATOM      1  N   UNL     1       2.372   7.708  18.776  0.00  0.00    +0.000 N 
ATOM      2  N   UNL     1       2.008   7.575  20.143  0.00  0.00    +0.000 N 
ATOM      3  C   UNL     1       1.321   8.750  20.438  0.00  0.00    +0.000 A 
ATOM      4  C   UNL     1       1.136   9.555  19.388  0.00  0.00    +0.000 A 
ATOM      5  C   UNL     1       1.825   8.891  18.268  0.00  0.00    +0.000 A 
ATOM      6  O   UNL     1       1.872   9.389  17.156  0.00  0.00    +0.000 OA
ATOM      7  H   UNL     1       2.821   7.473  20.755  0.00  0.00    +0.000 HD
ENDROOT
BRANCH   1  12
ATOM      8  C   UNL     1       5.521   3.711  16.097  0.00  0.00    +0.000 C 
ATOM      9  C   UNL     1       4.688   4.759  16.774  0.00  0.00    +0.000 A 
ATOM     10  C   UNL     1       3.524   4.410  17.457  0.00  0.00    +0.000 A 
ATOM     11  C   UNL     1       2.766   5.387  18.108  0.00  0.00    +0.000 A 
ATOM     12  C   UNL     1       3.146   6.737  18.102  0.00  0.00    +0.000 A 
ATOM     13  C   UNL     1       4.312   7.082  17.405  0.00  0.00    +0.000 A 
ATOM     14  C   UNL     1       5.076   6.104  16.751  0.00  0.00    +0.000 A 
ENDBRANCH   1  12
BRANCH   3  15
ATOM     15  C   UNL     1       0.928   9.218  21.791  0.00  0.00    +0.000 C 
ATOM     16  O   UNL     1       1.752   9.299  22.700  0.00  0.00    +0.000 OA
ATOM     17  N   UNL     1      -0.387   9.550  21.956  0.00  0.00    +0.000 N 
ATOM     18  H   UNL     1      -1.016   9.642  21.164  0.00  0.00    +0.000 HD
BRANCH  17  19
ATOM     19  C   UNL     1      -0.819  10.078  23.241  0.00  0.00    +0.000 C 
BRANCH  19  20
ATOM     20  C   UNL     1      -1.395  11.474  23.201  0.00  0.00    +0.000 A 
ATOM     21  N   UNL     1      -0.564  12.510  22.961  0.00  0.00    +0.000 NA
ATOM     22  C   UNL     1      -1.123  13.735  22.967  0.00  0.00    +0.000 A 
ATOM     23  C   UNL     1      -2.458  13.964  23.201  0.00  0.00    +0.000 A 
ATOM     24  C   UNL     1      -3.240  12.849  23.436  0.00  0.00    +0.000 A 
ATOM     25  N   UNL     1      -2.718  11.597  23.437  0.00  0.00    +0.000 NA
BRANCH  24  26
ATOM     26  C   UNL     1      -4.717  13.019  23.712  0.00  0.00    +0.000 C 
ATOM     27  F   UNL     1      -5.058  14.321  23.939  0.00  0.00    +0.000 F 
ATOM     28  F   UNL     1      -5.494  12.619  22.664  0.00  0.00    +0.000 F 
ENDBRANCH  24  26
ENDBRANCH  19  20
ENDBRANCH  17  19
ENDBRANCH   3  15
TORSDOF 5
ENDMDL
MODEL 9
REMARK VINA RESULT:      -7.8      1.830      2.372
REMARK  Name = 
REMARK  6 active torsions:
REMARK  status: ('A' for Active; 'I' for Inactive)
REMARK    1  A    between atoms: C_1  and  C_2
REMARK    2  A    between atoms: C_5  and  N_6
REMARK    3  A    between atoms: C_8  and  C_9
REMARK    4  A    between atoms: N_11  and  C_12
REMARK    5  A    between atoms: C_12  and  C_13
REMARK    6  A    between atoms: C_17  and  C_18
REMARK                            x       y       z     vdW  Elec       q    Type
REMARK                         _______ _______ _______ _____ _____    ______ ____
ROOT
ATOM      1  N   UNL     1       1.714   8.622  19.395  0.00  0.00    +0.000 N 
ATOM      2  N   UNL     1       2.350   7.383  19.672  0.00  0.00    +0.000 N 
ATOM      3  C   UNL     1       2.981   7.040  18.479  0.00  0.00    +0.000 A 
ATOM      4  C   UNL     1       2.888   7.969  17.523  0.00  0.00    +0.000 A 
ATOM      5  C   UNL     1       2.049   9.033  18.101  0.00  0.00    +0.000 A 
ATOM      6  O   UNL     1       1.742  10.026  17.465  0.00  0.00    +0.000 OA
ATOM      7  H   UNL     1       1.686   6.656  19.946  0.00  0.00    +0.000 HD
ENDROOT
BRANCH   1  12
ATOM      8  C   UNL     1      -1.620  11.255  23.272  0.00  0.00    +0.000 C 
ATOM      9  C   UNL     1      -0.731  10.582  22.269  0.00  0.00    +0.000 A 
ATOM     10  C   UNL     1      -0.168   9.336  22.542  0.00  0.00    +0.000 A 
ATOM     11  C   UNL     1       0.639   8.702  21.593  0.00  0.00    +0.000 A 
ATOM     12  C   UNL     1       0.905   9.286  20.346  0.00  0.00    +0.000 A 
ATOM     13  C   UNL     1       0.344  10.543  20.082  0.00  0.00    +0.000 A 
ATOM     14  C   UNL     1      -0.467  11.182  21.032  0.00  0.00    +0.000 A 
ENDBRANCH   1  12
BRANCH   3  15
ATOM     15  C   UNL     1       3.594   5.726  18.159  0.00  0.00    +0.000 C 
ATOM     16  O   UNL     1       3.180   4.689  18.674  0.00  0.00    +0.000 OA
ATOM     17  N   UNL     1       4.629   5.745  17.268  0.00  0.00    +0.000 N 
ATOM     18  H   UNL     1       4.850   6.574  16.726  0.00  0.00    +0.000 HD
BRANCH  17  19
ATOM     19  C   UNL     1       5.227   4.481  16.865  0.00  0.00    +0.000 C 
BRANCH  19  20
ATOM     20  C   UNL     1       5.932   4.502  15.528  0.00  0.00    +0.000 A 
ATOM     21  N   UNL     1       7.013   5.296  15.379  0.00  0.00    +0.000 NA
ATOM     22  C   UNL     1       7.585   5.301  14.160  0.00  0.00    +0.000 A 
ATOM     23  C   UNL     1       7.127   4.555  13.099  0.00  0.00    +0.000 A 
ATOM     24  C   UNL     1       6.017   3.767  13.337  0.00  0.00    +0.000 A 
ATOM     25  N   UNL     1       5.411   3.732  14.550  0.00  0.00    +0.000 NA
BRANCH  24  26
ATOM     26  C   UNL     1       5.447   2.926  12.217  0.00  0.00    +0.000 C 
ATOM     27  F   UNL     1       4.687   3.657  11.351  0.00  0.00    +0.000 F 
ATOM     28  F   UNL     1       6.418   2.349  11.450  0.00  0.00    +0.000 F 
ENDBRANCH  24  26
ENDBRANCH  19  20
ENDBRANCH  17  19
ENDBRANCH   3  15
TORSDOF 5
ENDMDL
