MODEL 1
REMARK VINA RESULT:      -7.9      0.000      0.000
REMARK  Name = 
REMARK  6 active torsions:
REMARK  status: ('A' for Active; 'I' for Inactive)
REMARK    1  A    between atoms: C_1  and  O_2
REMARK    2  A    between atoms: O_2  and  C_3
REMARK    3  A    between atoms: C_21  and  N_22
REMARK    4  A    between atoms: C_23  and  C_25
REMARK    5  A    between atoms: C_26  and  C_27
REMARK    6  A    between atoms: C_27  and  N_28
REMARK                            x       y       z     vdW  Elec       q    Type
REMARK                         _______ _______ _______ _____ _____    ______ ____
ROOT
ATOM      1  C   UNL     1       1.023  15.394  18.779  0.00  0.00    +0.000 A 
ATOM      2  C   UNL     1      -0.226  15.305  19.421  0.00  0.00    +0.000 A 
ATOM      3  C   UNL     1      -0.683  14.152  20.053  0.00  0.00    +0.000 A 
ATOM      4  N   UNL     1      -1.864  14.191  20.668  0.00  0.00    +0.000 NA
ATOM      5  C   UNL     1      -2.243  13.080  21.307  0.00  0.00    +0.000 A 
ATOM      6  N   UNL     1      -1.552  11.936  21.372  0.00  0.00    +0.000 NA
ATOM      7  C   UNL     1      -0.380  11.881  20.704  0.00  0.00    +0.000 A 
ATOM      8  N   UNL     1       0.316  10.669  20.764  0.00  0.00    +0.000 N 
ATOM      9  C   UNL     1       0.046   9.775  21.903  0.00  0.00    +0.000 C 
ATOM     10  C   UNL     1       0.973   8.553  21.762  0.00  0.00    +0.000 C 
ATOM     11  C   UNL     1       1.370   8.639  20.328  0.00  0.00    +0.000 A 
ATOM     12  C   UNL     1       2.094   7.716  19.588  0.00  0.00    +0.000 A 
ATOM     13  C   UNL     1       2.412   8.035  18.268  0.00  0.00    +0.000 A 
ATOM     14  C   UNL     1       1.966   9.234  17.704  0.00  0.00    +0.000 A 
ATOM     15  C   UNL     1       1.192  10.125  18.454  0.00  0.00    +0.000 A 
ATOM     16  C   UNL     1       0.944   9.858  19.791  0.00  0.00    +0.000 A 
ATOM     17  C   UNL     1       0.133  13.015  20.038  0.00  0.00    +0.000 A 
ATOM     18  C   UNL     1       1.405  13.116  19.413  0.00  0.00    +0.000 A 
ATOM     19  C   UNL     1       1.846  14.265  18.749  0.00  0.00    +0.000 A 
ENDROOT
BRANCH  19  20
ATOM     20  N   UNL     1       3.119  14.206  18.147  0.00  0.00    +0.000 N 
ATOM     21  C   UNL     1       4.242  14.775  18.731  0.00  0.00    +0.000 C 
ATOM     22  O   UNL     1       4.272  15.378  19.795  0.00  0.00    +0.000 OA
ATOM     23  H   UNL     1       3.297  13.486  17.463  0.00  0.00    +0.000 HD
BRANCH  21  24
ATOM     24  C   UNL     1       5.485  14.491  17.958  0.00  0.00    +0.000 C 
ATOM     25  C   UNL     1       6.676  14.535  18.579  0.00  0.00    +0.000 C 
BRANCH  25  26
ATOM     26  C   UNL     1       8.042  14.347  17.973  0.00  0.00    +0.000 C 
BRANCH  26  27
ATOM     27  N   UNL     1       8.739  13.086  18.294  0.00  0.00    +0.000 NA
ATOM     28  C   UNL     1       9.964  12.942  17.480  0.00  0.00    +0.000 C 
ATOM     29  C   UNL     1      10.712  11.651  17.817  0.00  0.00    +0.000 C 
ATOM     30  C   UNL     1      11.077  11.596  19.293  0.00  0.00    +0.000 C 
ATOM     31  C   UNL     1       9.832  11.811  20.145  0.00  0.00    +0.000 C 
ATOM     32  C   UNL     1       9.092  13.085  19.732  0.00  0.00    +0.000 C 
ENDBRANCH  26  27
ENDBRANCH  25  26
ENDBRANCH  21  24
ENDBRANCH  19  20
BRANCH   1  34
ATOM     33  C   UNL     1       1.749  17.671  18.944  0.00  0.00    +0.000 C 
ATOM     34  O   UNL     1       1.202  16.612  18.184  0.00  0.00    +0.000 OA
ENDBRANCH   1  34
TORSDOF 5
ENDMDL
MODEL 2
REMARK VINA RESULT:      -7.8      3.743      7.394
REMARK  Name = 
REMARK  6 active torsions:
REMARK  status: ('A' for Active; 'I' for Inactive)
REMARK    1  A    between atoms: C_1  and  O_2
REMARK    2  A    between atoms: O_2  and  C_3
REMARK    3  A    between atoms: C_21  and  N_22
REMARK    4  A    between atoms: C_23  and  C_25
REMARK    5  A    between atoms: C_26  and  C_27
REMARK    6  A    between atoms: C_27  and  N_28
REMARK                            x       y       z     vdW  Elec       q    Type
REMARK                         _______ _______ _______ _____ _____    ______ ____
ROOT
ATOM      1  C   UNL     1      -0.567  11.198  21.817  0.00  0.00    +0.000 A 
ATOM      2  C   UNL     1      -1.215  12.234  22.515  0.00  0.00    +0.000 A 
ATOM      3  C   UNL     1      -1.118  13.576  22.159  0.00  0.00    +0.000 A 
ATOM      4  N   UNL     1      -1.809  14.471  22.864  0.00  0.00    +0.000 NA
ATOM      5  C   UNL     1      -1.730  15.742  22.458  0.00  0.00    +0.000 A 
ATOM      6  N   UNL     1      -1.015  16.193  21.422  0.00  0.00    +0.000 NA
ATOM      7  C   UNL     1      -0.274  15.293  20.741  0.00  0.00    +0.000 A 
ATOM      8  N   UNL     1       0.485  15.788  19.675  0.00  0.00    +0.000 N 
ATOM      9  C   UNL     1       0.053  17.049  19.049  0.00  0.00    +0.000 C 
ATOM     10  C   UNL     1       1.014  17.338  17.880  0.00  0.00    +0.000 C 
ATOM     11  C   UNL     1       2.170  16.459  18.215  0.00  0.00    +0.000 A 
ATOM     12  C   UNL     1       3.407  16.402  17.589  0.00  0.00    +0.000 A 
ATOM     13  C   UNL     1       4.325  15.449  18.030  0.00  0.00    +0.000 A 
ATOM     14  C   UNL     1       4.013  14.614  19.107  0.00  0.00    +0.000 A 
ATOM     15  C   UNL     1       2.780  14.726  19.757  0.00  0.00    +0.000 A 
ATOM     16  C   UNL     1       1.829  15.609  19.271  0.00  0.00    +0.000 A 
ATOM     17  C   UNL     1      -0.325  13.919  21.059  0.00  0.00    +0.000 A 
ATOM     18  C   UNL     1       0.306  12.868  20.339  0.00  0.00    +0.000 A 
ATOM     19  C   UNL     1       0.235  11.525  20.721  0.00  0.00    +0.000 A 
ENDROOT
BRANCH  19  20
ATOM     20  N   UNL     1       0.940  10.597  19.927  0.00  0.00    +0.000 N 
ATOM     21  C   UNL     1       0.456  10.148  18.707  0.00  0.00    +0.000 C 
ATOM     22  O   UNL     1      -0.599  10.481  18.184  0.00  0.00    +0.000 OA
ATOM     23  H   UNL     1       1.934  10.496  20.070  0.00  0.00    +0.000 HD
BRANCH  21  24
ATOM     24  C   UNL     1       1.427   9.255  18.009  0.00  0.00    +0.000 C 
ATOM     25  C   UNL     1       1.848   8.133  18.616  0.00  0.00    +0.000 C 
BRANCH  25  26
ATOM     26  C   UNL     1       2.864   7.139  18.118  0.00  0.00    +0.000 C 
BRANCH  26  27
ATOM     27  N   UNL     1       2.794   5.779  18.689  0.00  0.00    +0.000 NA
ATOM     28  C   UNL     1       2.289   5.818  20.077  0.00  0.00    +0.000 C 
ATOM     29  C   UNL     1       2.189   4.415  20.677  0.00  0.00    +0.000 C 
ATOM     30  C   UNL     1       1.289   3.520  19.836  0.00  0.00    +0.000 C 
ATOM     31  C   UNL     1       1.759   3.525  18.386  0.00  0.00    +0.000 C 
ATOM     32  C   UNL     1       1.895   4.953  17.853  0.00  0.00    +0.000 C 
ENDBRANCH  26  27
ENDBRANCH  25  26
ENDBRANCH  21  24
ENDBRANCH  19  20
BRANCH   1  34
ATOM     33  C   UNL     1       0.159   9.520  23.366  0.00  0.00    +0.000 C 
ATOM     34  O   UNL     1      -0.773   9.982  22.408  0.00  0.00    +0.000 OA
ENDBRANCH   1  34
TORSDOF 5
ENDMDL
MODEL 3
REMARK VINA RESULT:      -7.8      0.837      1.136
REMARK  Name = 
REMARK  6 active torsions:
REMARK  status: ('A' for Active; 'I' for Inactive)
REMARK    1  A    between atoms: C_1  and  O_2
REMARK    2  A    between atoms: O_2  and  C_3
REMARK    3  A    between atoms: C_21  and  N_22
REMARK    4  A    between atoms: C_23  and  C_25
REMARK    5  A    between atoms: C_26  and  C_27
REMARK    6  A    between atoms: C_27  and  N_28
REMARK                            x       y       z     vdW  Elec       q    Type
REMARK                         _______ _______ _______ _____ _____    ______ ____
ROOT
ATOM      1  C   UNL     1       1.812  15.549  18.527  0.00  0.00    +0.000 A 
ATOM      2  C   UNL     1       0.539  15.633  19.124  0.00  0.00    +0.000 A 
ATOM      3  C   UNL     1      -0.071  14.568  19.782  0.00  0.00    +0.000 A 
ATOM      4  N   UNL     1      -1.259  14.770  20.349  0.00  0.00    +0.000 NA
ATOM      5  C   UNL     1      -1.787  13.739  21.016  0.00  0.00    +0.000 A 
ATOM      6  N   UNL     1      -1.236  12.527  21.152  0.00  0.00    +0.000 NA
ATOM      7  C   UNL     1      -0.056  12.309  20.533  0.00  0.00    +0.000 A 
ATOM      8  N   UNL     1       0.491  11.028  20.668  0.00  0.00    +0.000 N 
ATOM      9  C   UNL     1       0.080  10.222  21.830  0.00  0.00    +0.000 C 
ATOM     10  C   UNL     1       0.862   8.896  21.774  0.00  0.00    +0.000 C 
ATOM     11  C   UNL     1       1.316   8.873  20.354  0.00  0.00    +0.000 A 
ATOM     12  C   UNL     1       1.953   7.842  19.679  0.00  0.00    +0.000 A 
ATOM     13  C   UNL     1       2.350   8.064  18.362  0.00  0.00    +0.000 A 
ATOM     14  C   UNL     1       2.066   9.281  17.734  0.00  0.00    +0.000 A 
ATOM     15  C   UNL     1       1.376  10.287  18.417  0.00  0.00    +0.000 A 
ATOM     16  C   UNL     1       1.054  10.109  19.753  0.00  0.00    +0.000 A 
ATOM     17  C   UNL     1       0.608  13.346  19.844  0.00  0.00    +0.000 A 
ATOM     18  C   UNL     1       1.904  13.273  19.265  0.00  0.00    +0.000 A 
ATOM     19  C   UNL     1       2.497  14.333  18.574  0.00  0.00    +0.000 A 
ENDROOT
BRANCH  19  20
ATOM     20  N   UNL     1       3.775  14.101  18.025  0.00  0.00    +0.000 N 
ATOM     21  C   UNL     1       4.920  14.698  18.535  0.00  0.00    +0.000 C 
ATOM     22  O   UNL     1       4.968  15.469  19.484  0.00  0.00    +0.000 OA
ATOM     23  H   UNL     1       3.922  13.267  17.477  0.00  0.00    +0.000 HD
BRANCH  21  24
ATOM     24  C   UNL     1       6.157  14.218  17.854  0.00  0.00    +0.000 C 
ATOM     25  C   UNL     1       7.338  14.303  18.489  0.00  0.00    +0.000 C 
BRANCH  25  26
ATOM     26  C   UNL     1       8.700  13.940  17.960  0.00  0.00    +0.000 C 
BRANCH  26  27
ATOM     27  N   UNL     1       9.734  13.613  18.962  0.00  0.00    +0.000 NA
ATOM     28  C   UNL     1       9.496  12.276  19.545  0.00  0.00    +0.000 C 
ATOM     29  C   UNL     1      10.571  11.912  20.570  0.00  0.00    +0.000 C 
ATOM     30  C   UNL     1      11.960  11.953  19.949  0.00  0.00    +0.000 C 
ATOM     31  C   UNL     1      12.193  13.305  19.285  0.00  0.00    +0.000 C 
ATOM     32  C   UNL     1      11.062  13.645  18.311  0.00  0.00    +0.000 C 
ENDBRANCH  26  27
ENDBRANCH  25  26
ENDBRANCH  21  24
ENDBRANCH  19  20
BRANCH   1  34
ATOM     33  C   UNL     1       1.192  17.747  17.802  0.00  0.00    +0.000 C 
ATOM     34  O   UNL     1       2.151  16.712  17.892  0.00  0.00    +0.000 OA
ENDBRANCH   1  34
TORSDOF 5
ENDMDL
MODEL 4
REMARK VINA RESULT:      -7.7      4.102      7.228
REMARK  Name = 
REMARK  6 active torsions:
REMARK  status: ('A' for Active; 'I' for Inactive)
REMARK    1  A    between atoms: C_1  and  O_2
REMARK    2  A    between atoms: O_2  and  C_3
REMARK    3  A    between atoms: C_21  and  N_22
REMARK    4  A    between atoms: C_23  and  C_25
REMARK    5  A    between atoms: C_26  and  C_27
REMARK    6  A    between atoms: C_27  and  N_28
REMARK                            x       y       z     vdW  Elec       q    Type
REMARK                         _______ _______ _______ _____ _____    ______ ____
ROOT
ATOM      1  C   UNL     1      -0.664  11.078  21.525  0.00  0.00    +0.000 A 
ATOM      2  C   UNL     1      -1.530  11.956  22.204  0.00  0.00    +0.000 A 
ATOM      3  C   UNL     1      -1.669  13.302  21.875  0.00  0.00    +0.000 A 
ATOM      4  N   UNL     1      -2.549  14.033  22.556  0.00  0.00    +0.000 NA
ATOM      5  C   UNL     1      -2.691  15.307  22.175  0.00  0.00    +0.000 A 
ATOM      6  N   UNL     1      -2.022  15.910  21.185  0.00  0.00    +0.000 NA
ATOM      7  C   UNL     1      -1.093  15.181  20.531  0.00  0.00    +0.000 A 
ATOM      8  N   UNL     1      -0.389  15.837  19.515  0.00  0.00    +0.000 N 
ATOM      9  C   UNL     1      -1.019  17.010  18.886  0.00  0.00    +0.000 C 
ATOM     10  C   UNL     1      -0.073  17.503  17.775  0.00  0.00    +0.000 C 
ATOM     11  C   UNL     1       1.210  16.848  18.157  0.00  0.00    +0.000 A 
ATOM     12  C   UNL     1       2.465  17.038  17.597  0.00  0.00    +0.000 A 
ATOM     13  C   UNL     1       3.523  16.263  18.071  0.00  0.00    +0.000 A 
ATOM     14  C   UNL     1       3.320  15.357  19.117  0.00  0.00    +0.000 A 
ATOM     15  C   UNL     1       2.058  15.220  19.702  0.00  0.00    +0.000 A 
ATOM     16  C   UNL     1       0.983  15.922  19.181  0.00  0.00    +0.000 A 
ATOM     17  C   UNL     1      -0.901  13.814  20.824  0.00  0.00    +0.000 A 
ATOM     18  C   UNL     1      -0.049  12.918  20.122  0.00  0.00    +0.000 A 
ATOM     19  C   UNL     1       0.115  11.577  20.478  0.00  0.00    +0.000 A 
ENDROOT
BRANCH  19  20
ATOM     20  N   UNL     1       1.020  10.818  19.709  0.00  0.00    +0.000 N 
ATOM     21  C   UNL     1       0.625  10.115  18.580  0.00  0.00    +0.000 C 
ATOM     22  O   UNL     1      -0.510  10.062  18.126  0.00  0.00    +0.000 OA
ATOM     23  H   UNL     1       2.004  11.031  19.771  0.00  0.00    +0.000 HD
BRANCH  21  24
ATOM     24  C   UNL     1       1.777   9.477  17.880  0.00  0.00    +0.000 C 
ATOM     25  C   UNL     1       2.212   8.271  18.282  0.00  0.00    +0.000 C 
BRANCH  25  26
ATOM     26  C   UNL     1       3.389   7.491  17.758  0.00  0.00    +0.000 C 
BRANCH  26  27
ATOM     27  N   UNL     1       3.409   6.045  18.054  0.00  0.00    +0.000 NA
ATOM     28  C   UNL     1       2.044   5.480  18.001  0.00  0.00    +0.000 C 
ATOM     29  C   UNL     1       2.049   3.977  18.284  0.00  0.00    +0.000 C 
ATOM     30  C   UNL     1       2.943   3.235  17.301  0.00  0.00    +0.000 C 
ATOM     31  C   UNL     1       4.337   3.852  17.296  0.00  0.00    +0.000 C 
ATOM     32  C   UNL     1       4.272   5.363  17.064  0.00  0.00    +0.000 C 
ENDBRANCH  26  27
ENDBRANCH  25  26
ENDBRANCH  21  24
ENDBRANCH  19  20
BRANCH   1  34
ATOM     33  C   UNL     1       0.350   9.492  23.007  0.00  0.00    +0.000 C 
ATOM     34  O   UNL     1      -0.667   9.830  22.085  0.00  0.00    +0.000 OA
ENDBRANCH   1  34
TORSDOF 5
ENDMDL
MODEL 5
REMARK VINA RESULT:      -7.6      3.810      7.195
REMARK  Name = 
REMARK  6 active torsions:
REMARK  status: ('A' for Active; 'I' for Inactive)
REMARK    1  A    between atoms: C_1  and  O_2
REMARK    2  A    between atoms: O_2  and  C_3
REMARK    3  A    between atoms: C_21  and  N_22
REMARK    4  A    between atoms: C_23  and  C_25
REMARK    5  A    between atoms: C_26  and  C_27
REMARK    6  A    between atoms: C_27  and  N_28
REMARK                            x       y       z     vdW  Elec       q    Type
REMARK                         _______ _______ _______ _____ _____    ______ ____
ROOT
ATOM      1  C   UNL     1      -0.474  11.159  21.750  0.00  0.00    +0.000 A 
ATOM      2  C   UNL     1      -1.125  12.160  22.497  0.00  0.00    +0.000 A 
ATOM      3  C   UNL     1      -1.063  13.515  22.181  0.00  0.00    +0.000 A 
ATOM      4  N   UNL     1      -1.752  14.373  22.931  0.00  0.00    +0.000 NA
ATOM      5  C   UNL     1      -1.709  15.658  22.563  0.00  0.00    +0.000 A 
ATOM      6  N   UNL     1      -1.029  16.155  21.523  0.00  0.00    +0.000 NA
ATOM      7  C   UNL     1      -0.290  15.291  20.796  0.00  0.00    +0.000 A 
ATOM      8  N   UNL     1       0.432  15.834  19.727  0.00  0.00    +0.000 N 
ATOM      9  C   UNL     1      -0.041  17.104  19.151  0.00  0.00    +0.000 C 
ATOM     10  C   UNL     1       0.884  17.449  17.968  0.00  0.00    +0.000 C 
ATOM     11  C   UNL     1       2.065  16.583  18.246  0.00  0.00    +0.000 A 
ATOM     12  C   UNL     1       3.286  16.570  17.587  0.00  0.00    +0.000 A 
ATOM     13  C   UNL     1       4.234  15.624  17.975  0.00  0.00    +0.000 A 
ATOM     14  C   UNL     1       3.966  14.749  19.033  0.00  0.00    +0.000 A 
ATOM     15  C   UNL     1       2.748  14.817  19.718  0.00  0.00    +0.000 A 
ATOM     16  C   UNL     1       1.768  15.694  19.284  0.00  0.00    +0.000 A 
ATOM     17  C   UNL     1      -0.305  13.907  21.072  0.00  0.00    +0.000 A 
ATOM     18  C   UNL     1       0.327  12.891  20.304  0.00  0.00    +0.000 A 
ATOM     19  C   UNL     1       0.292  11.537  20.645  0.00  0.00    +0.000 A 
ENDROOT
BRANCH  19  20
ATOM     20  N   UNL     1       0.995  10.648  19.805  0.00  0.00    +0.000 N 
ATOM     21  C   UNL     1       0.402  10.042  18.707  0.00  0.00    +0.000 C 
ATOM     22  O   UNL     1      -0.756  10.191  18.341  0.00  0.00    +0.000 OA
ATOM     23  H   UNL     1       2.002  10.690  19.793  0.00  0.00    +0.000 HD
BRANCH  21  24
ATOM     24  C   UNL     1       1.373   9.230  17.918  0.00  0.00    +0.000 C 
ATOM     25  C   UNL     1       2.083   8.268  18.530  0.00  0.00    +0.000 C 
BRANCH  25  26
ATOM     26  C   UNL     1       3.151   7.388  17.935  0.00  0.00    +0.000 C 
BRANCH  26  27
ATOM     27  N   UNL     1       2.822   5.957  17.785  0.00  0.00    +0.000 NA
ATOM     28  C   UNL     1       4.007   5.188  17.352  0.00  0.00    +0.000 C 
ATOM     29  C   UNL     1       3.688   3.699  17.213  0.00  0.00    +0.000 C 
ATOM     30  C   UNL     1       3.163   3.124  18.522  0.00  0.00    +0.000 C 
ATOM     31  C   UNL     1       1.981   3.950  19.015  0.00  0.00    +0.000 C 
ATOM     32  C   UNL     1       2.335   5.437  19.083  0.00  0.00    +0.000 C 
ENDBRANCH  26  27
ENDBRANCH  25  26
ENDBRANCH  21  24
ENDBRANCH  19  20
BRANCH   1  34
ATOM     33  C   UNL     1       0.351   9.429  23.187  0.00  0.00    +0.000 C 
ATOM     34  O   UNL     1      -0.641   9.922  22.309  0.00  0.00    +0.000 OA
ENDBRANCH   1  34
TORSDOF 5
ENDMDL
MODEL 6
REMARK VINA RESULT:      -7.4      4.438      7.270
REMARK  Name = 
REMARK  6 active torsions:
REMARK  status: ('A' for Active; 'I' for Inactive)
REMARK    1  A    between atoms: C_1  and  O_2
REMARK    2  A    between atoms: O_2  and  C_3
REMARK    3  A    between atoms: C_21  and  N_22
REMARK    4  A    between atoms: C_23  and  C_25
REMARK    5  A    between atoms: C_26  and  C_27
REMARK    6  A    between atoms: C_27  and  N_28
REMARK                            x       y       z     vdW  Elec       q    Type
REMARK                         _______ _______ _______ _____ _____    ______ ____
ROOT
ATOM      1  C   UNL     1      -0.352  12.803  22.103  0.00  0.00    +0.000 A 
ATOM      2  C   UNL     1      -1.122  13.756  22.797  0.00  0.00    +0.000 A 
ATOM      3  C   UNL     1      -1.431  15.013  22.283  0.00  0.00    +0.000 A 
ATOM      4  N   UNL     1      -2.204  15.822  23.006  0.00  0.00    +0.000 NA
ATOM      5  C   UNL     1      -2.520  16.998  22.456  0.00  0.00    +0.000 A 
ATOM      6  N   UNL     1      -2.121  17.437  21.256  0.00  0.00    +0.000 NA
ATOM      7  C   UNL     1      -1.295  16.638  20.547  0.00  0.00    +0.000 A 
ATOM      8  N   UNL     1      -0.870  17.124  19.306  0.00  0.00    +0.000 N 
ATOM      9  C   UNL     1      -1.706  18.138  18.641  0.00  0.00    +0.000 C 
ATOM     10  C   UNL     1      -1.054  18.457  17.282  0.00  0.00    +0.000 C 
ATOM     11  C   UNL     1       0.327  17.932  17.480  0.00  0.00    +0.000 A 
ATOM     12  C   UNL     1       1.419  18.066  16.634  0.00  0.00    +0.000 A 
ATOM     13  C   UNL     1       2.609  17.432  16.990  0.00  0.00    +0.000 A 
ATOM     14  C   UNL     1       2.700  16.724  18.192  0.00  0.00    +0.000 A 
ATOM     15  C   UNL     1       1.601  16.648  19.054  0.00  0.00    +0.000 A 
ATOM     16  C   UNL     1       0.390  17.200  18.670  0.00  0.00    +0.000 A 
ATOM     17  C   UNL     1      -0.940  15.355  21.018  0.00  0.00    +0.000 A 
ATOM     18  C   UNL     1      -0.187  14.380  20.309  0.00  0.00    +0.000 A 
ATOM     19  C   UNL     1       0.151  13.134  20.843  0.00  0.00    +0.000 A 
ENDROOT
BRANCH  19  20
ATOM     20  N   UNL     1       0.931  12.283  20.034  0.00  0.00    +0.000 N 
ATOM     21  C   UNL     1       0.376  11.249  19.293  0.00  0.00    +0.000 C 
ATOM     22  O   UNL     1      -0.810  10.953  19.249  0.00  0.00    +0.000 OA
ATOM     23  H   UNL     1       1.837  12.604  19.728  0.00  0.00    +0.000 HD
BRANCH  21  24
ATOM     24  C   UNL     1       1.386  10.560  18.440  0.00  0.00    +0.000 C 
ATOM     25  C   UNL     1       1.432   9.217  18.421  0.00  0.00    +0.000 C 
BRANCH  25  26
ATOM     26  C   UNL     1       2.408   8.336  17.687  0.00  0.00    +0.000 C 
BRANCH  26  27
ATOM     27  N   UNL     1       2.487   6.928  18.125  0.00  0.00    +0.000 NA
ATOM     28  C   UNL     1       3.777   6.327  17.727  0.00  0.00    +0.000 C 
ATOM     29  C   UNL     1       3.885   4.874  18.193  0.00  0.00    +0.000 C 
ATOM     30  C   UNL     1       3.722   4.767  19.703  0.00  0.00    +0.000 C 
ATOM     31  C   UNL     1       2.426   5.444  20.135  0.00  0.00    +0.000 C 
ATOM     32  C   UNL     1       2.344   6.874  19.597  0.00  0.00    +0.000 C 
ENDBRANCH  26  27
ENDBRANCH  25  26
ENDBRANCH  21  24
ENDBRANCH  19  20
BRANCH   1  34
ATOM     33  C   UNL     1      -1.210  10.773  23.043  0.00  0.00    +0.000 C 
ATOM     34  O   UNL     1      -0.142  11.680  22.854  0.00  0.00    +0.000 OA
ENDBRANCH   1  34
TORSDOF 5
ENDMDL
MODEL 7
REMARK VINA RESULT:      -7.4      4.421      6.730
REMARK  Name = 
REMARK  6 active torsions:
REMARK  status: ('A' for Active; 'I' for Inactive)
REMARK    1  A    between atoms: C_1  and  O_2
REMARK    2  A    between atoms: O_2  and  C_3
REMARK    3  A    between atoms: C_21  and  N_22
REMARK    4  A    between atoms: C_23  and  C_25
REMARK    5  A    between atoms: C_26  and  C_27
REMARK    6  A    between atoms: C_27  and  N_28
REMARK                            x       y       z     vdW  Elec       q    Type
REMARK                         _______ _______ _______ _____ _____    ______ ____
ROOT
ATOM      1  C   UNL     1       0.068  12.859  21.652  0.00  0.00    +0.000 A 
ATOM      2  C   UNL     1      -0.419  13.918  22.442  0.00  0.00    +0.000 A 
ATOM      3  C   UNL     1      -1.775  14.153  22.658  0.00  0.00    +0.000 A 
ATOM      4  N   UNL     1      -2.124  15.158  23.458  0.00  0.00    +0.000 NA
ATOM      5  C   UNL     1      -3.432  15.318  23.682  0.00  0.00    +0.000 A 
ATOM      6  N   UNL     1      -4.415  14.571  23.166  0.00  0.00    +0.000 NA
ATOM      7  C   UNL     1      -4.061  13.585  22.314  0.00  0.00    +0.000 A 
ATOM      8  N   UNL     1      -5.104  12.829  21.767  0.00  0.00    +0.000 N 
ATOM      9  C   UNL     1      -6.378  12.779  22.504  0.00  0.00    +0.000 C 
ATOM     10  C   UNL     1      -7.326  11.846  21.727  0.00  0.00    +0.000 C 
ATOM     11  C   UNL     1      -6.672  11.798  20.388  0.00  0.00    +0.000 A 
ATOM     12  C   UNL     1      -7.154  11.217  19.224  0.00  0.00    +0.000 A 
ATOM     13  C   UNL     1      -6.338  11.232  18.094  0.00  0.00    +0.000 A 
ATOM     14  C   UNL     1      -5.090  11.862  18.133  0.00  0.00    +0.000 A 
ATOM     15  C   UNL     1      -4.647  12.487  19.302  0.00  0.00    +0.000 A 
ATOM     16  C   UNL     1      -5.412  12.402  20.455  0.00  0.00    +0.000 A 
ATOM     17  C   UNL     1      -2.704  13.303  22.049  0.00  0.00    +0.000 A 
ATOM     18  C   UNL     1      -2.208  12.218  21.275  0.00  0.00    +0.000 A 
ATOM     19  C   UNL     1      -0.848  12.007  21.031  0.00  0.00    +0.000 A 
ENDROOT
BRANCH  19  20
ATOM     20  N   UNL     1      -0.509  10.907  20.217  0.00  0.00    +0.000 N 
ATOM     21  C   UNL     1      -0.000  11.064  18.936  0.00  0.00    +0.000 C 
ATOM     22  O   UNL     1       0.209  12.128  18.370  0.00  0.00    +0.000 OA
ATOM     23  H   UNL     1      -0.324  10.018  20.657  0.00  0.00    +0.000 HD
BRANCH  21  24
ATOM     24  C   UNL     1       0.378   9.761  18.316  0.00  0.00    +0.000 C 
ATOM     25  C   UNL     1       1.677   9.458  18.151  0.00  0.00    +0.000 C 
BRANCH  25  26
ATOM     26  C   UNL     1       2.265   8.237  17.494  0.00  0.00    +0.000 C 
BRANCH  26  27
ATOM     27  N   UNL     1       3.169   7.413  18.319  0.00  0.00    +0.000 NA
ATOM     28  C   UNL     1       2.413   6.376  19.052  0.00  0.00    +0.000 C 
ATOM     29  C   UNL     1       3.339   5.499  19.896  0.00  0.00    +0.000 C 
ATOM     30  C   UNL     1       4.403   4.834  19.034  0.00  0.00    +0.000 C 
ATOM     31  C   UNL     1       5.146   5.887  18.221  0.00  0.00    +0.000 C 
ATOM     32  C   UNL     1       4.173   6.772  17.440  0.00  0.00    +0.000 C 
ENDBRANCH  26  27
ENDBRANCH  25  26
ENDBRANCH  21  24
ENDBRANCH  19  20
BRANCH   1  34
ATOM     33  C   UNL     1       2.041  13.960  20.854  0.00  0.00    +0.000 C 
ATOM     34  O   UNL     1       1.431  12.890  21.549  0.00  0.00    +0.000 OA
ENDBRANCH   1  34
TORSDOF 5
ENDMDL
MODEL 8
REMARK VINA RESULT:      -7.3      5.239      7.298
REMARK  Name = 
REMARK  6 active torsions:
REMARK  status: ('A' for Active; 'I' for Inactive)
REMARK    1  A    between atoms: C_1  and  O_2
REMARK    2  A    between atoms: O_2  and  C_3
REMARK    3  A    between atoms: C_21  and  N_22
REMARK    4  A    between atoms: C_23  and  C_25
REMARK    5  A    between atoms: C_26  and  C_27
REMARK    6  A    between atoms: C_27  and  N_28
REMARK                            x       y       z     vdW  Elec       q    Type
REMARK                         _______ _______ _______ _____ _____    ______ ____
ROOT
ATOM      1  C   UNL     1      -3.510  10.551  16.885  0.00  0.00    +0.000 A 
ATOM      2  C   UNL     1      -4.883  10.824  17.037  0.00  0.00    +0.000 A 
ATOM      3  C   UNL     1      -5.389  11.702  17.992  0.00  0.00    +0.000 A 
ATOM      4  N   UNL     1      -6.702  11.921  18.019  0.00  0.00    +0.000 NA
ATOM      5  C   UNL     1      -7.143  12.810  18.915  0.00  0.00    +0.000 A 
ATOM      6  N   UNL     1      -6.386  13.485  19.789  0.00  0.00    +0.000 NA
ATOM      7  C   UNL     1      -5.062  13.224  19.794  0.00  0.00    +0.000 A 
ATOM      8  N   UNL     1      -4.292  13.923  20.730  0.00  0.00    +0.000 N 
ATOM      9  C   UNL     1      -4.819  15.202  21.238  0.00  0.00    +0.000 C 
ATOM     10  C   UNL     1      -3.766  15.788  22.197  0.00  0.00    +0.000 C 
ATOM     11  C   UNL     1      -2.932  14.589  22.498  0.00  0.00    +0.000 A 
ATOM     12  C   UNL     1      -1.905  14.476  23.425  0.00  0.00    +0.000 A 
ATOM     13  C   UNL     1      -1.210  13.269  23.494  0.00  0.00    +0.000 A 
ATOM     14  C   UNL     1      -1.579  12.195  22.678  0.00  0.00    +0.000 A 
ATOM     15  C   UNL     1      -2.651  12.315  21.789  0.00  0.00    +0.000 A 
ATOM     16  C   UNL     1      -3.292  13.536  21.652  0.00  0.00    +0.000 A 
ATOM     17  C   UNL     1      -4.490  12.338  18.856  0.00  0.00    +0.000 A 
ATOM     18  C   UNL     1      -3.103  12.081  18.682  0.00  0.00    +0.000 A 
ATOM     19  C   UNL     1      -2.602  11.172  17.746  0.00  0.00    +0.000 A 
ENDROOT
BRANCH  19  20
ATOM     20  N   UNL     1      -1.203  10.998  17.711  0.00  0.00    +0.000 N 
ATOM     21  C   UNL     1      -0.510  10.366  18.734  0.00  0.00    +0.000 C 
ATOM     22  O   UNL     1      -0.999   9.901  19.754  0.00  0.00    +0.000 OA
ATOM     23  H   UNL     1      -0.734  11.033  16.819  0.00  0.00    +0.000 HD
BRANCH  21  24
ATOM     24  C   UNL     1       0.940  10.211  18.420  0.00  0.00    +0.000 C 
ATOM     25  C   UNL     1       1.436   8.987  18.171  0.00  0.00    +0.000 C 
BRANCH  25  26
ATOM     26  C   UNL     1       2.869   8.608  17.901  0.00  0.00    +0.000 C 
BRANCH  26  27
ATOM     27  N   UNL     1       3.105   7.250  17.375  0.00  0.00    +0.000 NA
ATOM     28  C   UNL     1       4.552   6.988  17.230  0.00  0.00    +0.000 C 
ATOM     29  C   UNL     1       4.816   5.575  16.706  0.00  0.00    +0.000 C 
ATOM     30  C   UNL     1       4.201   4.525  17.621  0.00  0.00    +0.000 C 
ATOM     31  C   UNL     1       2.722   4.823  17.833  0.00  0.00    +0.000 C 
ATOM     32  C   UNL     1       2.509   6.264  18.303  0.00  0.00    +0.000 C 
ENDBRANCH  26  27
ENDBRANCH  25  26
ENDBRANCH  21  24
ENDBRANCH  19  20
BRANCH   1  34
ATOM     33  C   UNL     1      -3.007  10.029  14.601  0.00  0.00    +0.000 C 
ATOM     34  O   UNL     1      -3.285   9.607  15.922  0.00  0.00    +0.000 OA
ENDBRANCH   1  34
TORSDOF 5
ENDMDL
MODEL 9
REMARK VINA RESULT:      -7.3      4.213      7.157
REMARK  Name = 
REMARK  6 active torsions:
REMARK  status: ('A' for Active; 'I' for Inactive)
REMARK    1  A    between atoms: C_1  and  O_2
REMARK    2  A    between atoms: O_2  and  C_3
REMARK    3  A    between atoms: C_21  and  N_22
REMARK    4  A    between atoms: C_23  and  C_25
REMARK    5  A    between atoms: C_26  and  C_27
REMARK    6  A    between atoms: C_27  and  N_28
REMARK                            x       y       z     vdW  Elec       q    Type
REMARK                         _______ _______ _______ _____ _____    ______ ____
ROOT
ATOM      1  C   UNL     1       1.033  12.672  20.973  0.00  0.00    +0.000 A 
ATOM      2  C   UNL     1       0.192  13.682  21.479  0.00  0.00    +0.000 A 
ATOM      3  C   UNL     1      -1.166  13.766  21.186  0.00  0.00    +0.000 A 
ATOM      4  N   UNL     1      -1.879  14.737  21.754  0.00  0.00    +0.000 NA
ATOM      5  C   UNL     1      -3.189  14.752  21.488  0.00  0.00    +0.000 A 
ATOM      6  N   UNL     1      -3.840  13.891  20.698  0.00  0.00    +0.000 NA
ATOM      7  C   UNL     1      -3.108  12.938  20.082  0.00  0.00    +0.000 A 
ATOM      8  N   UNL     1      -3.804  12.062  19.242  0.00  0.00    +0.000 N 
ATOM      9  C   UNL     1      -5.246  11.880  19.480  0.00  0.00    +0.000 C 
ATOM     10  C   UNL     1      -5.753  10.834  18.469  0.00  0.00    +0.000 C 
ATOM     11  C   UNL     1      -4.659  10.840  17.455  0.00  0.00    +0.000 A 
ATOM     12  C   UNL     1      -4.631  10.191  16.229  0.00  0.00    +0.000 A 
ATOM     13  C   UNL     1      -3.469  10.281  15.463  0.00  0.00    +0.000 A 
ATOM     14  C   UNL     1      -2.387  11.047  15.910  0.00  0.00    +0.000 A 
ATOM     15  C   UNL     1      -2.459  11.736  17.124  0.00  0.00    +0.000 A 
ATOM     16  C   UNL     1      -3.575  11.583  17.932  0.00  0.00    +0.000 A 
ATOM     17  C   UNL     1      -1.725  12.807  20.334  0.00  0.00    +0.000 A 
ATOM     18  C   UNL     1      -0.879  11.773  19.847  0.00  0.00    +0.000 A 
ATOM     19  C   UNL     1       0.491  11.713  20.115  0.00  0.00    +0.000 A 
ENDROOT
BRANCH  19  20
ATOM     20  N   UNL     1       1.209  10.646  19.536  0.00  0.00    +0.000 N 
ATOM     21  C   UNL     1       1.089   9.340  19.990  0.00  0.00    +0.000 C 
ATOM     22  O   UNL     1       0.380   8.961  20.912  0.00  0.00    +0.000 OA
ATOM     23  H   UNL     1       1.560  10.754  18.597  0.00  0.00    +0.000 HD
BRANCH  21  24
ATOM     24  C   UNL     1       1.865   8.379  19.154  0.00  0.00    +0.000 C 
ATOM     25  C   UNL     1       2.253   7.206  19.681  0.00  0.00    +0.000 C 
BRANCH  25  26
ATOM     26  C   UNL     1       3.091   6.134  19.035  0.00  0.00    +0.000 C 
BRANCH  26  27
ATOM     27  N   UNL     1       2.694   4.737  19.297  0.00  0.00    +0.000 NA
ATOM     28  C   UNL     1       1.580   4.680  20.266  0.00  0.00    +0.000 C 
ATOM     29  C   UNL     1       1.142   3.239  20.534  0.00  0.00    +0.000 C 
ATOM     30  C   UNL     1       0.727   2.543  19.245  0.00  0.00    +0.000 C 
ATOM     31  C   UNL     1       1.843   2.652  18.213  0.00  0.00    +0.000 C 
ATOM     32  C   UNL     1       2.281   4.106  18.024  0.00  0.00    +0.000 C 
ENDBRANCH  26  27
ENDBRANCH  25  26
ENDBRANCH  21  24
ENDBRANCH  19  20
BRANCH   1  34
ATOM     33  C   UNL     1       2.976  14.073  21.043  0.00  0.00    +0.000 C 
ATOM     34  O   UNL     1       2.332  12.855  21.360  0.00  0.00    +0.000 OA
ENDBRANCH   1  34
TORSDOF 5
ENDMDL
