MODEL 1
REMARK VINA RESULT:      -8.8      0.000      0.000
REMARK  Name = 
REMARK  9 active torsions:
REMARK  status: ('A' for Active; 'I' for Inactive)
REMARK    1  A    between atoms: C_1  and  C_2
REMARK    2  A    between atoms: N_4  and  C_5
REMARK    3  A    between atoms: C_5  and  C_6
REMARK    4  A    between atoms: C_9  and  O_10
REMARK    5  A    between atoms: O_10  and  C_11
REMARK    6  A    between atoms: C_14  and  C_15
REMARK    7  A    between atoms: C_21  and  C_23
REMARK    8  A    between atoms: C_25  and  C_26
REMARK    9  A    between atoms: N_28  and  C_29
REMARK                            x       y       z     vdW  Elec       q    Type
REMARK                         _______ _______ _______ _____ _____    ______ ____
ROOT
ATOM      1  C   UNL     1       2.786   7.272  18.358  0.00  0.00    +0.000 A 
ATOM      2  C   UNL     1       2.643   8.466  17.630  0.00  0.00    +0.000 A 
ATOM      3  C   UNL     1       1.898   9.528  18.146  0.00  0.00    +0.000 A 
ATOM      4  C   UNL     1       1.289   9.406  19.394  0.00  0.00    +0.000 A 
ATOM      5  C   UNL     1       1.542   8.278  20.180  0.00  0.00    +0.000 A 
ATOM      6  C   UNL     1       2.266   7.204  19.656  0.00  0.00    +0.000 A 
ENDROOT
BRANCH   1   7
ATOM      7  C   UNL     1       3.376   6.052  17.692  0.00  0.00    +0.000 C 
BRANCH   7  11
ATOM      8  C   UNL     1       7.189   5.559  17.332  0.00  0.00    +0.000 C 
ATOM      9  C   UNL     1       5.785   6.107  17.171  0.00  0.00    +0.000 C 
ATOM     10  O   UNL     1       5.644   7.025  16.360  0.00  0.00    +0.000 OA
ATOM     11  N   UNL     1       4.735   5.568  17.934  0.00  0.00    +0.000 N 
ATOM     12  C   UNL     1       4.920   4.491  18.844  0.00  0.00    +0.000 C 
ATOM     13  O   UNL     1       6.057   4.144  19.164  0.00  0.00    +0.000 OA
BRANCH  12  14
ATOM     14  C   UNL     1       3.794   3.808  19.497  0.00  0.00    +0.000 A 
ATOM     15  C   UNL     1       3.060   4.006  20.663  0.00  0.00    +0.000 A 
ATOM     16  C   UNL     1       2.172   2.911  20.775  0.00  0.00    +0.000 A 
ATOM     17  C   UNL     1       1.248   2.576  21.886  0.00  0.00    +0.000 C 
ATOM     18  N   UNL     1       2.246   2.126  19.706  0.00  0.00    +0.000 NA
ATOM     19  N   UNL     1       3.159   2.717  18.917  0.00  0.00    +0.000 N 
ATOM     20  C   UNL     1       3.388   2.155  17.600  0.00  0.00    +0.000 C 
ENDBRANCH  12  14
ENDBRANCH   7  11
ENDBRANCH   1   7
BRANCH   4  21
ATOM     21  O   UNL     1       0.490  10.454  19.790  0.00  0.00    +0.000 OA
BRANCH  21  22
ATOM     22  C   UNL     1      -0.700  10.690  19.134  0.00  0.00    +0.000 A 
ATOM     23  C   UNL     1      -1.484  11.718  19.663  0.00  0.00    +0.000 A 
ATOM     24  C   UNL     1      -2.728  12.022  19.100  0.00  0.00    +0.000 A 
ATOM     25  C   UNL     1      -3.194  11.293  17.998  0.00  0.00    +0.000 A 
ATOM     26  C   UNL     1      -2.391  10.296  17.440  0.00  0.00    +0.000 A 
ATOM     27  C   UNL     1      -1.135  10.016  17.988  0.00  0.00    +0.000 A 
BRANCH  25  28
ATOM     28  C   UNL     1      -4.484  11.573  17.442  0.00  0.00    +0.000 C 
ATOM     29  N   UNL     1      -5.534  11.788  16.991  0.00  0.00    +0.000 NA
ENDBRANCH  25  28
ENDBRANCH  21  22
ENDBRANCH   4  21
TORSDOF 6
ENDMDL
MODEL 2
REMARK VINA RESULT:      -8.7      1.576      3.755
REMARK  Name = 
REMARK  9 active torsions:
REMARK  status: ('A' for Active; 'I' for Inactive)
REMARK    1  A    between atoms: C_1  and  C_2
REMARK    2  A    between atoms: N_4  and  C_5
REMARK    3  A    between atoms: C_5  and  C_6
REMARK    4  A    between atoms: C_9  and  O_10
REMARK    5  A    between atoms: O_10  and  C_11
REMARK    6  A    between atoms: C_14  and  C_15
REMARK    7  A    between atoms: C_21  and  C_23
REMARK    8  A    between atoms: C_25  and  C_26
REMARK    9  A    between atoms: N_28  and  C_29
REMARK                            x       y       z     vdW  Elec       q    Type
REMARK                         _______ _______ _______ _____ _____    ______ ____
ROOT
ATOM      1  C   UNL     1       2.598   6.850  19.239  0.00  0.00    +0.000 A 
ATOM      2  C   UNL     1       1.837   7.446  20.261  0.00  0.00    +0.000 A 
ATOM      3  C   UNL     1       1.208   8.674  20.055  0.00  0.00    +0.000 A 
ATOM      4  C   UNL     1       1.331   9.319  18.826  0.00  0.00    +0.000 A 
ATOM      5  C   UNL     1       1.968   8.670  17.765  0.00  0.00    +0.000 A 
ATOM      6  C   UNL     1       2.621   7.452  17.976  0.00  0.00    +0.000 A 
ENDROOT
BRANCH   1   7
ATOM      7  C   UNL     1       3.472   5.659  19.549  0.00  0.00    +0.000 C 
BRANCH   7  11
ATOM      8  C   UNL     1       2.750   2.145  18.119  0.00  0.00    +0.000 C 
ATOM      9  C   UNL     1       2.631   3.430  18.913  0.00  0.00    +0.000 C 
ATOM     10  O   UNL     1       1.696   3.494  19.715  0.00  0.00    +0.000 OA
ATOM     11  N   UNL     1       3.556   4.467  18.704  0.00  0.00    +0.000 N 
ATOM     12  C   UNL     1       4.639   4.358  17.791  0.00  0.00    +0.000 C 
ATOM     13  O   UNL     1       4.671   3.431  16.980  0.00  0.00    +0.000 OA
BRANCH  12  14
ATOM     14  C   UNL     1       5.708   5.364  17.712  0.00  0.00    +0.000 A 
ATOM     15  C   UNL     1       6.714   5.808  18.566  0.00  0.00    +0.000 A 
ATOM     16  C   UNL     1       7.343   6.898  17.921  0.00  0.00    +0.000 A 
ATOM     17  C   UNL     1       8.400   7.798  18.441  0.00  0.00    +0.000 C 
ATOM     18  N   UNL     1       6.858   7.073  16.697  0.00  0.00    +0.000 NA
ATOM     19  N   UNL     1       5.940   6.101  16.557  0.00  0.00    +0.000 N 
ATOM     20  C   UNL     1       5.300   5.949  15.265  0.00  0.00    +0.000 C 
ENDBRANCH  12  14
ENDBRANCH   7  11
ENDBRANCH   1   7
BRANCH   4  21
ATOM     21  O   UNL     1       0.767  10.570  18.733  0.00  0.00    +0.000 OA
BRANCH  21  22
ATOM     22  C   UNL     1      -0.577  10.695  18.452  0.00  0.00    +0.000 A 
ATOM     23  C   UNL     1      -1.248  11.698  19.155  0.00  0.00    +0.000 A 
ATOM     24  C   UNL     1      -2.622  11.890  18.977  0.00  0.00    +0.000 A 
ATOM     25  C   UNL     1      -3.333  11.074  18.086  0.00  0.00    +0.000 A 
ATOM     26  C   UNL     1      -2.655  10.101  17.349  0.00  0.00    +0.000 A 
ATOM     27  C   UNL     1      -1.276   9.932  17.509  0.00  0.00    +0.000 A 
BRANCH  25  28
ATOM     28  C   UNL     1      -4.747  11.241  17.929  0.00  0.00    +0.000 C 
ATOM     29  N   UNL     1      -5.897  11.368  17.810  0.00  0.00    +0.000 NA
ENDBRANCH  25  28
ENDBRANCH  21  22
ENDBRANCH   4  21
TORSDOF 6
ENDMDL
MODEL 3
REMARK VINA RESULT:      -8.7      1.462      3.519
REMARK  Name = 
REMARK  9 active torsions:
REMARK  status: ('A' for Active; 'I' for Inactive)
REMARK    1  A    between atoms: C_1  and  C_2
REMARK    2  A    between atoms: N_4  and  C_5
REMARK    3  A    between atoms: C_5  and  C_6
REMARK    4  A    between atoms: C_9  and  O_10
REMARK    5  A    between atoms: O_10  and  C_11
REMARK    6  A    between atoms: C_14  and  C_15
REMARK    7  A    between atoms: C_21  and  C_23
REMARK    8  A    between atoms: C_25  and  C_26
REMARK    9  A    between atoms: N_28  and  C_29
REMARK                            x       y       z     vdW  Elec       q    Type
REMARK                         _______ _______ _______ _____ _____    ______ ____
ROOT
ATOM      1  C   UNL     1       2.601   6.772  18.411  0.00  0.00    +0.000 A 
ATOM      2  C   UNL     1       2.602   7.879  17.543  0.00  0.00    +0.000 A 
ATOM      3  C   UNL     1       2.042   9.094  17.941  0.00  0.00    +0.000 A 
ATOM      4  C   UNL     1       1.475   9.215  19.208  0.00  0.00    +0.000 A 
ATOM      5  C   UNL     1       1.593   8.164  20.122  0.00  0.00    +0.000 A 
ATOM      6  C   UNL     1       2.131   6.939  19.719  0.00  0.00    +0.000 A 
ENDROOT
BRANCH   1   7
ATOM      7  C   UNL     1       2.978   5.407  17.888  0.00  0.00    +0.000 C 
BRANCH   7  11
ATOM      8  C   UNL     1       3.123   2.463  20.383  0.00  0.00    +0.000 C 
ATOM      9  C   UNL     1       2.602   3.524  19.434  0.00  0.00    +0.000 C 
ATOM     10  O   UNL     1       1.376   3.614  19.332  0.00  0.00    +0.000 OA
ATOM     11  N   UNL     1       3.508   4.331  18.726  0.00  0.00    +0.000 N 
ATOM     12  C   UNL     1       4.917   4.224  18.881  0.00  0.00    +0.000 C 
ATOM     13  O   UNL     1       5.400   3.259  19.475  0.00  0.00    +0.000 OA
BRANCH  12  14
ATOM     14  C   UNL     1       5.852   5.189  18.285  0.00  0.00    +0.000 A 
ATOM     15  C   UNL     1       6.583   6.277  18.754  0.00  0.00    +0.000 A 
ATOM     16  C   UNL     1       7.209   6.862  17.629  0.00  0.00    +0.000 A 
ATOM     17  C   UNL     1       8.011   8.107  17.558  0.00  0.00    +0.000 C 
ATOM     18  N   UNL     1       6.992   6.141  16.535  0.00  0.00    +0.000 NA
ATOM     19  N   UNL     1       6.248   5.105  16.956  0.00  0.00    +0.000 N 
ATOM     20  C   UNL     1       5.934   4.059  16.003  0.00  0.00    +0.000 C 
ENDBRANCH  12  14
ENDBRANCH   7  11
ENDBRANCH   1   7
BRANCH   4  21
ATOM     21  O   UNL     1       0.854  10.410  19.489  0.00  0.00    +0.000 OA
BRANCH  21  22
ATOM     22  C   UNL     1      -0.404  10.662  18.983  0.00  0.00    +0.000 A 
ATOM     23  C   UNL     1      -1.116  11.680  19.621  0.00  0.00    +0.000 A 
ATOM     24  C   UNL     1      -2.417  11.996  19.215  0.00  0.00    +0.000 A 
ATOM     25  C   UNL     1      -3.012  11.290  18.160  0.00  0.00    +0.000 A 
ATOM     26  C   UNL     1      -2.284  10.304  17.492  0.00  0.00    +0.000 A 
ATOM     27  C   UNL     1      -0.973  10.011  17.882  0.00  0.00    +0.000 A 
BRANCH  25  28
ATOM     28  C   UNL     1      -4.357  11.583  17.766  0.00  0.00    +0.000 C 
ATOM     29  N   UNL     1      -5.454  11.821  17.458  0.00  0.00    +0.000 NA
ENDBRANCH  25  28
ENDBRANCH  21  22
ENDBRANCH   4  21
TORSDOF 6
ENDMDL
MODEL 4
REMARK VINA RESULT:      -8.6      1.759      3.508
REMARK  Name = 
REMARK  9 active torsions:
REMARK  status: ('A' for Active; 'I' for Inactive)
REMARK    1  A    between atoms: C_1  and  C_2
REMARK    2  A    between atoms: N_4  and  C_5
REMARK    3  A    between atoms: C_5  and  C_6
REMARK    4  A    between atoms: C_9  and  O_10
REMARK    5  A    between atoms: O_10  and  C_11
REMARK    6  A    between atoms: C_14  and  C_15
REMARK    7  A    between atoms: C_21  and  C_23
REMARK    8  A    between atoms: C_25  and  C_26
REMARK    9  A    between atoms: N_28  and  C_29
REMARK                            x       y       z     vdW  Elec       q    Type
REMARK                         _______ _______ _______ _____ _____    ______ ____
ROOT
ATOM      1  C   UNL     1       2.409   7.012  19.631  0.00  0.00    +0.000 A 
ATOM      2  C   UNL     1       2.657   7.489  18.332  0.00  0.00    +0.000 A 
ATOM      3  C   UNL     1       2.088   8.686  17.894  0.00  0.00    +0.000 A 
ATOM      4  C   UNL     1       1.266   9.418  18.750  0.00  0.00    +0.000 A 
ATOM      5  C   UNL     1       1.128   9.021  20.084  0.00  0.00    +0.000 A 
ATOM      6  C   UNL     1       1.676   7.810  20.516  0.00  0.00    +0.000 A 
ENDROOT
BRANCH   1   7
ATOM      7  C   UNL     1       2.819   5.608  20.006  0.00  0.00    +0.000 C 
BRANCH   7  11
ATOM      8  C   UNL     1       1.087   2.443  18.629  0.00  0.00    +0.000 C 
ATOM      9  C   UNL     1       1.354   3.719  19.402  0.00  0.00    +0.000 C 
ATOM     10  O   UNL     1       0.480   4.072  20.197  0.00  0.00    +0.000 OA
ATOM     11  N   UNL     1       2.546   4.430  19.182  0.00  0.00    +0.000 N 
ATOM     12  C   UNL     1       3.550   3.988  18.278  0.00  0.00    +0.000 C 
ATOM     13  O   UNL     1       3.305   3.080  17.482  0.00  0.00    +0.000 OA
BRANCH  12  14
ATOM     14  C   UNL     1       4.869   4.630  18.189  0.00  0.00    +0.000 A 
ATOM     15  C   UNL     1       5.835   5.036  19.105  0.00  0.00    +0.000 A 
ATOM     16  C   UNL     1       6.841   5.701  18.367  0.00  0.00    +0.000 A 
ATOM     17  C   UNL     1       8.036   6.421  18.869  0.00  0.00    +0.000 C 
ATOM     18  N   UNL     1       6.602   5.630  17.063  0.00  0.00    +0.000 NA
ATOM     19  N   UNL     1       5.465   4.920  16.968  0.00  0.00    +0.000 N 
ATOM     20  C   UNL     1       4.991   4.566  15.644  0.00  0.00    +0.000 C 
ENDBRANCH  12  14
ENDBRANCH   7  11
ENDBRANCH   1   7
BRANCH   4  21
ATOM     21  O   UNL     1       0.663  10.532  18.215  0.00  0.00    +0.000 OA
BRANCH  21  22
ATOM     22  C   UNL     1      -0.711  10.576  18.102  0.00  0.00    +0.000 A 
ATOM     23  C   UNL     1      -1.341  11.599  18.814  0.00  0.00    +0.000 A 
ATOM     24  C   UNL     1      -2.735  11.718  18.802  0.00  0.00    +0.000 A 
ATOM     25  C   UNL     1      -3.508  10.807  18.069  0.00  0.00    +0.000 A 
ATOM     26  C   UNL     1      -2.877   9.812  17.319  0.00  0.00    +0.000 A 
ATOM     27  C   UNL     1      -1.482   9.715  17.312  0.00  0.00    +0.000 A 
BRANCH  25  28
ATOM     28  C   UNL     1      -4.936  10.900  18.084  0.00  0.00    +0.000 C 
ATOM     29  N   UNL     1      -6.097  10.985  18.089  0.00  0.00    +0.000 NA
ENDBRANCH  25  28
ENDBRANCH  21  22
ENDBRANCH   4  21
TORSDOF 6
ENDMDL
MODEL 5
REMARK VINA RESULT:      -8.6      1.577      3.726
REMARK  Name = 
REMARK  9 active torsions:
REMARK  status: ('A' for Active; 'I' for Inactive)
REMARK    1  A    between atoms: C_1  and  C_2
REMARK    2  A    between atoms: N_4  and  C_5
REMARK    3  A    between atoms: C_5  and  C_6
REMARK    4  A    between atoms: C_9  and  O_10
REMARK    5  A    between atoms: O_10  and  C_11
REMARK    6  A    between atoms: C_14  and  C_15
REMARK    7  A    between atoms: C_21  and  C_23
REMARK    8  A    between atoms: C_25  and  C_26
REMARK    9  A    between atoms: N_28  and  C_29
REMARK                            x       y       z     vdW  Elec       q    Type
REMARK                         _______ _______ _______ _____ _____    ______ ____
ROOT
ATOM      1  C   UNL     1       2.378   6.828  19.540  0.00  0.00    +0.000 A 
ATOM      2  C   UNL     1       1.619   7.572  20.461  0.00  0.00    +0.000 A 
ATOM      3  C   UNL     1       1.087   8.813  20.106  0.00  0.00    +0.000 A 
ATOM      4  C   UNL     1       1.307   9.321  18.827  0.00  0.00    +0.000 A 
ATOM      5  C   UNL     1       1.941   8.528  17.866  0.00  0.00    +0.000 A 
ATOM      6  C   UNL     1       2.496   7.297  18.227  0.00  0.00    +0.000 A 
ENDROOT
BRANCH   1   7
ATOM      7  C   UNL     1       3.151   5.618  20.008  0.00  0.00    +0.000 C 
BRANCH   7  11
ATOM      8  C   UNL     1       1.977   2.036  19.174  0.00  0.00    +0.000 C 
ATOM      9  C   UNL     1       2.031   3.438  19.746  0.00  0.00    +0.000 C 
ATOM     10  O   UNL     1       1.128   3.748  20.527  0.00  0.00    +0.000 OA
ATOM     11  N   UNL     1       3.072   4.304  19.370  0.00  0.00    +0.000 N 
ATOM     12  C   UNL     1       4.116   3.914  18.488  0.00  0.00    +0.000 C 
ATOM     13  O   UNL     1       4.017   2.870  17.841  0.00  0.00    +0.000 OA
BRANCH  12  14
ATOM     14  C   UNL     1       5.298   4.753  18.245  0.00  0.00    +0.000 A 
ATOM     15  C   UNL     1       6.272   5.344  19.044  0.00  0.00    +0.000 A 
ATOM     16  C   UNL     1       7.077   6.131  18.189  0.00  0.00    +0.000 A 
ATOM     17  C   UNL     1       8.185   7.051  18.544  0.00  0.00    +0.000 C 
ATOM     18  N   UNL     1       6.722   5.971  16.919  0.00  0.00    +0.000 NA
ATOM     19  N   UNL     1       5.712   5.086  16.961  0.00  0.00    +0.000 N 
ATOM     20  C   UNL     1       5.170   4.609  15.704  0.00  0.00    +0.000 C 
ENDBRANCH  12  14
ENDBRANCH   7  11
ENDBRANCH   1   7
BRANCH   4  21
ATOM     21  O   UNL     1       0.838  10.592  18.585  0.00  0.00    +0.000 OA
BRANCH  21  22
ATOM     22  C   UNL     1      -0.521  10.813  18.499  0.00  0.00    +0.000 A 
ATOM     23  C   UNL     1      -1.200  10.027  17.565  0.00  0.00    +0.000 A 
ATOM     24  C   UNL     1      -2.575  10.192  17.367  0.00  0.00    +0.000 A 
ATOM     25  C   UNL     1      -3.279  11.149  18.110  0.00  0.00    +0.000 A 
ATOM     26  C   UNL     1      -2.609  11.903  19.075  0.00  0.00    +0.000 A 
ATOM     27  C   UNL     1      -1.240  11.715  19.290  0.00  0.00    +0.000 A 
BRANCH  25  28
ATOM     28  C   UNL     1      -4.679  11.349  17.884  0.00  0.00    +0.000 C 
ATOM     29  N   UNL     1      -5.818  11.517  17.711  0.00  0.00    +0.000 NA
ENDBRANCH  25  28
ENDBRANCH  21  22
ENDBRANCH   4  21
TORSDOF 6
ENDMDL
MODEL 6
REMARK VINA RESULT:      -8.4      2.283      2.785
REMARK  Name = 
REMARK  9 active torsions:
REMARK  status: ('A' for Active; 'I' for Inactive)
REMARK    1  A    between atoms: C_1  and  C_2
REMARK    2  A    between atoms: N_4  and  C_5
REMARK    3  A    between atoms: C_5  and  C_6
REMARK    4  A    between atoms: C_9  and  O_10
REMARK    5  A    between atoms: O_10  and  C_11
REMARK    6  A    between atoms: C_14  and  C_15
REMARK    7  A    between atoms: C_21  and  C_23
REMARK    8  A    between atoms: C_25  and  C_26
REMARK    9  A    between atoms: N_28  and  C_29
REMARK                            x       y       z     vdW  Elec       q    Type
REMARK                         _______ _______ _______ _____ _____    ______ ____
ROOT
ATOM      1  C   UNL     1       2.721   7.414  18.385  0.00  0.00    +0.000 A 
ATOM      2  C   UNL     1       2.374   8.526  17.596  0.00  0.00    +0.000 A 
ATOM      3  C   UNL     1       1.523   9.513  18.095  0.00  0.00    +0.000 A 
ATOM      4  C   UNL     1       1.011   9.399  19.387  0.00  0.00    +0.000 A 
ATOM      5  C   UNL     1       1.460   8.372  20.221  0.00  0.00    +0.000 A 
ATOM      6  C   UNL     1       2.292   7.369  19.716  0.00  0.00    +0.000 A 
ENDROOT
BRANCH   1   7
ATOM      7  C   UNL     1       3.432   6.239  17.756  0.00  0.00    +0.000 C 
BRANCH   7  11
ATOM      8  C   UNL     1       7.284   5.993  17.662  0.00  0.00    +0.000 C 
ATOM      9  C   UNL     1       5.863   6.453  17.407  0.00  0.00    +0.000 C 
ATOM     10  O   UNL     1       5.720   7.370  16.594  0.00  0.00    +0.000 OA
ATOM     11  N   UNL     1       4.799   5.840  18.090  0.00  0.00    +0.000 N 
ATOM     12  C   UNL     1       4.988   4.767  19.003  0.00  0.00    +0.000 C 
ATOM     13  O   UNL     1       6.121   4.489  19.400  0.00  0.00    +0.000 OA
BRANCH  12  14
ATOM     14  C   UNL     1       3.865   4.007  19.571  0.00  0.00    +0.000 A 
ATOM     15  C   UNL     1       3.056   4.131  20.696  0.00  0.00    +0.000 A 
ATOM     16  C   UNL     1       2.224   2.988  20.727  0.00  0.00    +0.000 A 
ATOM     17  C   UNL     1       1.258   2.572  21.772  0.00  0.00    +0.000 C 
ATOM     18  N   UNL     1       2.402   2.240  19.644  0.00  0.00    +0.000 NA
ATOM     19  N   UNL     1       3.325   2.901  18.926  0.00  0.00    +0.000 N 
ATOM     20  C   UNL     1       3.659   2.391  17.610  0.00  0.00    +0.000 C 
ENDBRANCH  12  14
ENDBRANCH   7  11
ENDBRANCH   1   7
BRANCH   4  21
ATOM     21  O   UNL     1       0.101  10.357  19.770  0.00  0.00    +0.000 OA
BRANCH  21  22
ATOM     22  C   UNL     1       0.409  11.692  19.616  0.00  0.00    +0.000 A 
ATOM     23  C   UNL     1      -0.437  12.410  18.767  0.00  0.00    +0.000 A 
ATOM     24  C   UNL     1      -0.197  13.764  18.508  0.00  0.00    +0.000 A 
ATOM     25  C   UNL     1       0.896  14.408  19.103  0.00  0.00    +0.000 A 
ATOM     26  C   UNL     1       1.715  13.703  19.987  0.00  0.00    +0.000 A 
ATOM     27  C   UNL     1       1.455  12.357  20.266  0.00  0.00    +0.000 A 
BRANCH  25  28
ATOM     28  C   UNL     1       1.168  15.783  18.811  0.00  0.00    +0.000 C 
ATOM     29  N   UNL     1       1.399  16.901  18.582  0.00  0.00    +0.000 NA
ENDBRANCH  25  28
ENDBRANCH  21  22
ENDBRANCH   4  21
TORSDOF 6
ENDMDL
MODEL 7
REMARK VINA RESULT:      -8.3      1.901      3.676
REMARK  Name = 
REMARK  9 active torsions:
REMARK  status: ('A' for Active; 'I' for Inactive)
REMARK    1  A    between atoms: C_1  and  C_2
REMARK    2  A    between atoms: N_4  and  C_5
REMARK    3  A    between atoms: C_5  and  C_6
REMARK    4  A    between atoms: C_9  and  O_10
REMARK    5  A    between atoms: O_10  and  C_11
REMARK    6  A    between atoms: C_14  and  C_15
REMARK    7  A    between atoms: C_21  and  C_23
REMARK    8  A    between atoms: C_25  and  C_26
REMARK    9  A    between atoms: N_28  and  C_29
REMARK                            x       y       z     vdW  Elec       q    Type
REMARK                         _______ _______ _______ _____ _____    ______ ____
ROOT
ATOM      1  C   UNL     1       2.506   6.999  19.303  0.00  0.00    +0.000 A 
ATOM      2  C   UNL     1       2.722   7.635  18.067  0.00  0.00    +0.000 A 
ATOM      3  C   UNL     1       2.128   8.867  17.789  0.00  0.00    +0.000 A 
ATOM      4  C   UNL     1       1.313   9.475  18.742  0.00  0.00    +0.000 A 
ATOM      5  C   UNL     1       1.206   8.916  20.019  0.00  0.00    +0.000 A 
ATOM      6  C   UNL     1       1.779   7.671  20.292  0.00  0.00    +0.000 A 
ENDROOT
BRANCH   1   7
ATOM      7  C   UNL     1       2.944   5.566  19.497  0.00  0.00    +0.000 C 
BRANCH   7  11
ATOM      8  C   UNL     1       0.476   2.652  18.923  0.00  0.00    +0.000 C 
ATOM      9  C   UNL     1       1.130   3.896  19.490  0.00  0.00    +0.000 C 
ATOM     10  O   UNL     1       0.595   4.394  20.484  0.00  0.00    +0.000 OA
ATOM     11  N   UNL     1       2.280   4.420  18.875  0.00  0.00    +0.000 N 
ATOM     12  C   UNL     1       2.893   3.812  17.746  0.00  0.00    +0.000 C 
ATOM     13  O   UNL     1       2.300   2.928  17.125  0.00  0.00    +0.000 OA
BRANCH  12  14
ATOM     14  C   UNL     1       4.194   4.252  17.222  0.00  0.00    +0.000 A 
ATOM     15  C   UNL     1       4.631   4.874  16.057  0.00  0.00    +0.000 A 
ATOM     16  C   UNL     1       6.044   4.913  16.122  0.00  0.00    +0.000 A 
ATOM     17  C   UNL     1       7.008   5.370  15.093  0.00  0.00    +0.000 C 
ATOM     18  N   UNL     1       6.480   4.455  17.291  0.00  0.00    +0.000 NA
ATOM     19  N   UNL     1       5.362   4.139  17.966  0.00  0.00    +0.000 N 
ATOM     20  C   UNL     1       5.497   3.709  19.344  0.00  0.00    +0.000 C 
ENDBRANCH  12  14
ENDBRANCH   7  11
ENDBRANCH   1   7
BRANCH   4  21
ATOM     21  O   UNL     1       0.684  10.636  18.358  0.00  0.00    +0.000 OA
BRANCH  21  22
ATOM     22  C   UNL     1      -0.687  10.651  18.205  0.00  0.00    +0.000 A 
ATOM     23  C   UNL     1      -1.355  11.679  18.876  0.00  0.00    +0.000 A 
ATOM     24  C   UNL     1      -2.750  11.771  18.822  0.00  0.00    +0.000 A 
ATOM     25  C   UNL     1      -3.485  10.828  18.091  0.00  0.00    +0.000 A 
ATOM     26  C   UNL     1      -2.816   9.828  17.383  0.00  0.00    +0.000 A 
ATOM     27  C   UNL     1      -1.419   9.758  17.416  0.00  0.00    +0.000 A 
BRANCH  25  28
ATOM     28  C   UNL     1      -4.915  10.894  18.064  0.00  0.00    +0.000 C 
ATOM     29  N   UNL     1      -6.078  10.936  18.040  0.00  0.00    +0.000 NA
ENDBRANCH  25  28
ENDBRANCH  21  22
ENDBRANCH   4  21
TORSDOF 6
ENDMDL
MODEL 8
REMARK VINA RESULT:      -8.3      1.659      3.750
REMARK  Name = 
REMARK  9 active torsions:
REMARK  status: ('A' for Active; 'I' for Inactive)
REMARK    1  A    between atoms: C_1  and  C_2
REMARK    2  A    between atoms: N_4  and  C_5
REMARK    3  A    between atoms: C_5  and  C_6
REMARK    4  A    between atoms: C_9  and  O_10
REMARK    5  A    between atoms: O_10  and  C_11
REMARK    6  A    between atoms: C_14  and  C_15
REMARK    7  A    between atoms: C_21  and  C_23
REMARK    8  A    between atoms: C_25  and  C_26
REMARK    9  A    between atoms: N_28  and  C_29
REMARK                            x       y       z     vdW  Elec       q    Type
REMARK                         _______ _______ _______ _____ _____    ______ ____
ROOT
ATOM      1  C   UNL     1       2.297   6.231  18.696  0.00  0.00    +0.000 A 
ATOM      2  C   UNL     1       2.551   7.121  17.637  0.00  0.00    +0.000 A 
ATOM      3  C   UNL     1       2.290   8.485  17.777  0.00  0.00    +0.000 A 
ATOM      4  C   UNL     1       1.773   8.973  18.976  0.00  0.00    +0.000 A 
ATOM      5  C   UNL     1       1.648   8.118  20.075  0.00  0.00    +0.000 A 
ATOM      6  C   UNL     1       1.885   6.748  19.930  0.00  0.00    +0.000 A 
ENDROOT
BRANCH   1   7
ATOM      7  C   UNL     1       2.344   4.741  18.453  0.00  0.00    +0.000 C 
BRANCH   7  11
ATOM      8  C   UNL     1       2.962   2.488  21.527  0.00  0.00    +0.000 C 
ATOM      9  C   UNL     1       2.290   3.400  20.521  0.00  0.00    +0.000 C 
ATOM     10  O   UNL     1       1.138   3.753  20.784  0.00  0.00    +0.000 OA
ATOM     11  N   UNL     1       2.982   3.788  19.361  0.00  0.00    +0.000 N 
ATOM     12  C   UNL     1       4.320   3.387  19.094  0.00  0.00    +0.000 C 
ATOM     13  O   UNL     1       4.841   2.494  19.764  0.00  0.00    +0.000 OA
BRANCH  12  14
ATOM     14  C   UNL     1       5.102   3.943  17.980  0.00  0.00    +0.000 A 
ATOM     15  C   UNL     1       5.060   3.837  16.593  0.00  0.00    +0.000 A 
ATOM     16  C   UNL     1       6.183   4.540  16.098  0.00  0.00    +0.000 A 
ATOM     17  C   UNL     1       6.667   4.647  14.700  0.00  0.00    +0.000 C 
ATOM     18  N   UNL     1       6.836   5.149  17.081  0.00  0.00    +0.000 NA
ATOM     19  N   UNL     1       6.135   4.849  18.187  0.00  0.00    +0.000 N 
ATOM     20  C   UNL     1       6.533   5.468  19.436  0.00  0.00    +0.000 C 
ENDBRANCH  12  14
ENDBRANCH   7  11
ENDBRANCH   1   7
BRANCH   4  21
ATOM     21  O   UNL     1       1.448  10.309  19.003  0.00  0.00    +0.000 OA
BRANCH  21  22
ATOM     22  C   UNL     1       0.123  10.690  18.977  0.00  0.00    +0.000 A 
ATOM     23  C   UNL     1      -0.649  10.113  17.966  0.00  0.00    +0.000 A 
ATOM     24  C   UNL     1      -1.998  10.455  17.822  0.00  0.00    +0.000 A 
ATOM     25  C   UNL     1      -2.583  11.380  18.696  0.00  0.00    +0.000 A 
ATOM     26  C   UNL     1      -1.824  11.924  19.735  0.00  0.00    +0.000 A 
ATOM     27  C   UNL     1      -0.484  11.557  19.893  0.00  0.00    +0.000 A 
BRANCH  25  28
ATOM     28  C   UNL     1      -3.952  11.764  18.530  0.00  0.00    +0.000 C 
ATOM     29  N   UNL     1      -5.066  12.068  18.384  0.00  0.00    +0.000 NA
ENDBRANCH  25  28
ENDBRANCH  21  22
ENDBRANCH   4  21
TORSDOF 6
ENDMDL
MODEL 9
REMARK VINA RESULT:      -8.1      0.572      1.389
REMARK  Name = 
REMARK  9 active torsions:
REMARK  status: ('A' for Active; 'I' for Inactive)
REMARK    1  A    between atoms: C_1  and  C_2
REMARK    2  A    between atoms: N_4  and  C_5
REMARK    3  A    between atoms: C_5  and  C_6
REMARK    4  A    between atoms: C_9  and  O_10
REMARK    5  A    between atoms: O_10  and  C_11
REMARK    6  A    between atoms: C_14  and  C_15
REMARK    7  A    between atoms: C_21  and  C_23
REMARK    8  A    between atoms: C_25  and  C_26
REMARK    9  A    between atoms: N_28  and  C_29
REMARK                            x       y       z     vdW  Elec       q    Type
REMARK                         _______ _______ _______ _____ _____    ______ ____
ROOT
ATOM      1  C   UNL     1       2.768   7.252  18.101  0.00  0.00    +0.000 A 
ATOM      2  C   UNL     1       2.213   7.180  19.392  0.00  0.00    +0.000 A 
ATOM      3  C   UNL     1       1.542   8.275  19.938  0.00  0.00    +0.000 A 
ATOM      4  C   UNL     1       1.419   9.452  19.202  0.00  0.00    +0.000 A 
ATOM      5  C   UNL     1       1.845   9.483  17.871  0.00  0.00    +0.000 A 
ATOM      6  C   UNL     1       2.539   8.397  17.330  0.00  0.00    +0.000 A 
ENDROOT
BRANCH   1   7
ATOM      7  C   UNL     1       3.698   6.163  17.621  0.00  0.00    +0.000 C 
BRANCH   7  11
ATOM      8  C   UNL     1       7.527   6.263  18.106  0.00  0.00    +0.000 C 
ATOM      9  C   UNL     1       6.130   6.568  17.606  0.00  0.00    +0.000 C 
ATOM     10  O   UNL     1       6.040   7.399  16.698  0.00  0.00    +0.000 OA
ATOM     11  N   UNL     1       5.026   5.919  18.184  0.00  0.00    +0.000 N 
ATOM     12  C   UNL     1       5.158   4.946  19.213  0.00  0.00    +0.000 C 
ATOM     13  O   UNL     1       6.235   4.806  19.793  0.00  0.00    +0.000 OA
BRANCH  12  14
ATOM     14  C   UNL     1       4.025   4.136  19.683  0.00  0.00    +0.000 A 
ATOM     15  C   UNL     1       3.128   4.213  20.744  0.00  0.00    +0.000 A 
ATOM     16  C   UNL     1       2.341   3.039  20.696  0.00  0.00    +0.000 A 
ATOM     17  C   UNL     1       1.314   2.571  21.658  0.00  0.00    +0.000 C 
ATOM     18  N   UNL     1       2.629   2.315  19.620  0.00  0.00    +0.000 NA
ATOM     19  N   UNL     1       3.579   3.021  18.984  0.00  0.00    +0.000 N 
ATOM     20  C   UNL     1       4.031   2.545  17.692  0.00  0.00    +0.000 C 
ENDBRANCH  12  14
ENDBRANCH   7  11
ENDBRANCH   1   7
BRANCH   4  21
ATOM     21  O   UNL     1       0.835  10.518  19.846  0.00  0.00    +0.000 OA
BRANCH  21  22
ATOM     22  C   UNL     1      -0.449  10.896  19.514  0.00  0.00    +0.000 A 
ATOM     23  C   UNL     1      -1.076  10.110  18.544  0.00  0.00    +0.000 A 
ATOM     24  C   UNL     1      -2.366  10.423  18.102  0.00  0.00    +0.000 A 
ATOM     25  C   UNL     1      -3.038  11.530  18.636  0.00  0.00    +0.000 A 
ATOM     26  C   UNL     1      -2.431  12.290  19.639  0.00  0.00    +0.000 A 
ATOM     27  C   UNL     1      -1.153  11.955  20.097  0.00  0.00    +0.000 A 
BRANCH  25  28
ATOM     28  C   UNL     1      -4.343  11.879  18.161  0.00  0.00    +0.000 C 
ATOM     29  N   UNL     1      -5.408  12.150  17.777  0.00  0.00    +0.000 NA
ENDBRANCH  25  28
ENDBRANCH  21  22
ENDBRANCH   4  21
TORSDOF 6
ENDMDL
