MODEL 1
REMARK VINA RESULT:      -4.7      0.000      0.000
REMARK  Name = 
REMARK  0 active torsions:
REMARK  status: ('A' for Active; 'I' for Inactive)
REMARK                            x       y       z     vdW  Elec       q    Type
REMARK                         _______ _______ _______ _____ _____    ______ ____
ROOT
ATOM      1  O   UNL     1       7.671   5.340  14.372  0.00  0.00    +0.000 OA
ATOM      2  C   UNL     1       7.063   4.944  15.346  0.00  0.00    +0.000 C 
ATOM      3  C   UNL     1       5.651   4.561  15.348  0.00  0.00    +0.000 C 
ATOM      4  C   UNL     1       5.321   4.273  16.608  0.00  0.00    +0.000 C 
ATOM      5 BR   UNL     1       3.693   3.746  17.258  0.00  0.00    +0.000 Br
ATOM      6  C   UNL     1       6.519   4.471  17.445  0.00  0.00    +0.000 C 
ATOM      7  O   UNL     1       6.585   4.385  18.657  0.00  0.00    +0.000 OA
ATOM      8  N   UNL     1       7.524   4.803  16.604  0.00  0.00    +0.000 N 
ATOM      9  H   UNL     1       8.456   5.042  16.900  0.00  0.00    +0.000 HD
ENDROOT
TORSDOF 0
ENDMDL
MODEL 2
REMARK VINA RESULT:      -4.6      2.306      3.544
REMARK  Name = 
REMARK  0 active torsions:
REMARK  status: ('A' for Active; 'I' for Inactive)
REMARK                            x       y       z     vdW  Elec       q    Type
REMARK                         _______ _______ _______ _____ _____    ______ ____
ROOT
ATOM      1  O   UNL     1       6.710   4.511  17.207  0.00  0.00    +0.000 OA
ATOM      2  C   UNL     1       6.749   4.580  15.996  0.00  0.00    +0.000 C 
ATOM      3  C   UNL     1       5.988   3.721  15.086  0.00  0.00    +0.000 C 
ATOM      4  C   UNL     1       6.363   4.031  13.844  0.00  0.00    +0.000 C 
ATOM      5 BR   UNL     1       5.781   3.296  12.271  0.00  0.00    +0.000 Br
ATOM      6  C   UNL     1       7.379   5.096  13.930  0.00  0.00    +0.000 C 
ATOM      7  O   UNL     1       8.012   5.578  13.009  0.00  0.00    +0.000 OA
ATOM      8  N   UNL     1       7.498   5.408  15.240  0.00  0.00    +0.000 N 
ATOM      9  H   UNL     1       8.156   6.075  15.607  0.00  0.00    +0.000 HD
ENDROOT
TORSDOF 0
ENDMDL
MODEL 3
REMARK VINA RESULT:      -4.5      2.120      3.181
REMARK  Name = 
REMARK  0 active torsions:
REMARK  status: ('A' for Active; 'I' for Inactive)
REMARK                            x       y       z     vdW  Elec       q    Type
REMARK                         _______ _______ _______ _____ _____    ______ ____
ROOT
ATOM      1  O   UNL     1       4.282   3.975  19.404  0.00  0.00    +0.000 OA
ATOM      2  C   UNL     1       5.045   4.137  18.474  0.00  0.00    +0.000 C 
ATOM      3  C   UNL     1       4.645   4.189  17.067  0.00  0.00    +0.000 C 
ATOM      4  C   UNL     1       5.761   4.283  16.342  0.00  0.00    +0.000 C 
ATOM      5 BR   UNL     1       5.921   4.371  14.520  0.00  0.00    +0.000 Br
ATOM      6  C   UNL     1       6.905   4.289  17.272  0.00  0.00    +0.000 C 
ATOM      7  O   UNL     1       8.085   4.281  16.977  0.00  0.00    +0.000 OA
ATOM      8  N   UNL     1       6.385   4.267  18.520  0.00  0.00    +0.000 N 
ATOM      9  H   UNL     1       6.934   4.219  19.362  0.00  0.00    +0.000 HD
ENDROOT
TORSDOF 0
ENDMDL
MODEL 4
REMARK VINA RESULT:      -4.5      1.160      1.160
REMARK  Name = 
REMARK  0 active torsions:
REMARK  status: ('A' for Active; 'I' for Inactive)
REMARK                            x       y       z     vdW  Elec       q    Type
REMARK                         _______ _______ _______ _____ _____    ______ ____
ROOT
ATOM      1  O   UNL     1       7.079   5.199  14.031  0.00  0.00    +0.000 OA
ATOM      2  C   UNL     1       6.889   5.040  15.219  0.00  0.00    +0.000 C 
ATOM      3  C   UNL     1       5.643   5.366  15.915  0.00  0.00    +0.000 C 
ATOM      4  C   UNL     1       5.846   5.144  17.215  0.00  0.00    +0.000 C 
ATOM      5 BR   UNL     1       4.671   5.380  18.599  0.00  0.00    +0.000 Br
ATOM      6  C   UNL     1       7.234   4.674  17.382  0.00  0.00    +0.000 C 
ATOM      7  O   UNL     1       7.807   4.448  18.431  0.00  0.00    +0.000 OA
ATOM      8  N   UNL     1       7.758   4.577  16.139  0.00  0.00    +0.000 N 
ATOM      9  H   UNL     1       8.712   4.321  15.944  0.00  0.00    +0.000 HD
ENDROOT
TORSDOF 0
ENDMDL
MODEL 5
REMARK VINA RESULT:      -4.5      2.744      2.933
REMARK  Name = 
REMARK  0 active torsions:
REMARK  status: ('A' for Active; 'I' for Inactive)
REMARK                            x       y       z     vdW  Elec       q    Type
REMARK                         _______ _______ _______ _____ _____    ______ ____
ROOT
ATOM      1  O   UNL     1       6.297   3.665  15.769  0.00  0.00    +0.000 OA
ATOM      2  C   UNL     1       6.687   4.467  16.593  0.00  0.00    +0.000 C 
ATOM      3  C   UNL     1       6.868   5.898  16.344  0.00  0.00    +0.000 C 
ATOM      4  C   UNL     1       7.394   6.428  17.450  0.00  0.00    +0.000 C 
ATOM      5 BR   UNL     1       7.864   8.171  17.755  0.00  0.00    +0.000 Br
ATOM      6  C   UNL     1       7.565   5.343  18.434  0.00  0.00    +0.000 C 
ATOM      7  O   UNL     1       8.090   5.427  19.529  0.00  0.00    +0.000 OA
ATOM      8  N   UNL     1       7.057   4.226  17.867  0.00  0.00    +0.000 N 
ATOM      9  H   UNL     1       7.077   3.314  18.292  0.00  0.00    +0.000 HD
ENDROOT
TORSDOF 0
ENDMDL
MODEL 6
REMARK VINA RESULT:      -4.5      3.396      3.739
REMARK  Name = 
REMARK  0 active torsions:
REMARK  status: ('A' for Active; 'I' for Inactive)
REMARK                            x       y       z     vdW  Elec       q    Type
REMARK                         _______ _______ _______ _____ _____    ______ ____
ROOT
ATOM      1  O   UNL     1       6.454   5.246  19.676  0.00  0.00    +0.000 OA
ATOM      2  C   UNL     1       5.502   4.623  19.255  0.00  0.00    +0.000 C 
ATOM      3  C   UNL     1       4.272   5.228  18.740  0.00  0.00    +0.000 C 
ATOM      4  C   UNL     1       3.428   4.233  18.462  0.00  0.00    +0.000 C 
ATOM      5 BR   UNL     1       1.724   4.347  17.802  0.00  0.00    +0.000 Br
ATOM      6  C   UNL     1       4.099   2.963  18.798  0.00  0.00    +0.000 C 
ATOM      7  O   UNL     1       3.615   1.848  18.757  0.00  0.00    +0.000 OA
ATOM      8  N   UNL     1       5.350   3.285  19.197  0.00  0.00    +0.000 N 
ATOM      9  H   UNL     1       6.027   2.620  19.533  0.00  0.00    +0.000 HD
ENDROOT
TORSDOF 0
ENDMDL
MODEL 7
REMARK VINA RESULT:      -4.4      5.161      6.428
REMARK  Name = 
REMARK  0 active torsions:
REMARK  status: ('A' for Active; 'I' for Inactive)
REMARK                            x       y       z     vdW  Elec       q    Type
REMARK                         _______ _______ _______ _____ _____    ______ ____
ROOT
ATOM      1  O   UNL     1       1.192   2.411  22.511  0.00  0.00    +0.000 OA
ATOM      2  C   UNL     1       1.749   2.775  21.496  0.00  0.00    +0.000 C 
ATOM      3  C   UNL     1       1.084   3.437  20.372  0.00  0.00    +0.000 C 
ATOM      4  C   UNL     1       1.995   3.596  19.411  0.00  0.00    +0.000 C 
ATOM      5 BR   UNL     1       1.774   4.347  17.756  0.00  0.00    +0.000 Br
ATOM      6  C   UNL     1       3.268   3.033  19.898  0.00  0.00    +0.000 C 
ATOM      7  O   UNL     1       4.305   2.922  19.271  0.00  0.00    +0.000 OA
ATOM      8  N   UNL     1       3.048   2.629  21.170  0.00  0.00    +0.000 N 
ATOM      9  H   UNL     1       3.730   2.161  21.742  0.00  0.00    +0.000 HD
ENDROOT
TORSDOF 0
ENDMDL
MODEL 8
REMARK VINA RESULT:      -4.4      1.286      1.286
REMARK  Name = 
REMARK  0 active torsions:
REMARK  status: ('A' for Active; 'I' for Inactive)
REMARK                            x       y       z     vdW  Elec       q    Type
REMARK                         _______ _______ _______ _____ _____    ______ ____
ROOT
ATOM      1  O   UNL     1       7.665   5.305  15.132  0.00  0.00    +0.000 OA
ATOM      2  C   UNL     1       6.878   5.143  16.041  0.00  0.00    +0.000 C 
ATOM      3  C   UNL     1       5.589   5.827  16.161  0.00  0.00    +0.000 C 
ATOM      4  C   UNL     1       5.056   5.464  17.329  0.00  0.00    +0.000 C 
ATOM      5 BR   UNL     1       3.462   5.994  18.057  0.00  0.00    +0.000 Br
ATOM      6  C   UNL     1       5.997   4.539  17.987  0.00  0.00    +0.000 C 
ATOM      7  O   UNL     1       5.893   4.063  19.102  0.00  0.00    +0.000 OA
ATOM      8  N   UNL     1       7.019   4.351  17.123  0.00  0.00    +0.000 N 
ATOM      9  H   UNL     1       7.837   3.800  17.322  0.00  0.00    +0.000 HD
ENDROOT
TORSDOF 0
ENDMDL
MODEL 9
REMARK VINA RESULT:      -4.4      3.762      4.338
REMARK  Name = 
REMARK  0 active torsions:
REMARK  status: ('A' for Active; 'I' for Inactive)
REMARK                            x       y       z     vdW  Elec       q    Type
REMARK                         _______ _______ _______ _____ _____    ______ ____
ROOT
ATOM      1  O   UNL     1       4.391   4.041  17.183  0.00  0.00    +0.000 OA
ATOM      2  C   UNL     1       4.143   3.494  18.238  0.00  0.00    +0.000 C 
ATOM      3  C   UNL     1       2.865   3.586  18.945  0.00  0.00    +0.000 C 
ATOM      4  C   UNL     1       3.004   2.935  20.101  0.00  0.00    +0.000 C 
ATOM      5 BR   UNL     1       1.763   2.709  21.428  0.00  0.00    +0.000 Br
ATOM      6  C   UNL     1       4.382   2.412  20.162  0.00  0.00    +0.000 C 
ATOM      7  O   UNL     1       4.903   1.836  21.098  0.00  0.00    +0.000 OA
ATOM      8  N   UNL     1       4.966   2.732  18.985  0.00  0.00    +0.000 N 
ATOM      9  H   UNL     1       5.928   2.541  18.759  0.00  0.00    +0.000 HD
ENDROOT
TORSDOF 0
ENDMDL
