MODEL 1
REMARK VINA RESULT:      -6.3      0.000      0.000
REMARK  Name = 
REMARK  6 active torsions:
REMARK  status: ('A' for Active; 'I' for Inactive)
REMARK    1  A    between atoms: C_1  and  C_2
REMARK    2  A    between atoms: C_2  and  C_3
REMARK    3  A    between atoms: C_3  and  C_4
REMARK    4  A    between atoms: C_4  and  O_5
REMARK    5  A    between atoms: O_5  and  C_6
REMARK    6  A    between atoms: C_9  and  C_10
REMARK                            x       y       z     vdW  Elec       q    Type
REMARK                         _______ _______ _______ _____ _____    ______ ____
ROOT
ATOM      1  C   UNL     1       2.266   3.944  17.806  0.00  0.00    +0.000 A 
ATOM      2  C   UNL     1       2.262   5.335  17.910  0.00  0.00    +0.000 A 
ATOM      3  C   UNL     1       3.455   6.055  17.887  0.00  0.00    +0.000 A 
ATOM      4  C   UNL     1       4.688   5.406  17.761  0.00  0.00    +0.000 A 
ATOM      5  C   UNL     1       4.692   4.006  17.675  0.00  0.00    +0.000 A 
ATOM      6  C   UNL     1       3.489   3.282  17.697  0.00  0.00    +0.000 A 
ENDROOT
BRANCH   4   7
ATOM      7  C   UNL     1       5.907   6.200  17.714  0.00  0.00    +0.000 A 
ATOM      8  C   UNL     1       6.337   7.285  16.978  0.00  0.00    +0.000 A 
ATOM      9  N   UNL     1       7.614   7.631  17.336  0.00  0.00    +0.000 NA
ATOM     10  C   UNL     1       7.912   6.754  18.266  0.00  0.00    +0.000 A 
ATOM     11  O   UNL     1       6.932   5.855  18.556  0.00  0.00    +0.000 OA
ENDBRANCH   4   7
BRANCH   1  12
ATOM     12  O   UNL     1       1.143   3.153  17.798  0.00  0.00    +0.000 OA
BRANCH  12  13
ATOM     13  C   UNL     1       0.928   2.420  19.006  0.00  0.00    +0.000 C 
BRANCH  13  14
ATOM     14  C   UNL     1       0.741   3.355  20.192  0.00  0.00    +0.000 C 
BRANCH  14  16
ATOM     15  C   UNL     1       2.928   2.668  21.257  0.00  0.00    +0.000 C 
ATOM     16  C   UNL     1       1.424   2.759  21.424  0.00  0.00    +0.000 C 
ENDBRANCH  14  16
ENDBRANCH  13  14
ENDBRANCH  12  13
ENDBRANCH   1  12
TORSDOF 5
ENDMDL
MODEL 2
REMARK VINA RESULT:      -6.1      1.389      1.651
REMARK  Name = 
REMARK  6 active torsions:
REMARK  status: ('A' for Active; 'I' for Inactive)
REMARK    1  A    between atoms: C_1  and  C_2
REMARK    2  A    between atoms: C_2  and  C_3
REMARK    3  A    between atoms: C_3  and  C_4
REMARK    4  A    between atoms: C_4  and  O_5
REMARK    5  A    between atoms: O_5  and  C_6
REMARK    6  A    between atoms: C_9  and  C_10
REMARK                            x       y       z     vdW  Elec       q    Type
REMARK                         _______ _______ _______ _____ _____    ______ ____
ROOT
ATOM      1  C   UNL     1       3.596   2.880  17.929  0.00  0.00    +0.000 A 
ATOM      2  C   UNL     1       3.802   3.748  16.857  0.00  0.00    +0.000 A 
ATOM      3  C   UNL     1       4.768   4.751  16.927  0.00  0.00    +0.000 A 
ATOM      4  C   UNL     1       5.555   4.917  18.071  0.00  0.00    +0.000 A 
ATOM      5  C   UNL     1       5.334   4.055  19.156  0.00  0.00    +0.000 A 
ATOM      6  C   UNL     1       4.362   3.045  19.084  0.00  0.00    +0.000 A 
ENDROOT
BRANCH   4   7
ATOM      7  C   UNL     1       6.570   5.960  18.090  0.00  0.00    +0.000 A 
ATOM      8  C   UNL     1       7.706   6.203  18.834  0.00  0.00    +0.000 A 
ATOM      9  N   UNL     1       8.300   7.373  18.434  0.00  0.00    +0.000 NA
ATOM     10  C   UNL     1       7.511   7.794  17.473  0.00  0.00    +0.000 A 
ATOM     11  O   UNL     1       6.443   6.996  17.201  0.00  0.00    +0.000 OA
ENDBRANCH   4   7
BRANCH   1  12
ATOM     12  O   UNL     1       2.686   1.851  17.945  0.00  0.00    +0.000 OA
BRANCH  12  13
ATOM     13  C   UNL     1       1.783   1.879  19.054  0.00  0.00    +0.000 C 
BRANCH  13  14
ATOM     14  C   UNL     1       1.048   3.209  19.133  0.00  0.00    +0.000 C 
BRANCH  14  16
ATOM     15  C   UNL     1       1.672   2.707  21.531  0.00  0.00    +0.000 C 
ATOM     16  C   UNL     1       1.076   3.721  20.574  0.00  0.00    +0.000 C 
ENDBRANCH  14  16
ENDBRANCH  13  14
ENDBRANCH  12  13
ENDBRANCH   1  12
TORSDOF 5
ENDMDL
MODEL 3
REMARK VINA RESULT:      -6.1      3.081      3.555
REMARK  Name = 
REMARK  6 active torsions:
REMARK  status: ('A' for Active; 'I' for Inactive)
REMARK    1  A    between atoms: C_1  and  C_2
REMARK    2  A    between atoms: C_2  and  C_3
REMARK    3  A    between atoms: C_3  and  C_4
REMARK    4  A    between atoms: C_4  and  O_5
REMARK    5  A    between atoms: O_5  and  C_6
REMARK    6  A    between atoms: C_9  and  C_10
REMARK                            x       y       z     vdW  Elec       q    Type
REMARK                         _______ _______ _______ _____ _____    ______ ____
ROOT
ATOM      1  C   UNL     1       4.247   5.676  18.033  0.00  0.00    +0.000 A 
ATOM      2  C   UNL     1       4.635   6.653  17.117  0.00  0.00    +0.000 A 
ATOM      3  C   UNL     1       5.255   6.300  15.918  0.00  0.00    +0.000 A 
ATOM      4  C   UNL     1       5.507   4.961  15.603  0.00  0.00    +0.000 A 
ATOM      5  C   UNL     1       5.132   3.981  16.533  0.00  0.00    +0.000 A 
ATOM      6  C   UNL     1       4.507   4.337  17.739  0.00  0.00    +0.000 A 
ENDROOT
BRANCH   4   7
ATOM      7  C   UNL     1       6.131   4.638  14.328  0.00  0.00    +0.000 A 
ATOM      8  C   UNL     1       5.886   3.721  13.326  0.00  0.00    +0.000 A 
ATOM      9  N   UNL     1       6.820   3.841  12.329  0.00  0.00    +0.000 NA
ATOM     10  C   UNL     1       7.591   4.813  12.757  0.00  0.00    +0.000 A 
ATOM     11  O   UNL     1       7.241   5.351  13.957  0.00  0.00    +0.000 OA
ENDBRANCH   4   7
BRANCH   1  12
ATOM     12  O   UNL     1       3.613   5.925  19.226  0.00  0.00    +0.000 OA
BRANCH  12  13
ATOM     13  C   UNL     1       2.256   5.477  19.277  0.00  0.00    +0.000 C 
BRANCH  13  14
ATOM     14  C   UNL     1       1.892   4.977  20.668  0.00  0.00    +0.000 C 
BRANCH  14  16
ATOM     15  C   UNL     1       1.551   2.646  21.583  0.00  0.00    +0.000 C 
ATOM     16  C   UNL     1       1.114   3.665  20.549  0.00  0.00    +0.000 C 
ENDBRANCH  14  16
ENDBRANCH  13  14
ENDBRANCH  12  13
ENDBRANCH   1  12
TORSDOF 5
ENDMDL
MODEL 4
REMARK VINA RESULT:      -6.0      1.345      1.674
REMARK  Name = 
REMARK  6 active torsions:
REMARK  status: ('A' for Active; 'I' for Inactive)
REMARK    1  A    between atoms: C_1  and  C_2
REMARK    2  A    between atoms: C_2  and  C_3
REMARK    3  A    between atoms: C_3  and  C_4
REMARK    4  A    between atoms: C_4  and  O_5
REMARK    5  A    between atoms: O_5  and  C_6
REMARK    6  A    between atoms: C_9  and  C_10
REMARK                            x       y       z     vdW  Elec       q    Type
REMARK                         _______ _______ _______ _____ _____    ______ ____
ROOT
ATOM      1  C   UNL     1       3.589   2.824  18.231  0.00  0.00    +0.000 A 
ATOM      2  C   UNL     1       4.510   3.113  19.237  0.00  0.00    +0.000 A 
ATOM      3  C   UNL     1       5.407   4.172  19.099  0.00  0.00    +0.000 A 
ATOM      4  C   UNL     1       5.411   4.970  17.951  0.00  0.00    +0.000 A 
ATOM      5  C   UNL     1       4.496   4.667  16.932  0.00  0.00    +0.000 A 
ATOM      6  C   UNL     1       3.592   3.602  17.072  0.00  0.00    +0.000 A 
ENDROOT
BRANCH   4   7
ATOM      7  C   UNL     1       6.348   6.081  17.862  0.00  0.00    +0.000 A 
ATOM      8  C   UNL     1       6.437   7.223  17.093  0.00  0.00    +0.000 A 
ATOM      9  N   UNL     1       7.563   7.934  17.419  0.00  0.00    +0.000 NA
ATOM     10  C   UNL     1       8.112   7.206  18.363  0.00  0.00    +0.000 A 
ATOM     11  O   UNL     1       7.438   6.071  18.693  0.00  0.00    +0.000 OA
ENDBRANCH   4   7
BRANCH   1  12
ATOM     12  O   UNL     1       2.654   1.819  18.285  0.00  0.00    +0.000 OA
BRANCH  12  13
ATOM     13  C   UNL     1       1.651   2.000  19.288  0.00  0.00    +0.000 C 
BRANCH  13  14
ATOM     14  C   UNL     1       1.049   3.396  19.219  0.00  0.00    +0.000 C 
BRANCH  14  16
ATOM     15  C   UNL     1       1.830   5.412  20.530  0.00  0.00    +0.000 C 
ATOM     16  C   UNL     1       1.147   4.060  20.594  0.00  0.00    +0.000 C 
ENDBRANCH  14  16
ENDBRANCH  13  14
ENDBRANCH  12  13
ENDBRANCH   1  12
TORSDOF 5
ENDMDL
MODEL 5
REMARK VINA RESULT:      -6.0      3.067      3.693
REMARK  Name = 
REMARK  6 active torsions:
REMARK  status: ('A' for Active; 'I' for Inactive)
REMARK    1  A    between atoms: C_1  and  C_2
REMARK    2  A    between atoms: C_2  and  C_3
REMARK    3  A    between atoms: C_3  and  C_4
REMARK    4  A    between atoms: C_4  and  O_5
REMARK    5  A    between atoms: O_5  and  C_6
REMARK    6  A    between atoms: C_9  and  C_10
REMARK                            x       y       z     vdW  Elec       q    Type
REMARK                         _______ _______ _______ _____ _____    ______ ____
ROOT
ATOM      1  C   UNL     1       4.370   5.060  18.162  0.00  0.00    +0.000 A 
ATOM      2  C   UNL     1       4.481   3.813  17.549  0.00  0.00    +0.000 A 
ATOM      3  C   UNL     1       5.082   3.684  16.298  0.00  0.00    +0.000 A 
ATOM      4  C   UNL     1       5.587   4.798  15.621  0.00  0.00    +0.000 A 
ATOM      5  C   UNL     1       5.459   6.056  16.231  0.00  0.00    +0.000 A 
ATOM      6  C   UNL     1       4.855   6.184  17.492  0.00  0.00    +0.000 A 
ENDROOT
BRANCH   4   7
ATOM      7  C   UNL     1       6.231   4.613  14.329  0.00  0.00    +0.000 A 
ATOM      8  C   UNL     1       6.042   3.763  13.258  0.00  0.00    +0.000 A 
ATOM      9  N   UNL     1       6.968   4.017  12.278  0.00  0.00    +0.000 NA
ATOM     10  C   UNL     1       7.677   4.998  12.783  0.00  0.00    +0.000 A 
ATOM     11  O   UNL     1       7.294   5.420  14.019  0.00  0.00    +0.000 OA
ENDBRANCH   4   7
BRANCH   1  12
ATOM     12  O   UNL     1       3.816   5.283  19.399  0.00  0.00    +0.000 OA
BRANCH  12  13
ATOM     13  C   UNL     1       2.493   5.824  19.364  0.00  0.00    +0.000 C 
BRANCH  13  14
ATOM     14  C   UNL     1       1.689   5.395  20.583  0.00  0.00    +0.000 C 
BRANCH  14  16
ATOM     15  C   UNL     1       1.756   3.037  21.494  0.00  0.00    +0.000 C 
ATOM     16  C   UNL     1       1.226   3.948  20.403  0.00  0.00    +0.000 C 
ENDBRANCH  14  16
ENDBRANCH  13  14
ENDBRANCH  12  13
ENDBRANCH   1  12
TORSDOF 5
ENDMDL
MODEL 6
REMARK VINA RESULT:      -6.0      2.254      2.670
REMARK  Name = 
REMARK  6 active torsions:
REMARK  status: ('A' for Active; 'I' for Inactive)
REMARK    1  A    between atoms: C_1  and  C_2
REMARK    2  A    between atoms: C_2  and  C_3
REMARK    3  A    between atoms: C_3  and  C_4
REMARK    4  A    between atoms: C_4  and  O_5
REMARK    5  A    between atoms: O_5  and  C_6
REMARK    6  A    between atoms: C_9  and  C_10
REMARK                            x       y       z     vdW  Elec       q    Type
REMARK                         _______ _______ _______ _____ _____    ______ ____
ROOT
ATOM      1  C   UNL     1       3.229   5.325  19.670  0.00  0.00    +0.000 A 
ATOM      2  C   UNL     1       3.026   6.090  18.522  0.00  0.00    +0.000 A 
ATOM      3  C   UNL     1       3.897   5.994  17.437  0.00  0.00    +0.000 A 
ATOM      4  C   UNL     1       4.998   5.132  17.470  0.00  0.00    +0.000 A 
ATOM      5  C   UNL     1       5.212   4.376  18.633  0.00  0.00    +0.000 A 
ATOM      6  C   UNL     1       4.333   4.473  19.723  0.00  0.00    +0.000 A 
ENDROOT
BRANCH   4   7
ATOM      7  C   UNL     1       5.866   5.044  16.305  0.00  0.00    +0.000 A 
ATOM      8  C   UNL     1       7.099   5.563  15.964  0.00  0.00    +0.000 A 
ATOM      9  N   UNL     1       7.453   5.165  14.701  0.00  0.00    +0.000 NA
ATOM     10  C   UNL     1       6.435   4.429  14.323  0.00  0.00    +0.000 A 
ATOM     11  O   UNL     1       5.434   4.303  15.236  0.00  0.00    +0.000 OA
ENDBRANCH   4   7
BRANCH   1  12
ATOM     12  O   UNL     1       2.415   5.336  20.776  0.00  0.00    +0.000 OA
BRANCH  12  13
ATOM     13  C   UNL     1       2.079   4.038  21.273  0.00  0.00    +0.000 C 
BRANCH  13  14
ATOM     14  C   UNL     1       0.926   3.429  20.488  0.00  0.00    +0.000 C 
BRANCH  14  16
ATOM     15  C   UNL     1       1.621   2.433  18.271  0.00  0.00    +0.000 C 
ATOM     16  C   UNL     1       1.415   2.180  19.751  0.00  0.00    +0.000 C 
ENDBRANCH  14  16
ENDBRANCH  13  14
ENDBRANCH  12  13
ENDBRANCH   1  12
TORSDOF 5
ENDMDL
MODEL 7
REMARK VINA RESULT:      -6.0      2.027      2.375
REMARK  Name = 
REMARK  6 active torsions:
REMARK  status: ('A' for Active; 'I' for Inactive)
REMARK    1  A    between atoms: C_1  and  C_2
REMARK    2  A    between atoms: C_2  and  C_3
REMARK    3  A    between atoms: C_3  and  C_4
REMARK    4  A    between atoms: C_4  and  O_5
REMARK    5  A    between atoms: O_5  and  C_6
REMARK    6  A    between atoms: C_9  and  C_10
REMARK                            x       y       z     vdW  Elec       q    Type
REMARK                         _______ _______ _______ _____ _____    ______ ____
ROOT
ATOM      1  C   UNL     1       2.175   2.777  18.211  0.00  0.00    +0.000 A 
ATOM      2  C   UNL     1       2.217   4.076  17.707  0.00  0.00    +0.000 A 
ATOM      3  C   UNL     1       3.352   4.550  17.051  0.00  0.00    +0.000 A 
ATOM      4  C   UNL     1       4.479   3.740  16.882  0.00  0.00    +0.000 A 
ATOM      5  C   UNL     1       4.443   2.439  17.405  0.00  0.00    +0.000 A 
ATOM      6  C   UNL     1       3.298   1.962  18.064  0.00  0.00    +0.000 A 
ENDROOT
BRANCH   4   7
ATOM      7  C   UNL     1       5.632   4.268  16.167  0.00  0.00    +0.000 A 
ATOM      8  C   UNL     1       6.823   4.860  16.536  0.00  0.00    +0.000 A 
ATOM      9  N   UNL     1       7.558   5.189  15.426  0.00  0.00    +0.000 NA
ATOM     10  C   UNL     1       6.797   4.792  14.435  0.00  0.00    +0.000 A 
ATOM     11  O   UNL     1       5.615   4.221  14.797  0.00  0.00    +0.000 OA
ENDBRANCH   4   7
BRANCH   1  12
ATOM     12  O   UNL     1       1.096   2.215  18.850  0.00  0.00    +0.000 OA
BRANCH  12  13
ATOM     13  C   UNL     1       0.578   2.996  19.930  0.00  0.00    +0.000 C 
BRANCH  13  14
ATOM     14  C   UNL     1       1.372   2.764  21.208  0.00  0.00    +0.000 C 
BRANCH  14  16
ATOM     15  C   UNL     1       1.690   5.252  20.893  0.00  0.00    +0.000 C 
ATOM     16  C   UNL     1       2.263   3.977  21.481  0.00  0.00    +0.000 C 
ENDBRANCH  14  16
ENDBRANCH  13  14
ENDBRANCH  12  13
ENDBRANCH   1  12
TORSDOF 5
ENDMDL
MODEL 8
REMARK VINA RESULT:      -5.9      2.928      3.467
REMARK  Name = 
REMARK  6 active torsions:
REMARK  status: ('A' for Active; 'I' for Inactive)
REMARK    1  A    between atoms: C_1  and  C_2
REMARK    2  A    between atoms: C_2  and  C_3
REMARK    3  A    between atoms: C_3  and  C_4
REMARK    4  A    between atoms: C_4  and  O_5
REMARK    5  A    between atoms: O_5  and  C_6
REMARK    6  A    between atoms: C_9  and  C_10
REMARK                            x       y       z     vdW  Elec       q    Type
REMARK                         _______ _______ _______ _____ _____    ______ ____
ROOT
ATOM      1  C   UNL     1       4.680   4.241  18.458  0.00  0.00    +0.000 A 
ATOM      2  C   UNL     1       3.947   4.072  17.284  0.00  0.00    +0.000 A 
ATOM      3  C   UNL     1       4.563   4.180  16.038  0.00  0.00    +0.000 A 
ATOM      4  C   UNL     1       5.928   4.463  15.929  0.00  0.00    +0.000 A 
ATOM      5  C   UNL     1       6.661   4.650  17.111  0.00  0.00    +0.000 A 
ATOM      6  C   UNL     1       6.040   4.539  18.365  0.00  0.00    +0.000 A 
ENDROOT
BRANCH   4   7
ATOM      7  C   UNL     1       6.534   4.540  14.608  0.00  0.00    +0.000 A 
ATOM      8  C   UNL     1       6.293   3.943  13.387  0.00  0.00    +0.000 A 
ATOM      9  N   UNL     1       7.202   4.374  12.455  0.00  0.00    +0.000 NA
ATOM     10  C   UNL     1       7.955   5.206  13.135  0.00  0.00    +0.000 A 
ATOM     11  O   UNL     1       7.616   5.365  14.444  0.00  0.00    +0.000 OA
ENDBRANCH   4   7
BRANCH   1  12
ATOM     12  O   UNL     1       4.167   4.132  19.728  0.00  0.00    +0.000 OA
BRANCH  12  13
ATOM     13  C   UNL     1       3.627   2.845  20.038  0.00  0.00    +0.000 C 
BRANCH  13  14
ATOM     14  C   UNL     1       2.555   2.942  21.113  0.00  0.00    +0.000 C 
BRANCH  14  16
ATOM     15  C   UNL     1       0.945   2.709  19.178  0.00  0.00    +0.000 C 
ATOM     16  C   UNL     1       1.245   3.418  20.483  0.00  0.00    +0.000 C 
ENDBRANCH  14  16
ENDBRANCH  13  14
ENDBRANCH  12  13
ENDBRANCH   1  12
TORSDOF 5
ENDMDL
MODEL 9
REMARK VINA RESULT:      -5.9      2.667      3.134
REMARK  Name = 
REMARK  6 active torsions:
REMARK  status: ('A' for Active; 'I' for Inactive)
REMARK    1  A    between atoms: C_1  and  C_2
REMARK    2  A    between atoms: C_2  and  C_3
REMARK    3  A    between atoms: C_3  and  C_4
REMARK    4  A    between atoms: C_4  and  O_5
REMARK    5  A    between atoms: O_5  and  C_6
REMARK    6  A    between atoms: C_9  and  C_10
REMARK                            x       y       z     vdW  Elec       q    Type
REMARK                         _______ _______ _______ _____ _____    ______ ____
ROOT
ATOM      1  C   UNL     1       3.191   5.732  18.343  0.00  0.00    +0.000 A 
ATOM      2  C   UNL     1       3.332   4.435  17.851  0.00  0.00    +0.000 A 
ATOM      3  C   UNL     1       4.156   4.174  16.756  0.00  0.00    +0.000 A 
ATOM      4  C   UNL     1       4.861   5.202  16.121  0.00  0.00    +0.000 A 
ATOM      5  C   UNL     1       4.704   6.508  16.607  0.00  0.00    +0.000 A 
ATOM      6  C   UNL     1       3.875   6.770  17.710  0.00  0.00    +0.000 A 
ENDROOT
BRANCH   4   7
ATOM      7  C   UNL     1       5.730   4.879  15.000  0.00  0.00    +0.000 A 
ATOM      8  C   UNL     1       5.689   3.968  13.963  0.00  0.00    +0.000 A 
ATOM      9  N   UNL     1       6.807   4.085  13.179  0.00  0.00    +0.000 NA
ATOM     10  C   UNL     1       7.481   5.049  13.760  0.00  0.00    +0.000 A 
ATOM     11  O   UNL     1       6.897   5.585  14.866  0.00  0.00    +0.000 OA
ENDBRANCH   4   7
BRANCH   1  12
ATOM     12  O   UNL     1       2.422   6.082  19.427  0.00  0.00    +0.000 OA
BRANCH  12  13
ATOM     13  C   UNL     1       2.354   5.085  20.449  0.00  0.00    +0.000 C 
BRANCH  13  14
ATOM     14  C   UNL     1       1.006   4.379  20.440  0.00  0.00    +0.000 C 
BRANCH  14  16
ATOM     15  C   UNL     1       2.562   2.685  21.490  0.00  0.00    +0.000 C 
ATOM     16  C   UNL     1       1.187   2.931  20.900  0.00  0.00    +0.000 C 
ENDBRANCH  14  16
ENDBRANCH  13  14
ENDBRANCH  12  13
ENDBRANCH   1  12
TORSDOF 5
ENDMDL
