MODEL 1
REMARK VINA RESULT:      -7.3      0.000      0.000
REMARK  Name = 
REMARK  5 active torsions:
REMARK  status: ('A' for Active; 'I' for Inactive)
REMARK    1  A    between atoms: C_2  and  O_3
REMARK    2  A    between atoms: C_2  and  C_4
REMARK    3  A    between atoms: C_4  and  C_5
REMARK    4  A    between atoms: C_7  and  C_8
REMARK    5  A    between atoms: C_16  and  C_17
REMARK                            x       y       z     vdW  Elec       q    Type
REMARK                         _______ _______ _______ _____ _____    ______ ____
ROOT
ATOM      1  C   UNL     1       2.727   4.560  20.001  0.00  0.00    +0.000 A 
ATOM      2  S   UNL     1       3.501   3.324  19.087  0.00  0.00    +0.000 S 
ATOM      3  C   UNL     1       3.591   4.363  17.713  0.00  0.00    +0.000 A 
ATOM      4  N   UNL     1       3.085   5.565  17.917  0.00  0.00    +0.000 NA
ATOM      5  C   UNL     1       2.603   5.698  19.216  0.00  0.00    +0.000 A 
ENDROOT
BRANCH   3   6
ATOM      6  C   UNL     1       4.178   3.871  16.508  0.00  0.00    +0.000 C 
ATOM      7  C   UNL     1       5.315   4.368  16.010  0.00  0.00    +0.000 C 
ATOM      8  N   UNL     1       6.056   5.360  16.576  0.00  0.00    +0.000 N 
ATOM      9  C   UNL     1       7.154   5.830  15.904  0.00  0.00    +0.000 C 
ATOM     10  O   UNL     1       7.872   6.732  16.310  0.00  0.00    +0.000 OA
ATOM     11  C   UNL     1       7.343   5.103  14.587  0.00  0.00    +0.000 C 
ATOM     12  S   UNL     1       6.025   3.835  14.528  0.00  0.00    +0.000 S 
ATOM     13  H   UNL     1       5.782   5.766  17.466  0.00  0.00    +0.000 HD
ENDBRANCH   3   6
BRANCH   5  14
ATOM     14  C   UNL     1       2.027   6.968  19.667  0.00  0.00    +0.000 A 
ATOM     15  C   UNL     1       1.435   7.073  20.925  0.00  0.00    +0.000 A 
ATOM     16  C   UNL     1       0.888   8.297  21.316  0.00  0.00    +0.000 A 
ATOM     17  C   UNL     1       0.930   9.368  20.434  0.00  0.00    +0.000 A 
ATOM     18 BR   UNL     1       0.219  11.046  20.911  0.00  0.00    +0.000 Br
ATOM     19  C   UNL     1       1.514   9.177  19.193  0.00  0.00    +0.000 A 
ATOM     20  N   UNL     1       2.074   8.010  18.795  0.00  0.00    +0.000 NA
ENDBRANCH   5  14
BRANCH   1  21
ATOM     21  C   UNL     1       2.313   4.277  21.414  0.00  0.00    +0.000 C 
BRANCH  21  23
ATOM     22  O   UNL     1       1.420   2.203  22.328  0.00  0.00    +0.000 OA
ATOM     23  C   UNL     1       1.383   3.081  21.478  0.00  0.00    +0.000 C 
BRANCH  23  24
ATOM     24  O   UNL     1       0.419   3.096  20.525  0.00  0.00    +0.000 OA
ATOM     25  H   UNL     1      -0.284   3.757  20.668  0.00  0.00    +0.000 HD
ENDBRANCH  23  24
ENDBRANCH  21  23
ENDBRANCH   1  21
TORSDOF 5
ENDMDL
MODEL 2
REMARK VINA RESULT:      -7.3      0.568      1.004
REMARK  Name = 
REMARK  5 active torsions:
REMARK  status: ('A' for Active; 'I' for Inactive)
REMARK    1  A    between atoms: C_2  and  O_3
REMARK    2  A    between atoms: C_2  and  C_4
REMARK    3  A    between atoms: C_4  and  C_5
REMARK    4  A    between atoms: C_7  and  C_8
REMARK    5  A    between atoms: C_16  and  C_17
REMARK                            x       y       z     vdW  Elec       q    Type
REMARK                         _______ _______ _______ _____ _____    ______ ____
ROOT
ATOM      1  C   UNL     1       2.644   4.660  19.956  0.00  0.00    +0.000 A 
ATOM      2  S   UNL     1       3.420   3.399  19.080  0.00  0.00    +0.000 S 
ATOM      3  C   UNL     1       3.557   4.415  17.692  0.00  0.00    +0.000 A 
ATOM      4  N   UNL     1       3.065   5.628  17.866  0.00  0.00    +0.000 NA
ATOM      5  C   UNL     1       2.556   5.788  19.152  0.00  0.00    +0.000 A 
ENDROOT
BRANCH   3   6
ATOM      6  C   UNL     1       4.163   3.895  16.509  0.00  0.00    +0.000 C 
ATOM      7  C   UNL     1       5.311   4.378  16.021  0.00  0.00    +0.000 C 
ATOM      8  N   UNL     1       6.046   5.379  16.580  0.00  0.00    +0.000 N 
ATOM      9  C   UNL     1       7.158   5.831  15.918  0.00  0.00    +0.000 C 
ATOM     10  O   UNL     1       7.871   6.738  16.317  0.00  0.00    +0.000 OA
ATOM     11  C   UNL     1       7.367   5.075  14.620  0.00  0.00    +0.000 C 
ATOM     12  S   UNL     1       6.046   3.811  14.563  0.00  0.00    +0.000 S 
ATOM     13  H   UNL     1       5.757   5.805  17.455  0.00  0.00    +0.000 HD
ENDBRANCH   3   6
BRANCH   5  14
ATOM     14  C   UNL     1       1.989   7.073  19.570  0.00  0.00    +0.000 A 
ATOM     15  C   UNL     1       1.938   8.149  18.686  0.00  0.00    +0.000 A 
ATOM     16  C   UNL     1       1.399   9.361  19.124  0.00  0.00    +0.000 A 
ATOM     17  C   UNL     1       0.948   9.466  20.432  0.00  0.00    +0.000 A 
ATOM     18 BR   UNL     1       0.201  11.071  21.074  0.00  0.00    +0.000 Br
ATOM     19  C   UNL     1       1.055   8.358  21.256  0.00  0.00    +0.000 A 
ATOM     20  N   UNL     1       1.550   7.164  20.854  0.00  0.00    +0.000 NA
ENDBRANCH   5  14
BRANCH   1  21
ATOM     21  C   UNL     1       2.193   4.406  21.364  0.00  0.00    +0.000 C 
BRANCH  21  23
ATOM     22  O   UNL     1       1.555   2.241  22.281  0.00  0.00    +0.000 OA
ATOM     23  C   UNL     1       1.388   3.124  21.452  0.00  0.00    +0.000 C 
BRANCH  23  24
ATOM     24  O   UNL     1       0.375   3.060  20.552  0.00  0.00    +0.000 OA
ATOM     25  H   UNL     1       0.451   3.689  19.809  0.00  0.00    +0.000 HD
ENDBRANCH  23  24
ENDBRANCH  21  23
ENDBRANCH   1  21
TORSDOF 5
ENDMDL
MODEL 3
REMARK VINA RESULT:      -7.2      3.727      6.314
REMARK  Name = 
REMARK  5 active torsions:
REMARK  status: ('A' for Active; 'I' for Inactive)
REMARK    1  A    between atoms: C_2  and  O_3
REMARK    2  A    between atoms: C_2  and  C_4
REMARK    3  A    between atoms: C_4  and  C_5
REMARK    4  A    between atoms: C_7  and  C_8
REMARK    5  A    between atoms: C_16  and  C_17
REMARK                            x       y       z     vdW  Elec       q    Type
REMARK                         _______ _______ _______ _____ _____    ______ ____
ROOT
ATOM      1  C   UNL     1       3.501   4.071  19.678  0.00  0.00    +0.000 A 
ATOM      2  S   UNL     1       2.355   4.573  20.860  0.00  0.00    +0.000 S 
ATOM      3  C   UNL     1       2.321   6.161  20.186  0.00  0.00    +0.000 A 
ATOM      4  N   UNL     1       3.108   6.314  19.137  0.00  0.00    +0.000 NA
ATOM      5  C   UNL     1       3.773   5.132  18.826  0.00  0.00    +0.000 A 
ENDROOT
BRANCH   3   6
ATOM      6  C   UNL     1       1.486   7.151  20.786  0.00  0.00    +0.000 C 
ATOM      7  C   UNL     1       1.265   8.341  20.217  0.00  0.00    +0.000 C 
ATOM      8  N   UNL     1       1.768   8.748  19.019  0.00  0.00    +0.000 N 
ATOM      9  C   UNL     1       1.528  10.032  18.603  0.00  0.00    +0.000 C 
ATOM     10  O   UNL     1       1.953  10.505  17.560  0.00  0.00    +0.000 OA
ATOM     11  C   UNL     1       0.692  10.789  19.617  0.00  0.00    +0.000 C 
ATOM     12  S   UNL     1       0.304   9.584  20.938  0.00  0.00    +0.000 S 
ATOM     13  H   UNL     1       2.337   8.121  18.458  0.00  0.00    +0.000 HD
ENDBRANCH   3   6
BRANCH   5  14
ATOM     14  C   UNL     1       4.675   5.070  17.672  0.00  0.00    +0.000 A 
ATOM     15  C   UNL     1       5.886   5.759  17.679  0.00  0.00    +0.000 A 
ATOM     16  C   UNL     1       6.714   5.684  16.557  0.00  0.00    +0.000 A 
ATOM     17  C   UNL     1       6.300   4.942  15.460  0.00  0.00    +0.000 A 
ATOM     18 BR   UNL     1       7.381   4.793  13.924  0.00  0.00    +0.000 Br
ATOM     19  C   UNL     1       5.072   4.304  15.522  0.00  0.00    +0.000 A 
ATOM     20  N   UNL     1       4.258   4.339  16.603  0.00  0.00    +0.000 NA
ENDBRANCH   5  14
BRANCH   1  21
ATOM     21  C   UNL     1       4.023   2.665  19.714  0.00  0.00    +0.000 C 
BRANCH  21  23
ATOM     22  O   UNL     1       2.169   2.022  18.270  0.00  0.00    +0.000 OA
ATOM     23  C   UNL     1       3.277   1.785  18.729  0.00  0.00    +0.000 C 
BRANCH  23  24
ATOM     24  O   UNL     1       3.992   0.708  18.320  0.00  0.00    +0.000 OA
ATOM     25  H   UNL     1       4.746   0.478  18.895  0.00  0.00    +0.000 HD
ENDBRANCH  23  24
ENDBRANCH  21  23
ENDBRANCH   1  21
TORSDOF 5
ENDMDL
MODEL 4
REMARK VINA RESULT:      -7.2      3.762      6.349
REMARK  Name = 
REMARK  5 active torsions:
REMARK  status: ('A' for Active; 'I' for Inactive)
REMARK    1  A    between atoms: C_2  and  O_3
REMARK    2  A    between atoms: C_2  and  C_4
REMARK    3  A    between atoms: C_4  and  C_5
REMARK    4  A    between atoms: C_7  and  C_8
REMARK    5  A    between atoms: C_16  and  C_17
REMARK                            x       y       z     vdW  Elec       q    Type
REMARK                         _______ _______ _______ _____ _____    ______ ____
ROOT
ATOM      1  C   UNL     1       2.643   4.329  19.534  0.00  0.00    +0.000 A 
ATOM      2  S   UNL     1       1.598   4.914  20.770  0.00  0.00    +0.000 S 
ATOM      3  C   UNL     1       1.911   6.543  20.295  0.00  0.00    +0.000 A 
ATOM      4  N   UNL     1       2.737   6.654  19.271  0.00  0.00    +0.000 NA
ATOM      5  C   UNL     1       3.150   5.404  18.817  0.00  0.00    +0.000 A 
ENDROOT
BRANCH   3   6
ATOM      6  C   UNL     1       1.286   7.607  21.013  0.00  0.00    +0.000 C 
ATOM      7  C   UNL     1       1.141   8.832  20.496  0.00  0.00    +0.000 C 
ATOM      8  N   UNL     1       1.533   9.212  19.249  0.00  0.00    +0.000 N 
ATOM      9  C   UNL     1       1.400  10.527  18.887  0.00  0.00    +0.000 C 
ATOM     10  O   UNL     1       1.744  10.978  17.805  0.00  0.00    +0.000 OA
ATOM     11  C   UNL     1       0.799  11.347  20.012  0.00  0.00    +0.000 C 
ATOM     12  S   UNL     1       0.438  10.157  21.354  0.00  0.00    +0.000 S 
ATOM     13  H   UNL     1       1.946   8.540  18.610  0.00  0.00    +0.000 HD
ENDBRANCH   3   6
BRANCH   5  14
ATOM     14  C   UNL     1       4.046   5.294  17.663  0.00  0.00    +0.000 A 
ATOM     15  C   UNL     1       4.514   6.435  17.015  0.00  0.00    +0.000 A 
ATOM     16  C   UNL     1       5.359   6.290  15.912  0.00  0.00    +0.000 A 
ATOM     17  C   UNL     1       5.693   5.014  15.481  0.00  0.00    +0.000 A 
ATOM     18 BR   UNL     1       6.838   4.756  14.007  0.00  0.00    +0.000 Br
ATOM     19  C   UNL     1       5.168   3.929  16.163  0.00  0.00    +0.000 A 
ATOM     20  N   UNL     1       4.366   4.038  17.249  0.00  0.00    +0.000 NA
ENDBRANCH   5  14
BRANCH   1  21
ATOM     21  C   UNL     1       2.861   2.851  19.396  0.00  0.00    +0.000 C 
BRANCH  21  23
ATOM     22  O   UNL     1       3.911   2.077  21.453  0.00  0.00    +0.000 OA
ATOM     23  C   UNL     1       4.007   2.388  20.275  0.00  0.00    +0.000 C 
BRANCH  23  24
ATOM     24  O   UNL     1       5.182   2.267  19.609  0.00  0.00    +0.000 OA
ATOM     25  H   UNL     1       5.128   1.758  18.778  0.00  0.00    +0.000 HD
ENDBRANCH  23  24
ENDBRANCH  21  23
ENDBRANCH   1  21
TORSDOF 5
ENDMDL
MODEL 5
REMARK VINA RESULT:      -7.2      3.727      6.367
REMARK  Name = 
REMARK  5 active torsions:
REMARK  status: ('A' for Active; 'I' for Inactive)
REMARK    1  A    between atoms: C_2  and  O_3
REMARK    2  A    between atoms: C_2  and  C_4
REMARK    3  A    between atoms: C_4  and  C_5
REMARK    4  A    between atoms: C_7  and  C_8
REMARK    5  A    between atoms: C_16  and  C_17
REMARK                            x       y       z     vdW  Elec       q    Type
REMARK                         _______ _______ _______ _____ _____    ______ ____
ROOT
ATOM      1  C   UNL     1       2.533   4.302  19.603  0.00  0.00    +0.000 A 
ATOM      2  S   UNL     1       1.499   4.893  20.845  0.00  0.00    +0.000 S 
ATOM      3  C   UNL     1       1.880   6.521  20.419  0.00  0.00    +0.000 A 
ATOM      4  N   UNL     1       2.720   6.628  19.406  0.00  0.00    +0.000 NA
ATOM      5  C   UNL     1       3.089   5.376  18.921  0.00  0.00    +0.000 A 
ENDROOT
BRANCH   3   6
ATOM      6  C   UNL     1       1.288   7.589  21.161  0.00  0.00    +0.000 C 
ATOM      7  C   UNL     1       1.104   8.806  20.639  0.00  0.00    +0.000 C 
ATOM      8  N   UNL     1       1.421   9.176  19.367  0.00  0.00    +0.000 N 
ATOM      9  C   UNL     1       1.257  10.486  19.000  0.00  0.00    +0.000 C 
ATOM     10  O   UNL     1       1.534  10.927  17.895  0.00  0.00    +0.000 OA
ATOM     11  C   UNL     1       0.715  11.314  20.149  0.00  0.00    +0.000 C 
ATOM     12  S   UNL     1       0.441  10.136  21.522  0.00  0.00    +0.000 S 
ATOM     13  H   UNL     1       1.802   8.499  18.713  0.00  0.00    +0.000 HD
ENDBRANCH   3   6
BRANCH   5  14
ATOM     14  C   UNL     1       3.992   5.263  17.773  0.00  0.00    +0.000 A 
ATOM     15  C   UNL     1       4.385   6.396  17.063  0.00  0.00    +0.000 A 
ATOM     16  C   UNL     1       5.239   6.247  15.968  0.00  0.00    +0.000 A 
ATOM     17  C   UNL     1       5.657   4.974  15.606  0.00  0.00    +0.000 A 
ATOM     18 BR   UNL     1       6.819   4.713  14.146  0.00  0.00    +0.000 Br
ATOM     19  C   UNL     1       5.203   3.896  16.347  0.00  0.00    +0.000 A 
ATOM     20  N   UNL     1       4.394   4.011  17.427  0.00  0.00    +0.000 NA
ENDBRANCH   5  14
BRANCH   1  21
ATOM     21  C   UNL     1       2.695   2.822  19.426  0.00  0.00    +0.000 C 
BRANCH  21  23
ATOM     22  O   UNL     1       0.431   2.223  18.755  0.00  0.00    +0.000 OA
ATOM     23  C   UNL     1       1.627   2.266  18.504  0.00  0.00    +0.000 C 
BRANCH  23  24
ATOM     24  O   UNL     1       2.107   1.872  17.298  0.00  0.00    +0.000 OA
ATOM     25  H   UNL     1       2.624   2.551  16.825  0.00  0.00    +0.000 HD
ENDBRANCH  23  24
ENDBRANCH  21  23
ENDBRANCH   1  21
TORSDOF 5
ENDMDL
MODEL 6
REMARK VINA RESULT:      -7.0      4.062      6.772
REMARK  Name = 
REMARK  5 active torsions:
REMARK  status: ('A' for Active; 'I' for Inactive)
REMARK    1  A    between atoms: C_2  and  O_3
REMARK    2  A    between atoms: C_2  and  C_4
REMARK    3  A    between atoms: C_4  and  C_5
REMARK    4  A    between atoms: C_7  and  C_8
REMARK    5  A    between atoms: C_16  and  C_17
REMARK                            x       y       z     vdW  Elec       q    Type
REMARK                         _______ _______ _______ _____ _____    ______ ____
ROOT
ATOM      1  C   UNL     1       2.369   6.271  19.940  0.00  0.00    +0.000 A 
ATOM      2  S   UNL     1       1.364   7.357  20.819  0.00  0.00    +0.000 S 
ATOM      3  C   UNL     1       1.586   8.573  19.615  0.00  0.00    +0.000 A 
ATOM      4  N   UNL     1       2.354   8.197  18.609  0.00  0.00    +0.000 NA
ATOM      5  C   UNL     1       2.794   6.886  18.771  0.00  0.00    +0.000 A 
ENDROOT
BRANCH   3   6
ATOM      6  C   UNL     1       0.954   9.842  19.786  0.00  0.00    +0.000 C 
ATOM      7  C   UNL     1      -0.062  10.245  19.015  0.00  0.00    +0.000 C 
ATOM      8  N   UNL     1      -0.630   9.517  18.014  0.00  0.00    +0.000 N 
ATOM      9  C   UNL     1      -1.607  10.097  17.248  0.00  0.00    +0.000 C 
ATOM     10  O   UNL     1      -2.162   9.543  16.311  0.00  0.00    +0.000 OA
ATOM     11  C   UNL     1      -1.886  11.518  17.699  0.00  0.00    +0.000 C 
ATOM     12  S   UNL     1      -0.816  11.794  19.157  0.00  0.00    +0.000 S 
ATOM     13  H   UNL     1      -0.311   8.573  17.818  0.00  0.00    +0.000 HD
ENDBRANCH   3   6
BRANCH   5  14
ATOM     14  C   UNL     1       3.635   6.255  17.750  0.00  0.00    +0.000 A 
ATOM     15  C   UNL     1       4.494   7.021  16.964  0.00  0.00    +0.000 A 
ATOM     16  C   UNL     1       5.272   6.384  15.994  0.00  0.00    +0.000 A 
ATOM     17  C   UNL     1       5.155   5.012  15.828  0.00  0.00    +0.000 A 
ATOM     18 BR   UNL     1       6.189   4.098  14.545  0.00  0.00    +0.000 Br
ATOM     19  C   UNL     1       4.262   4.325  16.632  0.00  0.00    +0.000 A 
ATOM     20  N   UNL     1       3.511   4.909  17.596  0.00  0.00    +0.000 NA
ENDBRANCH   5  14
BRANCH   1  21
ATOM     21  C   UNL     1       2.640   4.906  20.500  0.00  0.00    +0.000 C 
BRANCH  21  23
ATOM     22  O   UNL     1       0.892   3.305  21.065  0.00  0.00    +0.000 OA
ATOM     23  C   UNL     1       1.482   3.967  20.222  0.00  0.00    +0.000 C 
BRANCH  23  24
ATOM     24  O   UNL     1       1.083   3.971  18.926  0.00  0.00    +0.000 OA
ATOM     25  H   UNL     1       0.795   3.102  18.587  0.00  0.00    +0.000 HD
ENDBRANCH  23  24
ENDBRANCH  21  23
ENDBRANCH   1  21
TORSDOF 5
ENDMDL
MODEL 7
REMARK VINA RESULT:      -7.0      2.322      2.774
REMARK  Name = 
REMARK  5 active torsions:
REMARK  status: ('A' for Active; 'I' for Inactive)
REMARK    1  A    between atoms: C_2  and  O_3
REMARK    2  A    between atoms: C_2  and  C_4
REMARK    3  A    between atoms: C_4  and  C_5
REMARK    4  A    between atoms: C_7  and  C_8
REMARK    5  A    between atoms: C_16  and  C_17
REMARK                            x       y       z     vdW  Elec       q    Type
REMARK                         _______ _______ _______ _____ _____    ______ ____
ROOT
ATOM      1  C   UNL     1       3.121   4.751  17.833  0.00  0.00    +0.000 A 
ATOM      2  S   UNL     1       4.326   3.898  16.948  0.00  0.00    +0.000 S 
ATOM      3  C   UNL     1       5.105   5.381  16.537  0.00  0.00    +0.000 A 
ATOM      4  N   UNL     1       4.515   6.453  17.033  0.00  0.00    +0.000 NA
ATOM      5  C   UNL     1       3.395   6.111  17.785  0.00  0.00    +0.000 A 
ENDROOT
BRANCH   3   6
ATOM      6  C   UNL     1       6.279   5.346  15.724  0.00  0.00    +0.000 C 
ATOM      7  C   UNL     1       6.278   4.834  14.488  0.00  0.00    +0.000 C 
ATOM      8  N   UNL     1       5.191   4.319  13.848  0.00  0.00    +0.000 N 
ATOM      9  C   UNL     1       5.361   3.748  12.614  0.00  0.00    +0.000 C 
ATOM     10  O   UNL     1       4.460   3.236  11.967  0.00  0.00    +0.000 OA
ATOM     11  C   UNL     1       6.811   3.814  12.174  0.00  0.00    +0.000 C 
ATOM     12  S   UNL     1       7.688   4.725  13.496  0.00  0.00    +0.000 S 
ATOM     13  H   UNL     1       4.278   4.330  14.292  0.00  0.00    +0.000 HD
ENDBRANCH   3   6
BRANCH   5  14
ATOM     14  C   UNL     1       2.607   7.149  18.456  0.00  0.00    +0.000 A 
ATOM     15  C   UNL     1       2.161   8.267  17.754  0.00  0.00    +0.000 A 
ATOM     16  C   UNL     1       1.421   9.240  18.431  0.00  0.00    +0.000 A 
ATOM     17  C   UNL     1       1.168   9.076  19.785  0.00  0.00    +0.000 A 
ATOM     18 BR   UNL     1       0.165  10.348  20.747  0.00  0.00    +0.000 Br
ATOM     19  C   UNL     1       1.666   7.948  20.417  0.00  0.00    +0.000 A 
ATOM     20  N   UNL     1       2.366   6.977  19.783  0.00  0.00    +0.000 NA
ENDBRANCH   5  14
BRANCH   1  21
ATOM     21  C   UNL     1       2.013   3.983  18.492  0.00  0.00    +0.000 C 
BRANCH  21  23
ATOM     22  O   UNL     1       3.241   2.761  20.205  0.00  0.00    +0.000 OA
ATOM     23  C   UNL     1       2.551   2.752  19.195  0.00  0.00    +0.000 C 
BRANCH  23  24
ATOM     24  O   UNL     1       2.130   1.588  18.642  0.00  0.00    +0.000 OA
ATOM     25  H   UNL     1       2.190   0.812  19.232  0.00  0.00    +0.000 HD
ENDBRANCH  23  24
ENDBRANCH  21  23
ENDBRANCH   1  21
TORSDOF 5
ENDMDL
MODEL 8
REMARK VINA RESULT:      -7.0      3.748      6.387
REMARK  Name = 
REMARK  5 active torsions:
REMARK  status: ('A' for Active; 'I' for Inactive)
REMARK    1  A    between atoms: C_2  and  O_3
REMARK    2  A    between atoms: C_2  and  C_4
REMARK    3  A    between atoms: C_4  and  C_5
REMARK    4  A    between atoms: C_7  and  C_8
REMARK    5  A    between atoms: C_16  and  C_17
REMARK                            x       y       z     vdW  Elec       q    Type
REMARK                         _______ _______ _______ _____ _____    ______ ____
ROOT
ATOM      1  C   UNL     1       2.644   3.915  19.185  0.00  0.00    +0.000 A 
ATOM      2  S   UNL     1       1.588   4.401  20.455  0.00  0.00    +0.000 S 
ATOM      3  C   UNL     1       2.075   6.045  20.261  0.00  0.00    +0.000 A 
ATOM      4  N   UNL     1       2.964   6.231  19.303  0.00  0.00    +0.000 NA
ATOM      5  C   UNL     1       3.286   5.033  18.672  0.00  0.00    +0.000 A 
ENDROOT
BRANCH   3   6
ATOM      6  C   UNL     1       1.509   7.040  21.114  0.00  0.00    +0.000 C 
ATOM      7  C   UNL     1       1.264   8.287  20.695  0.00  0.00    +0.000 C 
ATOM      8  N   UNL     1       1.490   8.754  19.436  0.00  0.00    +0.000 N 
ATOM      9  C   UNL     1       1.274  10.082  19.176  0.00  0.00    +0.000 C 
ATOM     10  O   UNL     1       1.469  10.608  18.091  0.00  0.00    +0.000 OA
ATOM     11  C   UNL     1       0.789  10.811  20.414  0.00  0.00    +0.000 C 
ATOM     12  S   UNL     1       0.631   9.532  21.712  0.00  0.00    +0.000 S 
ATOM     13  H   UNL     1       1.843   8.136  18.712  0.00  0.00    +0.000 HD
ENDBRANCH   3   6
BRANCH   5  14
ATOM     14  C   UNL     1       4.233   5.016  17.553  0.00  0.00    +0.000 A 
ATOM     15  C   UNL     1       4.162   4.024  16.577  0.00  0.00    +0.000 A 
ATOM     16  C   UNL     1       5.088   4.035  15.532  0.00  0.00    +0.000 A 
ATOM     17  C   UNL     1       6.064   5.021  15.504  0.00  0.00    +0.000 A 
ATOM     18 BR   UNL     1       7.331   5.093  14.112  0.00  0.00    +0.000 Br
ATOM     19  C   UNL     1       6.083   5.958  16.523  0.00  0.00    +0.000 A 
ATOM     20  N   UNL     1       5.185   5.987  17.537  0.00  0.00    +0.000 NA
ENDBRANCH   5  14
BRANCH   1  21
ATOM     21  C   UNL     1       2.734   2.463  18.821  0.00  0.00    +0.000 C 
BRANCH  21  23
ATOM     22  O   UNL     1       4.718   2.291  20.224  0.00  0.00    +0.000 OA
ATOM     23  C   UNL     1       4.044   1.865  19.297  0.00  0.00    +0.000 C 
BRANCH  23  24
ATOM     24  O   UNL     1       4.389   0.730  18.641  0.00  0.00    +0.000 OA
ATOM     25  H   UNL     1       3.657   0.299  18.159  0.00  0.00    +0.000 HD
ENDBRANCH  23  24
ENDBRANCH  21  23
ENDBRANCH   1  21
TORSDOF 5
ENDMDL
MODEL 9
REMARK VINA RESULT:      -6.9      4.013      6.730
REMARK  Name = 
REMARK  5 active torsions:
REMARK  status: ('A' for Active; 'I' for Inactive)
REMARK    1  A    between atoms: C_2  and  O_3
REMARK    2  A    between atoms: C_2  and  C_4
REMARK    3  A    between atoms: C_4  and  C_5
REMARK    4  A    between atoms: C_7  and  C_8
REMARK    5  A    between atoms: C_16  and  C_17
REMARK                            x       y       z     vdW  Elec       q    Type
REMARK                         _______ _______ _______ _____ _____    ______ ____
ROOT
ATOM      1  C   UNL     1       2.262   6.289  20.159  0.00  0.00    +0.000 A 
ATOM      2  S   UNL     1       1.281   7.400  21.034  0.00  0.00    +0.000 S 
ATOM      3  C   UNL     1       1.472   8.582  19.791  0.00  0.00    +0.000 A 
ATOM      4  N   UNL     1       2.213   8.178  18.777  0.00  0.00    +0.000 NA
ATOM      5  C   UNL     1       2.658   6.872  18.963  0.00  0.00    +0.000 A 
ENDROOT
BRANCH   3   6
ATOM      6  C   UNL     1       0.844   9.856  19.944  0.00  0.00    +0.000 C 
ATOM      7  C   UNL     1      -0.140  10.270  19.138  0.00  0.00    +0.000 C 
ATOM      8  N   UNL     1      -0.676   9.550  18.114  0.00  0.00    +0.000 N 
ATOM      9  C   UNL     1      -1.621  10.140  17.316  0.00  0.00    +0.000 C 
ATOM     10  O   UNL     1      -2.146   9.594  16.358  0.00  0.00    +0.000 OA
ATOM     11  C   UNL     1      -1.905  11.562  17.762  0.00  0.00    +0.000 C 
ATOM     12  S   UNL     1      -0.885  11.824  19.258  0.00  0.00    +0.000 S 
ATOM     13  H   UNL     1      -0.359   8.604  17.927  0.00  0.00    +0.000 HD
ENDBRANCH   3   6
BRANCH   5  14
ATOM     14  C   UNL     1       3.472   6.212  17.939  0.00  0.00    +0.000 A 
ATOM     15  C   UNL     1       3.310   4.855  17.668  0.00  0.00    +0.000 A 
ATOM     16  C   UNL     1       4.112   4.259  16.691  0.00  0.00    +0.000 A 
ATOM     17  C   UNL     1       5.060   5.030  16.033  0.00  0.00    +0.000 A 
ATOM     18 BR   UNL     1       6.160   4.284  14.698  0.00  0.00    +0.000 Br
ATOM     19  C   UNL     1       5.176   6.367  16.376  0.00  0.00    +0.000 A 
ATOM     20  N   UNL     1       4.398   6.977  17.301  0.00  0.00    +0.000 NA
ENDBRANCH   5  14
BRANCH   1  21
ATOM     21  C   UNL     1       2.548   4.940  20.750  0.00  0.00    +0.000 C 
BRANCH  21  23
ATOM     22  O   UNL     1       0.509   4.063  19.745  0.00  0.00    +0.000 OA
ATOM     23  C   UNL     1       1.335   4.036  20.647  0.00  0.00    +0.000 C 
BRANCH  23  24
ATOM     24  O   UNL     1       1.271   3.104  21.630  0.00  0.00    +0.000 OA
ATOM     25  H   UNL     1       0.782   3.386  22.426  0.00  0.00    +0.000 HD
ENDBRANCH  23  24
ENDBRANCH  21  23
ENDBRANCH   1  21
TORSDOF 5
ENDMDL
