MODEL 1
REMARK VINA RESULT:      -7.1      0.000      0.000
REMARK  Name = 
REMARK  7 active torsions:
REMARK  status: ('A' for Active; 'I' for Inactive)
REMARK    1  A    between atoms: C_1  and  S_2
REMARK    2  A    between atoms: S_2  and  C_3
REMARK    3  A    between atoms: C_7  and  C_8
REMARK    4  A    between atoms: C_8  and  C_10
REMARK    5  A    between atoms: C_13  and  C_14
REMARK    6  A    between atoms: C_19  and  C_20
REMARK    7  A    between atoms: C_20  and  O_22
REMARK                            x       y       z     vdW  Elec       q    Type
REMARK                         _______ _______ _______ _____ _____    ______ ____
ROOT
ATOM      1  C   UNL     1       3.082   6.091  18.331  0.00  0.00    +0.000 A 
ATOM      2  C   UNL     1       2.116   5.228  18.919  0.00  0.00    +0.000 A 
ATOM      3  C   UNL     1       2.769   4.054  19.161  0.00  0.00    +0.000 A 
ATOM      4  N   UNL     1       4.043   4.167  18.686  0.00  0.00    +0.000 N 
ATOM      5  C   UNL     1       4.267   5.382  18.109  0.00  0.00    +0.000 A 
ATOM      6  C   UNL     1       4.828   2.957  18.872  0.00  0.00    +0.000 C 
ATOM      7  C   UNL     1       3.952   2.114  19.821  0.00  0.00    +0.000 C 
ATOM      8  C   UNL     1       2.527   2.724  19.775  0.00  0.00    +0.000 C 
ENDROOT
BRANCH   1  10
ATOM      9  C   UNL     1       1.838   8.215  19.509  0.00  0.00    +0.000 C 
ATOM     10  S   UNL     1       2.699   7.766  17.991  0.00  0.00    +0.000 S 
ENDBRANCH   1  10
BRANCH   5  11
ATOM     11  C   UNL     1       5.523   5.740  17.466  0.00  0.00    +0.000 C 
ATOM     12  O   UNL     1       6.335   6.498  17.994  0.00  0.00    +0.000 OA
BRANCH  11  13
ATOM     13  C   UNL     1       5.875   5.165  16.137  0.00  0.00    +0.000 A 
ATOM     14  C   UNL     1       4.951   4.399  15.417  0.00  0.00    +0.000 A 
ATOM     15  C   UNL     1       5.251   3.967  14.124  0.00  0.00    +0.000 A 
ATOM     16  C   UNL     1       6.500   4.241  13.559  0.00  0.00    +0.000 A 
ATOM     17  C   UNL     1       6.815   3.796  12.162  0.00  0.00    +0.000 C 
ATOM     18  C   UNL     1       7.455   4.936  14.314  0.00  0.00    +0.000 A 
ATOM     19  C   UNL     1       7.146   5.396  15.599  0.00  0.00    +0.000 A 
ENDBRANCH  11  13
ENDBRANCH   5  11
BRANCH   8  20
ATOM     20  C   UNL     1       1.925   2.801  21.168  0.00  0.00    +0.000 C 
ATOM     21  O   UNL     1       2.612   2.863  22.180  0.00  0.00    +0.000 OA
BRANCH  20  22
ATOM     22  O   UNL     1       0.575   2.881  21.230  0.00  0.00    +0.000 OA
ATOM     23  H   UNL     1       0.201   3.657  20.770  0.00  0.00    +0.000 HD
ENDBRANCH  20  22
ENDBRANCH   8  20
TORSDOF 5
ENDMDL
MODEL 2
REMARK VINA RESULT:      -7.1      0.124      1.037
REMARK  Name = 
REMARK  7 active torsions:
REMARK  status: ('A' for Active; 'I' for Inactive)
REMARK    1  A    between atoms: C_1  and  S_2
REMARK    2  A    between atoms: S_2  and  C_3
REMARK    3  A    between atoms: C_7  and  C_8
REMARK    4  A    between atoms: C_8  and  C_10
REMARK    5  A    between atoms: C_13  and  C_14
REMARK    6  A    between atoms: C_19  and  C_20
REMARK    7  A    between atoms: C_20  and  O_22
REMARK                            x       y       z     vdW  Elec       q    Type
REMARK                         _______ _______ _______ _____ _____    ______ ____
ROOT
ATOM      1  C   UNL     1       3.057   6.070  18.314  0.00  0.00    +0.000 A 
ATOM      2  C   UNL     1       2.109   5.188  18.901  0.00  0.00    +0.000 A 
ATOM      3  C   UNL     1       2.778   4.018  19.118  0.00  0.00    +0.000 A 
ATOM      4  N   UNL     1       4.044   4.153  18.629  0.00  0.00    +0.000 N 
ATOM      5  C   UNL     1       4.248   5.379  18.067  0.00  0.00    +0.000 A 
ATOM      6  C   UNL     1       4.845   2.949  18.788  0.00  0.00    +0.000 C 
ATOM      7  C   UNL     1       3.990   2.082  19.735  0.00  0.00    +0.000 C 
ATOM      8  C   UNL     1       2.558   2.677  19.716  0.00  0.00    +0.000 C 
ENDROOT
BRANCH   1  10
ATOM      9  C   UNL     1       1.895   8.193  19.576  0.00  0.00    +0.000 C 
ATOM     10  S   UNL     1       2.652   7.746  18.003  0.00  0.00    +0.000 S 
ENDBRANCH   1  10
BRANCH   5  11
ATOM     11  C   UNL     1       5.492   5.759  17.413  0.00  0.00    +0.000 C 
ATOM     12  O   UNL     1       6.327   6.474  17.965  0.00  0.00    +0.000 OA
BRANCH  11  13
ATOM     13  C   UNL     1       5.800   5.263  16.043  0.00  0.00    +0.000 A 
ATOM     14  C   UNL     1       7.056   5.481  15.465  0.00  0.00    +0.000 A 
ATOM     15  C   UNL     1       7.371   4.911  14.231  0.00  0.00    +0.000 A 
ATOM     16  C   UNL     1       6.416   4.167  13.531  0.00  0.00    +0.000 A 
ATOM     17  C   UNL     1       6.761   3.535  12.216  0.00  0.00    +0.000 C 
ATOM     18  C   UNL     1       5.131   4.021  14.073  0.00  0.00    +0.000 A 
ATOM     19  C   UNL     1       4.823   4.567  15.324  0.00  0.00    +0.000 A 
ENDBRANCH  11  13
ENDBRANCH   5  11
BRANCH   8  20
ATOM     20  C   UNL     1       1.973   2.727  21.117  0.00  0.00    +0.000 C 
ATOM     21  O   UNL     1       2.669   2.682  22.124  0.00  0.00    +0.000 OA
BRANCH  20  22
ATOM     22  O   UNL     1       0.634   2.909  21.197  0.00  0.00    +0.000 OA
ATOM     23  H   UNL     1       0.316   3.723  20.760  0.00  0.00    +0.000 HD
ENDBRANCH  20  22
ENDBRANCH   8  20
TORSDOF 5
ENDMDL
MODEL 3
REMARK VINA RESULT:      -6.9      2.225      6.489
REMARK  Name = 
REMARK  7 active torsions:
REMARK  status: ('A' for Active; 'I' for Inactive)
REMARK    1  A    between atoms: C_1  and  S_2
REMARK    2  A    between atoms: S_2  and  C_3
REMARK    3  A    between atoms: C_7  and  C_8
REMARK    4  A    between atoms: C_8  and  C_10
REMARK    5  A    between atoms: C_13  and  C_14
REMARK    6  A    between atoms: C_19  and  C_20
REMARK    7  A    between atoms: C_20  and  O_22
REMARK                            x       y       z     vdW  Elec       q    Type
REMARK                         _______ _______ _______ _____ _____    ______ ____
ROOT
ATOM      1  C   UNL     1       2.899   4.168  17.813  0.00  0.00    +0.000 A 
ATOM      2  C   UNL     1       3.691   3.974  16.648  0.00  0.00    +0.000 A 
ATOM      3  C   UNL     1       4.591   5.000  16.640  0.00  0.00    +0.000 A 
ATOM      4  N   UNL     1       4.324   5.813  17.701  0.00  0.00    +0.000 N 
ATOM      5  C   UNL     1       3.251   5.377  18.421  0.00  0.00    +0.000 A 
ATOM      6  C   UNL     1       5.216   6.960  17.778  0.00  0.00    +0.000 C 
ATOM      7  C   UNL     1       6.317   6.615  16.753  0.00  0.00    +0.000 C 
ATOM      8  C   UNL     1       5.752   5.487  15.852  0.00  0.00    +0.000 C 
ENDROOT
BRANCH   1  10
ATOM      9  C   UNL     1       2.513   2.264  19.731  0.00  0.00    +0.000 C 
ATOM     10  S   UNL     1       1.701   2.982  18.291  0.00  0.00    +0.000 S 
ENDBRANCH   1  10
BRANCH   5  11
ATOM     11  C   UNL     1       2.713   6.098  19.566  0.00  0.00    +0.000 C 
ATOM     12  O   UNL     1       2.763   5.641  20.707  0.00  0.00    +0.000 OA
BRANCH  11  13
ATOM     13  C   UNL     1       2.100   7.443  19.385  0.00  0.00    +0.000 A 
ATOM     14  C   UNL     1       2.068   8.056  18.127  0.00  0.00    +0.000 A 
ATOM     15  C   UNL     1       1.388   9.262  17.949  0.00  0.00    +0.000 A 
ATOM     16  C   UNL     1       0.784   9.900  19.036  0.00  0.00    +0.000 A 
ATOM     17  C   UNL     1       0.033  11.184  18.841  0.00  0.00    +0.000 C 
ATOM     18  C   UNL     1       0.890   9.327  20.311  0.00  0.00    +0.000 A 
ATOM     19  C   UNL     1       1.546   8.104  20.487  0.00  0.00    +0.000 A 
ENDBRANCH  11  13
ENDBRANCH   5  11
BRANCH   8  20
ATOM     20  C   UNL     1       6.802   4.419  15.598  0.00  0.00    +0.000 C 
ATOM     21  O   UNL     1       7.810   4.308  16.285  0.00  0.00    +0.000 OA
BRANCH  20  22
ATOM     22  O   UNL     1       6.526   3.533  14.612  0.00  0.00    +0.000 OA
ATOM     23  H   UNL     1       7.275   3.366  14.007  0.00  0.00    +0.000 HD
ENDBRANCH  20  22
ENDBRANCH   8  20
TORSDOF 5
ENDMDL
MODEL 4
REMARK VINA RESULT:      -6.8      2.131      2.712
REMARK  Name = 
REMARK  7 active torsions:
REMARK  status: ('A' for Active; 'I' for Inactive)
REMARK    1  A    between atoms: C_1  and  S_2
REMARK    2  A    between atoms: S_2  and  C_3
REMARK    3  A    between atoms: C_7  and  C_8
REMARK    4  A    between atoms: C_8  and  C_10
REMARK    5  A    between atoms: C_13  and  C_14
REMARK    6  A    between atoms: C_19  and  C_20
REMARK    7  A    between atoms: C_20  and  O_22
REMARK                            x       y       z     vdW  Elec       q    Type
REMARK                         _______ _______ _______ _____ _____    ______ ____
ROOT
ATOM      1  C   UNL     1       6.281   5.706  18.188  0.00  0.00    +0.000 A 
ATOM      2  C   UNL     1       5.760   5.144  19.386  0.00  0.00    +0.000 A 
ATOM      3  C   UNL     1       4.585   4.546  19.031  0.00  0.00    +0.000 A 
ATOM      4  N   UNL     1       4.365   4.786  17.706  0.00  0.00    +0.000 N 
ATOM      5  C   UNL     1       5.352   5.549  17.155  0.00  0.00    +0.000 A 
ATOM      6  C   UNL     1       3.120   4.210  17.223  0.00  0.00    +0.000 C 
ATOM      7  C   UNL     1       2.688   3.288  18.382  0.00  0.00    +0.000 C 
ATOM      8  C   UNL     1       3.500   3.726  19.628  0.00  0.00    +0.000 C 
ENDROOT
BRANCH   1  10
ATOM      9  C   UNL     1       7.430   8.122  17.646  0.00  0.00    +0.000 C 
ATOM     10  S   UNL     1       7.867   6.451  18.163  0.00  0.00    +0.000 S 
ENDBRANCH   1  10
BRANCH   5  11
ATOM     11  C   UNL     1       5.328   6.005  15.772  0.00  0.00    +0.000 C 
ATOM     12  O   UNL     1       4.937   7.130  15.462  0.00  0.00    +0.000 OA
BRANCH  11  13
ATOM     13  C   UNL     1       5.810   5.114  14.681  0.00  0.00    +0.000 A 
ATOM     14  C   UNL     1       4.964   4.159  14.105  0.00  0.00    +0.000 A 
ATOM     15  C   UNL     1       5.390   3.413  13.005  0.00  0.00    +0.000 A 
ATOM     16  C   UNL     1       6.687   3.567  12.507  0.00  0.00    +0.000 A 
ATOM     17  C   UNL     1       7.138   2.782  11.311  0.00  0.00    +0.000 C 
ATOM     18  C   UNL     1       7.561   4.463  13.138  0.00  0.00    +0.000 A 
ATOM     19  C   UNL     1       7.126   5.233  14.221  0.00  0.00    +0.000 A 
ENDBRANCH  11  13
ENDBRANCH   5  11
BRANCH   8  20
ATOM     20  C   UNL     1       4.008   2.518  20.397  0.00  0.00    +0.000 C 
ATOM     21  O   UNL     1       3.571   2.205  21.497  0.00  0.00    +0.000 OA
BRANCH  20  22
ATOM     22  O   UNL     1       4.923   1.748  19.761  0.00  0.00    +0.000 OA
ATOM     23  H   UNL     1       4.660   0.812  19.670  0.00  0.00    +0.000 HD
ENDBRANCH  20  22
ENDBRANCH   8  20
TORSDOF 5
ENDMDL
MODEL 5
REMARK VINA RESULT:      -6.8      2.216      6.467
REMARK  Name = 
REMARK  7 active torsions:
REMARK  status: ('A' for Active; 'I' for Inactive)
REMARK    1  A    between atoms: C_1  and  S_2
REMARK    2  A    between atoms: S_2  and  C_3
REMARK    3  A    between atoms: C_7  and  C_8
REMARK    4  A    between atoms: C_8  and  C_10
REMARK    5  A    between atoms: C_13  and  C_14
REMARK    6  A    between atoms: C_19  and  C_20
REMARK    7  A    between atoms: C_20  and  O_22
REMARK                            x       y       z     vdW  Elec       q    Type
REMARK                         _______ _______ _______ _____ _____    ______ ____
ROOT
ATOM      1  C   UNL     1       2.909   4.184  17.791  0.00  0.00    +0.000 A 
ATOM      2  C   UNL     1       3.709   4.000  16.629  0.00  0.00    +0.000 A 
ATOM      3  C   UNL     1       4.616   5.019  16.642  0.00  0.00    +0.000 A 
ATOM      4  N   UNL     1       4.345   5.821  17.712  0.00  0.00    +0.000 N 
ATOM      5  C   UNL     1       3.263   5.383  18.417  0.00  0.00    +0.000 A 
ATOM      6  C   UNL     1       5.244   6.960  17.811  0.00  0.00    +0.000 C 
ATOM      7  C   UNL     1       6.352   6.621  16.791  0.00  0.00    +0.000 C 
ATOM      8  C   UNL     1       5.787   5.509  15.870  0.00  0.00    +0.000 C 
ENDROOT
BRANCH   1  10
ATOM      9  C   UNL     1       2.479   2.280  19.699  0.00  0.00    +0.000 C 
ATOM     10  S   UNL     1       1.698   3.000  18.243  0.00  0.00    +0.000 S 
ENDBRANCH   1  10
BRANCH   5  11
ATOM     11  C   UNL     1       2.721   6.092  19.567  0.00  0.00    +0.000 C 
ATOM     12  O   UNL     1       2.799   5.641  20.709  0.00  0.00    +0.000 OA
BRANCH  11  13
ATOM     13  C   UNL     1       2.069   7.419  19.390  0.00  0.00    +0.000 A 
ATOM     14  C   UNL     1       1.524   8.105  20.481  0.00  0.00    +0.000 A 
ATOM     15  C   UNL     1       1.022   9.397  20.321  0.00  0.00    +0.000 A 
ATOM     16  C   UNL     1       1.001   9.996  19.058  0.00  0.00    +0.000 A 
ATOM     17  C   UNL     1       0.483  11.393  18.889  0.00  0.00    +0.000 C 
ATOM     18  C   UNL     1       1.470   9.275  17.951  0.00  0.00    +0.000 A 
ATOM     19  C   UNL     1       2.001   7.991  18.114  0.00  0.00    +0.000 A 
ENDBRANCH  11  13
ENDBRANCH   5  11
BRANCH   8  20
ATOM     20  C   UNL     1       6.832   4.437  15.611  0.00  0.00    +0.000 C 
ATOM     21  O   UNL     1       7.846   4.328  16.288  0.00  0.00    +0.000 OA
BRANCH  20  22
ATOM     22  O   UNL     1       6.543   3.547  14.632  0.00  0.00    +0.000 OA
ATOM     23  H   UNL     1       5.737   3.020  14.800  0.00  0.00    +0.000 HD
ENDBRANCH  20  22
ENDBRANCH   8  20
TORSDOF 5
ENDMDL
MODEL 6
REMARK VINA RESULT:      -6.8      1.049      1.498
REMARK  Name = 
REMARK  7 active torsions:
REMARK  status: ('A' for Active; 'I' for Inactive)
REMARK    1  A    between atoms: C_1  and  S_2
REMARK    2  A    between atoms: S_2  and  C_3
REMARK    3  A    between atoms: C_7  and  C_8
REMARK    4  A    between atoms: C_8  and  C_10
REMARK    5  A    between atoms: C_13  and  C_14
REMARK    6  A    between atoms: C_19  and  C_20
REMARK    7  A    between atoms: C_20  and  O_22
REMARK                            x       y       z     vdW  Elec       q    Type
REMARK                         _______ _______ _______ _____ _____    ______ ____
ROOT
ATOM      1  C   UNL     1       3.644   5.764  17.878  0.00  0.00    +0.000 A 
ATOM      2  C   UNL     1       2.367   5.332  18.332  0.00  0.00    +0.000 A 
ATOM      3  C   UNL     1       2.512   4.008  18.635  0.00  0.00    +0.000 A 
ATOM      4  N   UNL     1       3.786   3.635  18.321  0.00  0.00    +0.000 N 
ATOM      5  C   UNL     1       4.506   4.666  17.793  0.00  0.00    +0.000 A 
ATOM      6  C   UNL     1       4.047   2.228  18.584  0.00  0.00    +0.000 C 
ATOM      7  C   UNL     1       2.817   1.792  19.407  0.00  0.00    +0.000 C 
ATOM      8  C   UNL     1       1.730   2.878  19.195  0.00  0.00    +0.000 C 
ENDROOT
BRANCH   1  10
ATOM      9  C   UNL     1       2.339   8.161  17.932  0.00  0.00    +0.000 C 
ATOM     10  S   UNL     1       3.943   7.452  17.518  0.00  0.00    +0.000 S 
ENDBRANCH   1  10
BRANCH   5  11
ATOM     11  C   UNL     1       5.872   4.521  17.313  0.00  0.00    +0.000 C 
ATOM     12  O   UNL     1       6.825   4.398  18.081  0.00  0.00    +0.000 OA
BRANCH  11  13
ATOM     13  C   UNL     1       6.154   4.491  15.851  0.00  0.00    +0.000 A 
ATOM     14  C   UNL     1       7.279   5.133  15.321  0.00  0.00    +0.000 A 
ATOM     15  C   UNL     1       7.595   4.999  13.968  0.00  0.00    +0.000 A 
ATOM     16  C   UNL     1       6.757   4.274  13.116  0.00  0.00    +0.000 A 
ATOM     17  C   UNL     1       7.107   4.109  11.666  0.00  0.00    +0.000 C 
ATOM     18  C   UNL     1       5.585   3.702  13.631  0.00  0.00    +0.000 A 
ATOM     19  C   UNL     1       5.283   3.811  14.993  0.00  0.00    +0.000 A 
ENDBRANCH  11  13
ENDBRANCH   5  11
BRANCH   8  20
ATOM     20  C   UNL     1       1.036   3.213  20.505  0.00  0.00    +0.000 C 
ATOM     21  O   UNL     1       1.240   2.586  21.538  0.00  0.00    +0.000 OA
BRANCH  20  22
ATOM     22  O   UNL     1       0.233   4.303  20.493  0.00  0.00    +0.000 OA
ATOM     23  H   UNL     1      -0.692   4.117  20.746  0.00  0.00    +0.000 HD
ENDBRANCH  20  22
ENDBRANCH   8  20
TORSDOF 5
ENDMDL
MODEL 7
REMARK VINA RESULT:      -6.7      1.114      1.267
REMARK  Name = 
REMARK  7 active torsions:
REMARK  status: ('A' for Active; 'I' for Inactive)
REMARK    1  A    between atoms: C_1  and  S_2
REMARK    2  A    between atoms: S_2  and  C_3
REMARK    3  A    between atoms: C_7  and  C_8
REMARK    4  A    between atoms: C_8  and  C_10
REMARK    5  A    between atoms: C_13  and  C_14
REMARK    6  A    between atoms: C_19  and  C_20
REMARK    7  A    between atoms: C_20  and  O_22
REMARK                            x       y       z     vdW  Elec       q    Type
REMARK                         _______ _______ _______ _____ _____    ______ ____
ROOT
ATOM      1  C   UNL     1       3.731   5.856  17.740  0.00  0.00    +0.000 A 
ATOM      2  C   UNL     1       2.429   5.483  18.174  0.00  0.00    +0.000 A 
ATOM      3  C   UNL     1       2.537   4.187  18.591  0.00  0.00    +0.000 A 
ATOM      4  N   UNL     1       3.815   3.769  18.362  0.00  0.00    +0.000 N 
ATOM      5  C   UNL     1       4.575   4.741  17.782  0.00  0.00    +0.000 A 
ATOM      6  C   UNL     1       4.038   2.385  18.751  0.00  0.00    +0.000 C 
ATOM      7  C   UNL     1       2.768   2.038  19.555  0.00  0.00    +0.000 C 
ATOM      8  C   UNL     1       1.711   3.119  19.210  0.00  0.00    +0.000 C 
ENDROOT
BRANCH   1  10
ATOM      9  C   UNL     1       2.591   8.333  17.845  0.00  0.00    +0.000 C 
ATOM     10  S   UNL     1       4.077   7.503  17.255  0.00  0.00    +0.000 S 
ENDBRANCH   1  10
BRANCH   5  11
ATOM     11  C   UNL     1       5.957   4.535  17.373  0.00  0.00    +0.000 C 
ATOM     12  O   UNL     1       6.869   4.419  18.190  0.00  0.00    +0.000 OA
BRANCH  11  13
ATOM     13  C   UNL     1       6.304   4.433  15.928  0.00  0.00    +0.000 A 
ATOM     14  C   UNL     1       5.548   3.635  15.061  0.00  0.00    +0.000 A 
ATOM     15  C   UNL     1       5.811   3.641  13.690  0.00  0.00    +0.000 A 
ATOM     16  C   UNL     1       6.871   4.395  13.177  0.00  0.00    +0.000 A 
ATOM     17  C   UNL     1       7.140   4.419  11.702  0.00  0.00    +0.000 C 
ATOM     18  C   UNL     1       7.679   5.127  14.058  0.00  0.00    +0.000 A 
ATOM     19  C   UNL     1       7.399   5.146  15.428  0.00  0.00    +0.000 A 
ENDBRANCH  11  13
ENDBRANCH   5  11
BRANCH   8  20
ATOM     20  C   UNL     1       0.972   3.573  20.457  0.00  0.00    +0.000 C 
ATOM     21  O   UNL     1       0.425   4.666  20.539  0.00  0.00    +0.000 OA
BRANCH  20  22
ATOM     22  O   UNL     1       0.878   2.666  21.458  0.00  0.00    +0.000 OA
ATOM     23  H   UNL     1       1.367   2.913  22.266  0.00  0.00    +0.000 HD
ENDBRANCH  20  22
ENDBRANCH   8  20
TORSDOF 5
ENDMDL
MODEL 8
REMARK VINA RESULT:      -6.6      3.116      6.499
REMARK  Name = 
REMARK  7 active torsions:
REMARK  status: ('A' for Active; 'I' for Inactive)
REMARK    1  A    between atoms: C_1  and  S_2
REMARK    2  A    between atoms: S_2  and  C_3
REMARK    3  A    between atoms: C_7  and  C_8
REMARK    4  A    between atoms: C_8  and  C_10
REMARK    5  A    between atoms: C_13  and  C_14
REMARK    6  A    between atoms: C_19  and  C_20
REMARK    7  A    between atoms: C_20  and  O_22
REMARK                            x       y       z     vdW  Elec       q    Type
REMARK                         _______ _______ _______ _____ _____    ______ ____
ROOT
ATOM      1  C   UNL     1       3.963   4.323  19.383  0.00  0.00    +0.000 A 
ATOM      2  C   UNL     1       5.370   4.140  19.275  0.00  0.00    +0.000 A 
ATOM      3  C   UNL     1       5.815   5.161  18.485  0.00  0.00    +0.000 A 
ATOM      4  N   UNL     1       4.735   5.888  18.077  0.00  0.00    +0.000 N 
ATOM      5  C   UNL     1       3.564   5.376  18.553  0.00  0.00    +0.000 A 
ATOM      6  C   UNL     1       5.093   6.997  17.205  0.00  0.00    +0.000 C 
ATOM      7  C   UNL     1       6.629   7.065  17.340  0.00  0.00    +0.000 C 
ATOM      8  C   UNL     1       7.085   5.715  17.952  0.00  0.00    +0.000 C 
ENDROOT
BRANCH   1  10
ATOM      9  C   UNL     1       2.293   2.170  19.231  0.00  0.00    +0.000 C 
ATOM     10  S   UNL     1       3.004   3.304  20.437  0.00  0.00    +0.000 S 
ENDBRANCH   1  10
BRANCH   5  11
ATOM     11  C   UNL     1       2.259   5.923  18.214  0.00  0.00    +0.000 C 
ATOM     12  O   UNL     1       1.428   5.281  17.573  0.00  0.00    +0.000 OA
BRANCH  11  13
ATOM     13  C   UNL     1       1.879   7.291  18.664  0.00  0.00    +0.000 A 
ATOM     14  C   UNL     1       1.691   8.327  17.742  0.00  0.00    +0.000 A 
ATOM     15  C   UNL     1       1.222   9.571  18.165  0.00  0.00    +0.000 A 
ATOM     16  C   UNL     1       0.994   9.815  19.523  0.00  0.00    +0.000 A 
ATOM     17  C   UNL     1       0.468  11.144  19.977  0.00  0.00    +0.000 C 
ATOM     18  C   UNL     1       1.263   8.803  20.455  0.00  0.00    +0.000 A 
ATOM     19  C   UNL     1       1.705   7.546  20.029  0.00  0.00    +0.000 A 
ENDBRANCH  11  13
ENDBRANCH   5  11
BRANCH   8  20
ATOM     20  C   UNL     1       8.144   5.934  19.019  0.00  0.00    +0.000 C 
ATOM     21  O   UNL     1       8.599   5.019  19.694  0.00  0.00    +0.000 OA
BRANCH  20  22
ATOM     22  O   UNL     1       8.625   7.195  19.131  0.00  0.00    +0.000 OA
ATOM     23  H   UNL     1       8.604   7.705  18.298  0.00  0.00    +0.000 HD
ENDBRANCH  20  22
ENDBRANCH   8  20
TORSDOF 5
ENDMDL
MODEL 9
REMARK VINA RESULT:      -6.6      1.962      3.107
REMARK  Name = 
REMARK  7 active torsions:
REMARK  status: ('A' for Active; 'I' for Inactive)
REMARK    1  A    between atoms: C_1  and  S_2
REMARK    2  A    between atoms: S_2  and  C_3
REMARK    3  A    between atoms: C_7  and  C_8
REMARK    4  A    between atoms: C_8  and  C_10
REMARK    5  A    between atoms: C_13  and  C_14
REMARK    6  A    between atoms: C_19  and  C_20
REMARK    7  A    between atoms: C_20  and  O_22
REMARK                            x       y       z     vdW  Elec       q    Type
REMARK                         _______ _______ _______ _____ _____    ______ ____
ROOT
ATOM      1  C   UNL     1       2.918   5.891  18.203  0.00  0.00    +0.000 A 
ATOM      2  C   UNL     1       2.001   5.087  18.935  0.00  0.00    +0.000 A 
ATOM      3  C   UNL     1       2.569   3.848  19.003  0.00  0.00    +0.000 A 
ATOM      4  N   UNL     1       3.735   3.872  18.296  0.00  0.00    +0.000 N 
ATOM      5  C   UNL     1       3.965   5.092  17.731  0.00  0.00    +0.000 A 
ATOM      6  C   UNL     1       4.419   2.588  18.283  0.00  0.00    +0.000 C 
ATOM      7  C   UNL     1       3.658   1.777  19.353  0.00  0.00    +0.000 C 
ATOM      8  C   UNL     1       2.317   2.514  19.604  0.00  0.00    +0.000 C 
ENDROOT
BRANCH   1  10
ATOM      9  C   UNL     1       1.954   8.016  19.617  0.00  0.00    +0.000 C 
ATOM     10  S   UNL     1       2.645   7.610  18.003  0.00  0.00    +0.000 S 
ENDBRANCH   1  10
BRANCH   5  11
ATOM     11  C   UNL     1       5.106   5.369  16.871  0.00  0.00    +0.000 C 
ATOM     12  O   UNL     1       5.222   4.862  15.755  0.00  0.00    +0.000 OA
BRANCH  11  13
ATOM     13  C   UNL     1       6.170   6.311  17.317  0.00  0.00    +0.000 A 
ATOM     14  C   UNL     1       6.209   7.629  16.846  0.00  0.00    +0.000 A 
ATOM     15  C   UNL     1       7.139   8.533  17.362  0.00  0.00    +0.000 A 
ATOM     16  C   UNL     1       8.081   8.116  18.307  0.00  0.00    +0.000 A 
ATOM     17  C   UNL     1       9.066   9.093  18.878  0.00  0.00    +0.000 C 
ATOM     18  C   UNL     1       8.095   6.775  18.714  0.00  0.00    +0.000 A 
ATOM     19  C   UNL     1       7.144   5.875  18.221  0.00  0.00    +0.000 A 
ENDBRANCH  11  13
ENDBRANCH   5  11
BRANCH   8  20
ATOM     20  C   UNL     1       1.999   2.569  21.089  0.00  0.00    +0.000 C 
ATOM     21  O   UNL     1       2.862   2.464  21.952  0.00  0.00    +0.000 OA
BRANCH  20  22
ATOM     22  O   UNL     1       0.710   2.825  21.414  0.00  0.00    +0.000 OA
ATOM     23  H   UNL     1       0.368   3.665  21.049  0.00  0.00    +0.000 HD
ENDBRANCH  20  22
ENDBRANCH   8  20
TORSDOF 5
ENDMDL
