MODEL 1
REMARK VINA RESULT:      -7.2      0.000      0.000
REMARK  Name = 
REMARK  4 active torsions:
REMARK  status: ('A' for Active; 'I' for Inactive)
REMARK    1  A    between atoms: C_7  and  C_8
REMARK    2  A    between atoms: C_11  and  N_12
REMARK    3  A    between atoms: N_12  and  C_13
REMARK    4  A    between atoms: N_12  and  C_14
REMARK                            x       y       z     vdW  Elec       q    Type
REMARK                         _______ _______ _______ _____ _____    ______ ____
ROOT
ATOM      1  CB  ALA A   1       7.745   4.460  17.303  0.00  0.00    +0.000 C 
ATOM      2  CA  ALA A   1       6.577   4.825  17.846  0.00  0.00    +0.000 A 
ATOM      3  N   ALA A   1       5.839   3.950  18.595  0.00  0.00    +0.000 N 
ATOM      4  C   UNK A   2       4.633   4.237  19.184  0.00  0.00    +0.000 A 
ATOM      5  O   UNK A   2       4.030   3.392  19.836  0.00  0.00    +0.000 OA
ATOM      6  C   UNK A   2       4.120   5.634  18.959  0.00  0.00    +0.000 A 
ATOM      7  C   UNK A   2       2.932   5.964  19.496  0.00  0.00    +0.000 C 
ATOM      8  N   UNK A   2       4.870   6.514  18.214  0.00  0.00    +0.000 N 
ATOM      9  C   ALA A   1       6.072   6.228  17.630  0.00  0.00    +0.000 A 
ATOM     10  O   ALA A   1       6.685   7.066  16.976  0.00  0.00    +0.000 OA
ATOM     11  H   ALA A   1       6.173   3.005  18.745  0.00  0.00    +0.000 HD
ATOM     12  H   UNK A   2       4.532   7.458  18.073  0.00  0.00    +0.000 HD
ENDROOT
BRANCH   7  13
ATOM     13  C   UNK A   2       2.268   7.259  19.330  0.00  0.00    +0.000 A 
ATOM     14  C   UNK A   2       1.667   7.889  20.415  0.00  0.00    +0.000 A 
ATOM     15  C   UNK A   2       1.038   9.137  20.255  0.00  0.00    +0.000 A 
ATOM     16  C   UNK A   2       0.986   9.806  19.017  0.00  0.00    +0.000 A 
ATOM     17  C   UNK A   2       1.581   9.125  17.941  0.00  0.00    +0.000 A 
ATOM     18  C   UNK A   2       2.210   7.877  18.084  0.00  0.00    +0.000 A 
BRANCH  16  19
ATOM     19  N   UNK A   2       0.358  11.033  18.869  0.00  0.00    +0.000 N 
ATOM     20  C   UNK A   2       1.104  12.288  18.763  0.00  0.00    +0.000 C 
ATOM     21  C   UNK A   2      -1.058  11.164  18.528  0.00  0.00    +0.000 C 
ENDBRANCH  16  19
ENDBRANCH   7  13
TORSDOF 2
ENDMDL
MODEL 2
REMARK VINA RESULT:      -7.2      1.017      1.017
REMARK  Name = 
REMARK  4 active torsions:
REMARK  status: ('A' for Active; 'I' for Inactive)
REMARK    1  A    between atoms: C_7  and  C_8
REMARK    2  A    between atoms: C_11  and  N_12
REMARK    3  A    between atoms: N_12  and  C_13
REMARK    4  A    between atoms: N_12  and  C_14
REMARK                            x       y       z     vdW  Elec       q    Type
REMARK                         _______ _______ _______ _____ _____    ______ ____
ROOT
ATOM      1  CB  ALA A   1       6.651   4.184  15.452  0.00  0.00    +0.000 C 
ATOM      2  CA  ALA A   1       5.804   4.637  16.385  0.00  0.00    +0.000 A 
ATOM      3  N   ALA A   1       5.511   3.895  17.497  0.00  0.00    +0.000 N 
ATOM      4  C   UNK A   2       4.654   4.277  18.498  0.00  0.00    +0.000 A 
ATOM      5  O   UNK A   2       4.442   3.550  19.461  0.00  0.00    +0.000 OA
ATOM      6  C   UNK A   2       4.006   5.624  18.315  0.00  0.00    +0.000 A 
ATOM      7  C   UNK A   2       3.142   6.040  19.256  0.00  0.00    +0.000 C 
ATOM      8  N   UNK A   2       4.311   6.371  17.201  0.00  0.00    +0.000 N 
ATOM      9  C   ALA A   1       5.167   5.989  16.206  0.00  0.00    +0.000 A 
ATOM     10  O   ALA A   1       5.388   6.710  15.238  0.00  0.00    +0.000 OA
ATOM     11  H   ALA A   1       5.937   2.984  17.623  0.00  0.00    +0.000 HD
ATOM     12  H   UNK A   2       3.886   7.282  17.083  0.00  0.00    +0.000 HD
ENDROOT
BRANCH   7  13
ATOM     13  C   UNK A   2       2.388   7.295  19.205  0.00  0.00    +0.000 A 
ATOM     14  C   UNK A   2       1.782   7.803  20.350  0.00  0.00    +0.000 A 
ATOM     15  C   UNK A   2       1.067   9.014  20.301  0.00  0.00    +0.000 A 
ATOM     16  C   UNK A   2       0.931   9.766  19.119  0.00  0.00    +0.000 A 
ATOM     17  C   UNK A   2       1.535   9.206  17.979  0.00  0.00    +0.000 A 
ATOM     18  C   UNK A   2       2.249   7.997  18.011  0.00  0.00    +0.000 A 
BRANCH  16  19
ATOM     19  N   UNK A   2       0.219  10.954  19.080  0.00  0.00    +0.000 N 
ATOM     20  C   UNK A   2       0.877  12.261  19.036  0.00  0.00    +0.000 C 
ATOM     21  C   UNK A   2      -1.215  11.011  18.800  0.00  0.00    +0.000 C 
ENDBRANCH  16  19
ENDBRANCH   7  13
TORSDOF 2
ENDMDL
MODEL 3
REMARK VINA RESULT:      -7.1      1.076      1.690
REMARK  Name = 
REMARK  4 active torsions:
REMARK  status: ('A' for Active; 'I' for Inactive)
REMARK    1  A    between atoms: C_7  and  C_8
REMARK    2  A    between atoms: C_11  and  N_12
REMARK    3  A    between atoms: N_12  and  C_13
REMARK    4  A    between atoms: N_12  and  C_14
REMARK                            x       y       z     vdW  Elec       q    Type
REMARK                         _______ _______ _______ _____ _____    ______ ____
ROOT
ATOM      1  CB  ALA A   1       6.716   4.166  15.420  0.00  0.00    +0.000 C 
ATOM      2  CA  ALA A   1       5.866   4.607  16.356  0.00  0.00    +0.000 A 
ATOM      3  N   ALA A   1       5.594   3.865  17.474  0.00  0.00    +0.000 N 
ATOM      4  C   UNK A   2       4.737   4.236  18.479  0.00  0.00    +0.000 A 
ATOM      5  O   UNK A   2       4.544   3.508  19.446  0.00  0.00    +0.000 OA
ATOM      6  C   UNK A   2       4.062   5.569  18.294  0.00  0.00    +0.000 A 
ATOM      7  C   UNK A   2       3.196   5.973  19.239  0.00  0.00    +0.000 C 
ATOM      8  N   UNK A   2       4.346   6.316  17.174  0.00  0.00    +0.000 N 
ATOM      9  C   ALA A   1       5.202   5.946  16.175  0.00  0.00    +0.000 A 
ATOM     10  O   ALA A   1       5.404   6.667  15.202  0.00  0.00    +0.000 OA
ATOM     11  H   ALA A   1       6.038   2.963  17.602  0.00  0.00    +0.000 HD
ATOM     12  H   UNK A   2       3.902   7.218  17.055  0.00  0.00    +0.000 HD
ENDROOT
BRANCH   7  13
ATOM     13  C   UNK A   2       2.418   7.213  19.186  0.00  0.00    +0.000 A 
ATOM     14  C   UNK A   2       2.261   7.899  17.985  0.00  0.00    +0.000 A 
ATOM     15  C   UNK A   2       1.506   9.085  17.935  0.00  0.00    +0.000 A 
ATOM     16  C   UNK A   2       0.878   9.631  19.070  0.00  0.00    +0.000 A 
ATOM     17  C   UNK A   2       1.083   8.924  20.268  0.00  0.00    +0.000 A 
ATOM     18  C   UNK A   2       1.836   7.741  20.335  0.00  0.00    +0.000 A 
BRANCH  16  19
ATOM     19  N   UNK A   2       0.142  10.804  19.011  0.00  0.00    +0.000 N 
ATOM     20  C   UNK A   2      -1.116  10.904  18.268  0.00  0.00    +0.000 C 
ATOM     21  C   UNK A   2       0.393  11.944  19.892  0.00  0.00    +0.000 C 
ENDBRANCH  16  19
ENDBRANCH   7  13
TORSDOF 2
ENDMDL
MODEL 4
REMARK VINA RESULT:      -7.1      1.896      3.225
REMARK  Name = 
REMARK  4 active torsions:
REMARK  status: ('A' for Active; 'I' for Inactive)
REMARK    1  A    between atoms: C_7  and  C_8
REMARK    2  A    between atoms: C_11  and  N_12
REMARK    3  A    between atoms: N_12  and  C_13
REMARK    4  A    between atoms: N_12  and  C_14
REMARK                            x       y       z     vdW  Elec       q    Type
REMARK                         _______ _______ _______ _____ _____    ______ ____
ROOT
ATOM      1  CB  ALA A   1       3.208   1.673  18.170  0.00  0.00    +0.000 C 
ATOM      2  CA  ALA A   1       3.218   3.010  18.106  0.00  0.00    +0.000 A 
ATOM      3  N   ALA A   1       4.240   3.683  17.493  0.00  0.00    +0.000 N 
ATOM      4  C   UNK A   2       4.334   5.048  17.385  0.00  0.00    +0.000 A 
ATOM      5  O   UNK A   2       5.287   5.573  16.823  0.00  0.00    +0.000 OA
ATOM      6  C   UNK A   2       3.204   5.825  18.006  0.00  0.00    +0.000 A 
ATOM      7  C   UNK A   2       3.255   7.167  17.948  0.00  0.00    +0.000 C 
ATOM      8  N   UNK A   2       2.173   5.144  18.613  0.00  0.00    +0.000 N 
ATOM      9  C   ALA A   1       2.080   3.784  18.718  0.00  0.00    +0.000 A 
ATOM     10  O   ALA A   1       1.129   3.247  19.277  0.00  0.00    +0.000 OA
ATOM     11  H   ALA A   1       5.008   3.167  17.079  0.00  0.00    +0.000 HD
ATOM     12  H   UNK A   2       1.407   5.665  19.020  0.00  0.00    +0.000 HD
ENDROOT
BRANCH   7  13
ATOM     13  C   UNK A   2       2.268   8.069  18.546  0.00  0.00    +0.000 A 
ATOM     14  C   UNK A   2       1.615   9.019  17.766  0.00  0.00    +0.000 A 
ATOM     15  C   UNK A   2       0.660   9.878  18.340  0.00  0.00    +0.000 A 
ATOM     16  C   UNK A   2       0.316   9.824  19.705  0.00  0.00    +0.000 A 
ATOM     17  C   UNK A   2       1.017   8.870  20.463  0.00  0.00    +0.000 A 
ATOM     18  C   UNK A   2       1.975   8.008  19.905  0.00  0.00    +0.000 A 
BRANCH  16  19
ATOM     19  N   UNK A   2      -0.621  10.680  20.262  0.00  0.00    +0.000 N 
ATOM     20  C   UNK A   2      -0.551  11.116  21.658  0.00  0.00    +0.000 C 
ATOM     21  C   UNK A   2      -1.581  11.436  19.460  0.00  0.00    +0.000 C 
ENDBRANCH  16  19
ENDBRANCH   7  13
TORSDOF 2
ENDMDL
MODEL 5
REMARK VINA RESULT:      -7.1      1.919      3.095
REMARK  Name = 
REMARK  4 active torsions:
REMARK  status: ('A' for Active; 'I' for Inactive)
REMARK    1  A    between atoms: C_7  and  C_8
REMARK    2  A    between atoms: C_11  and  N_12
REMARK    3  A    between atoms: N_12  and  C_13
REMARK    4  A    between atoms: N_12  and  C_14
REMARK                            x       y       z     vdW  Elec       q    Type
REMARK                         _______ _______ _______ _____ _____    ______ ____
ROOT
ATOM      1  CB  ALA A   1       3.339   1.673  18.190  0.00  0.00    +0.000 C 
ATOM      2  CA  ALA A   1       3.305   3.009  18.112  0.00  0.00    +0.000 A 
ATOM      3  N   ALA A   1       4.252   3.703  17.408  0.00  0.00    +0.000 N 
ATOM      4  C   UNK A   2       4.297   5.068  17.278  0.00  0.00    +0.000 A 
ATOM      5  O   UNK A   2       5.185   5.613  16.634  0.00  0.00    +0.000 OA
ATOM      6  C   UNK A   2       3.201   5.821  17.983  0.00  0.00    +0.000 A 
ATOM      7  C   UNK A   2       3.207   7.163  17.907  0.00  0.00    +0.000 C 
ATOM      8  N   UNK A   2       2.244   5.120  18.681  0.00  0.00    +0.000 N 
ATOM      9  C   ALA A   1       2.200   3.759  18.808  0.00  0.00    +0.000 A 
ATOM     10  O   ALA A   1       1.315   3.202  19.450  0.00  0.00    +0.000 OA
ATOM     11  H   ALA A   1       4.998   3.204  16.937  0.00  0.00    +0.000 HD
ATOM     12  H   UNK A   2       1.500   5.624  19.145  0.00  0.00    +0.000 HD
ENDROOT
BRANCH   7  13
ATOM     13  C   UNK A   2       2.248   8.045  18.576  0.00  0.00    +0.000 A 
ATOM     14  C   UNK A   2       1.991   7.907  19.936  0.00  0.00    +0.000 A 
ATOM     15  C   UNK A   2       1.076   8.761  20.579  0.00  0.00    +0.000 A 
ATOM     16  C   UNK A   2       0.387   9.783  19.898  0.00  0.00    +0.000 A 
ATOM     17  C   UNK A   2       0.654   9.872  18.521  0.00  0.00    +0.000 A 
ATOM     18  C   UNK A   2       1.561   9.025  17.865  0.00  0.00    +0.000 A 
BRANCH  16  19
ATOM     19  N   UNK A   2      -0.517  10.615  20.540  0.00  0.00    +0.000 N 
ATOM     20  C   UNK A   2      -0.560  10.750  21.997  0.00  0.00    +0.000 C 
ATOM     21  C   UNK A   2      -1.305  11.624  19.835  0.00  0.00    +0.000 C 
ENDBRANCH  16  19
ENDBRANCH   7  13
TORSDOF 2
ENDMDL
MODEL 6
REMARK VINA RESULT:      -6.9      1.205      1.280
REMARK  Name = 
REMARK  4 active torsions:
REMARK  status: ('A' for Active; 'I' for Inactive)
REMARK    1  A    between atoms: C_7  and  C_8
REMARK    2  A    between atoms: C_11  and  N_12
REMARK    3  A    between atoms: N_12  and  C_13
REMARK    4  A    between atoms: N_12  and  C_14
REMARK                            x       y       z     vdW  Elec       q    Type
REMARK                         _______ _______ _______ _____ _____    ______ ____
ROOT
ATOM      1  CB  ALA A   1       7.240   4.412  15.775  0.00  0.00    +0.000 C 
ATOM      2  CA  ALA A   1       6.140   4.703  16.480  0.00  0.00    +0.000 A 
ATOM      3  N   ALA A   1       5.322   3.715  16.957  0.00  0.00    +0.000 N 
ATOM      4  C   UNK A   2       4.176   3.920  17.683  0.00  0.00    +0.000 A 
ATOM      5  O   UNK A   2       3.494   2.978  18.070  0.00  0.00    +0.000 OA
ATOM      6  C   UNK A   2       3.828   5.361  17.949  0.00  0.00    +0.000 A 
ATOM      7  C   UNK A   2       2.704   5.621  18.638  0.00  0.00    +0.000 C 
ATOM      8  N   UNK A   2       4.658   6.351  17.476  0.00  0.00    +0.000 N 
ATOM      9  C   ALA A   1       5.801   6.144  16.755  0.00  0.00    +0.000 A 
ATOM     10  O   ALA A   1       6.492   7.080  16.364  0.00  0.00    +0.000 OA
ATOM     11  H   ALA A   1       5.545   2.743  16.776  0.00  0.00    +0.000 HD
ATOM     12  H   UNK A   2       4.432   7.319  17.664  0.00  0.00    +0.000 HD
ENDROOT
BRANCH   7  13
ATOM     13  C   UNK A   2       2.196   6.963  18.935  0.00  0.00    +0.000 A 
ATOM     14  C   UNK A   2       1.840   7.312  20.234  0.00  0.00    +0.000 A 
ATOM     15  C   UNK A   2       1.361   8.603  20.520  0.00  0.00    +0.000 A 
ATOM     16  C   UNK A   2       1.222   9.595  19.531  0.00  0.00    +0.000 A 
ATOM     17  C   UNK A   2       1.566   9.195  18.227  0.00  0.00    +0.000 A 
ATOM     18  C   UNK A   2       2.042   7.909  17.926  0.00  0.00    +0.000 A 
BRANCH  16  19
ATOM     19  N   UNK A   2       0.743  10.863  19.821  0.00  0.00    +0.000 N 
ATOM     20  C   UNK A   2       0.178  11.742  18.795  0.00  0.00    +0.000 C 
ATOM     21  C   UNK A   2       0.499  11.325  21.186  0.00  0.00    +0.000 C 
ENDBRANCH  16  19
ENDBRANCH   7  13
TORSDOF 2
ENDMDL
MODEL 7
REMARK VINA RESULT:      -6.9      1.266      1.667
REMARK  Name = 
REMARK  4 active torsions:
REMARK  status: ('A' for Active; 'I' for Inactive)
REMARK    1  A    between atoms: C_7  and  C_8
REMARK    2  A    between atoms: C_11  and  N_12
REMARK    3  A    between atoms: N_12  and  C_13
REMARK    4  A    between atoms: N_12  and  C_14
REMARK                            x       y       z     vdW  Elec       q    Type
REMARK                         _______ _______ _______ _____ _____    ______ ____
ROOT
ATOM      1  CB  ALA A   1       7.462   4.741  15.973  0.00  0.00    +0.000 C 
ATOM      2  CA  ALA A   1       6.286   5.007  16.554  0.00  0.00    +0.000 A 
ATOM      3  N   ALA A   1       5.361   4.020  16.766  0.00  0.00    +0.000 N 
ATOM      4  C   UNK A   2       4.132   4.202  17.349  0.00  0.00    +0.000 A 
ATOM      5  O   UNK A   2       3.358   3.264  17.498  0.00  0.00    +0.000 OA
ATOM      6  C   UNK A   2       3.818   5.613  17.768  0.00  0.00    +0.000 A 
ATOM      7  C   UNK A   2       2.619   5.853  18.326  0.00  0.00    +0.000 C 
ATOM      8  N   UNK A   2       4.754   6.600  17.562  0.00  0.00    +0.000 N 
ATOM      9  C   ALA A   1       5.979   6.417  16.983  0.00  0.00    +0.000 A 
ATOM     10  O   ALA A   1       6.763   7.349  16.830  0.00  0.00    +0.000 OA
ATOM     11  H   ALA A   1       5.562   3.069  16.480  0.00  0.00    +0.000 HD
ATOM     12  H   UNK A   2       4.549   7.547  17.855  0.00  0.00    +0.000 HD
ENDROOT
BRANCH   7  13
ATOM     13  C   UNK A   2       2.136   7.173  18.741  0.00  0.00    +0.000 A 
ATOM     14  C   UNK A   2       1.948   8.183  17.802  0.00  0.00    +0.000 A 
ATOM     15  C   UNK A   2       1.476   9.447  18.200  0.00  0.00    +0.000 A 
ATOM     16  C   UNK A   2       1.169   9.753  19.539  0.00  0.00    +0.000 A 
ATOM     17  C   UNK A   2       1.399   8.716  20.460  0.00  0.00    +0.000 A 
ATOM     18  C   UNK A   2       1.873   7.450  20.079  0.00  0.00    +0.000 A 
BRANCH  16  19
ATOM     19  N   UNK A   2       0.711  11.004  19.922  0.00  0.00    +0.000 N 
ATOM     20  C   UNK A   2       0.781  12.169  19.038  0.00  0.00    +0.000 C 
ATOM     21  C   UNK A   2      -0.123  11.216  21.104  0.00  0.00    +0.000 C 
ENDBRANCH  16  19
ENDBRANCH   7  13
TORSDOF 2
ENDMDL
MODEL 8
REMARK VINA RESULT:      -6.9      1.785      2.741
REMARK  Name = 
REMARK  4 active torsions:
REMARK  status: ('A' for Active; 'I' for Inactive)
REMARK    1  A    between atoms: C_7  and  C_8
REMARK    2  A    between atoms: C_11  and  N_12
REMARK    3  A    between atoms: N_12  and  C_13
REMARK    4  A    between atoms: N_12  and  C_14
REMARK                            x       y       z     vdW  Elec       q    Type
REMARK                         _______ _______ _______ _____ _____    ______ ____
ROOT
ATOM      1  CB  ALA A   1       3.398   1.447  18.161  0.00  0.00    +0.000 C 
ATOM      2  CA  ALA A   1       3.462   2.768  18.370  0.00  0.00    +0.000 A 
ATOM      3  N   ALA A   1       4.645   3.379  18.687  0.00  0.00    +0.000 N 
ATOM      4  C   UNK A   2       4.802   4.722  18.922  0.00  0.00    +0.000 A 
ATOM      5  O   UNK A   2       5.898   5.190  19.207  0.00  0.00    +0.000 OA
ATOM      6  C   UNK A   2       3.549   5.548  18.813  0.00  0.00    +0.000 A 
ATOM      7  C   UNK A   2       3.641   6.868  19.053  0.00  0.00    +0.000 C 
ATOM      8  N   UNK A   2       2.364   4.932  18.483  0.00  0.00    +0.000 N 
ATOM      9  C   ALA A   1       2.209   3.594  18.248  0.00  0.00    +0.000 A 
ATOM     10  O   ALA A   1       1.117   3.115  17.960  0.00  0.00    +0.000 OA
ATOM     11  H   ALA A   1       5.492   2.829  18.770  0.00  0.00    +0.000 HD
ATOM     12  H   UNK A   2       1.523   5.489  18.398  0.00  0.00    +0.000 HD
ENDROOT
BRANCH   7  13
ATOM     13  C   UNK A   2       2.512   7.802  19.041  0.00  0.00    +0.000 A 
ATOM     14  C   UNK A   2       1.791   8.053  20.204  0.00  0.00    +0.000 A 
ATOM     15  C   UNK A   2       0.713   8.957  20.193  0.00  0.00    +0.000 A 
ATOM     16  C   UNK A   2       0.316   9.647  19.033  0.00  0.00    +0.000 A 
ATOM     17  C   UNK A   2       1.052   9.346  17.874  0.00  0.00    +0.000 A 
ATOM     18  C   UNK A   2       2.127   8.443  17.868  0.00  0.00    +0.000 A 
BRANCH  16  19
ATOM     19  N   UNK A   2      -0.752  10.532  19.031  0.00  0.00    +0.000 N 
ATOM     20  C   UNK A   2      -0.837  11.659  19.961  0.00  0.00    +0.000 C 
ATOM     21  C   UNK A   2      -1.730  10.593  17.947  0.00  0.00    +0.000 C 
ENDBRANCH  16  19
ENDBRANCH   7  13
TORSDOF 2
ENDMDL
MODEL 9
REMARK VINA RESULT:      -6.9      1.803      2.980
REMARK  Name = 
REMARK  4 active torsions:
REMARK  status: ('A' for Active; 'I' for Inactive)
REMARK    1  A    between atoms: C_7  and  C_8
REMARK    2  A    between atoms: C_11  and  N_12
REMARK    3  A    between atoms: N_12  and  C_13
REMARK    4  A    between atoms: N_12  and  C_14
REMARK                            x       y       z     vdW  Elec       q    Type
REMARK                         _______ _______ _______ _____ _____    ______ ____
ROOT
ATOM      1  CB  ALA A   1       3.337   1.425  18.193  0.00  0.00    +0.000 C 
ATOM      2  CA  ALA A   1       3.410   2.746  18.398  0.00  0.00    +0.000 A 
ATOM      3  N   ALA A   1       4.600   3.351  18.700  0.00  0.00    +0.000 N 
ATOM      4  C   UNK A   2       4.767   4.694  18.930  0.00  0.00    +0.000 A 
ATOM      5  O   UNK A   2       5.868   5.157  19.201  0.00  0.00    +0.000 OA
ATOM      6  C   UNK A   2       3.516   5.527  18.833  0.00  0.00    +0.000 A 
ATOM      7  C   UNK A   2       3.618   6.846  19.068  0.00  0.00    +0.000 C 
ATOM      8  N   UNK A   2       2.324   4.916  18.518  0.00  0.00    +0.000 N 
ATOM      9  C   ALA A   1       2.160   3.579  18.288  0.00  0.00    +0.000 A 
ATOM     10  O   ALA A   1       1.062   3.104  18.013  0.00  0.00    +0.000 OA
ATOM     11  H   ALA A   1       5.445   2.797  18.775  0.00  0.00    +0.000 HD
ATOM     12  H   UNK A   2       1.485   5.477  18.440  0.00  0.00    +0.000 HD
ENDROOT
BRANCH   7  13
ATOM     13  C   UNK A   2       2.494   7.786  19.066  0.00  0.00    +0.000 A 
ATOM     14  C   UNK A   2       2.135   8.456  17.901  0.00  0.00    +0.000 A 
ATOM     15  C   UNK A   2       1.050   9.352  17.899  0.00  0.00    +0.000 A 
ATOM     16  C   UNK A   2       0.280   9.611  19.048  0.00  0.00    +0.000 A 
ATOM     17  C   UNK A   2       0.691   8.935  20.211  0.00  0.00    +0.000 A 
ATOM     18  C   UNK A   2       1.774   8.041  20.229  0.00  0.00    +0.000 A 
BRANCH  16  19
ATOM     19  N   UNK A   2      -0.784  10.500  19.037  0.00  0.00    +0.000 N 
ATOM     20  C   UNK A   2      -0.968  11.514  20.077  0.00  0.00    +0.000 C 
ATOM     21  C   UNK A   2      -1.642  10.695  17.870  0.00  0.00    +0.000 C 
ENDBRANCH  16  19
ENDBRANCH   7  13
TORSDOF 2
ENDMDL
