MODEL 1
REMARK VINA RESULT:      -8.5      0.000      0.000
REMARK  Name = 
REMARK  2 active torsions:
REMARK  status: ('A' for Active; 'I' for Inactive)
REMARK    1  A    between atoms: C_2  and  C_3
REMARK    2  A    between atoms: C_10  and  C_11
REMARK                            x       y       z     vdW  Elec       q    Type
REMARK                         _______ _______ _______ _____ _____    ______ ____
ROOT
ATOM      1  O   UNL     1       2.540   2.095  17.367  0.00  0.00    +0.000 OA
ATOM      2  C   UNL     1       3.076   3.016  17.986  0.00  0.00    +0.000 C 
ATOM      3  N   UNL     1       3.957   3.927  17.358  0.00  0.00    +0.000 N 
ATOM      4  C   UNL     1       4.211   3.744  15.930  0.00  0.00    +0.000 C 
ATOM      5  C   UNL     1       5.422   4.649  15.626  0.00  0.00    +0.000 C 
ATOM      6  C   UNL     1       6.275   4.410  16.916  0.00  0.00    +0.000 C 
ATOM      7  C   UNL     1       5.190   4.319  18.023  0.00  0.00    +0.000 C 
ATOM      8  C   UNL     1       5.261   5.633  18.845  0.00  0.00    +0.000 C 
ATOM      9  C   UNL     1       6.533   5.439  19.690  0.00  0.00    +0.000 C 
ATOM     10  C   UNL     1       7.713   5.177  18.723  0.00  0.00    +0.000 C 
ATOM     11  N   UNL     1       7.338   5.393  17.291  0.00  0.00    +0.000 NA
ATOM     12  C   UNL     1       6.803   6.766  17.189  0.00  0.00    +0.000 C 
ATOM     13  C   UNL     1       5.508   6.903  18.002  0.00  0.00    +0.000 C 
ENDROOT
BRANCH   5  14
ATOM     14  C   UNL     1       6.057   4.415  14.269  0.00  0.00    +0.000 A 
ATOM     15  C   UNL     1       5.539   3.418  13.424  0.00  0.00    +0.000 A 
ATOM     16  C   UNL     1       6.060   3.221  12.146  0.00  0.00    +0.000 A 
ATOM     17  F   UNL     1       5.538   2.268  11.362  0.00  0.00    +0.000 F 
ATOM     18  C   UNL     1       7.100   4.004  11.669  0.00  0.00    +0.000 A 
ATOM     19  C   UNL     1       7.607   4.995  12.486  0.00  0.00    +0.000 A 
ATOM     20  F   UNL     1       8.605   5.773  12.042  0.00  0.00    +0.000 F 
ATOM     21  C   UNL     1       7.101   5.210  13.774  0.00  0.00    +0.000 A 
ENDBRANCH   5  14
BRANCH   2  22
ATOM     22  C   UNL     1       2.881   3.169  19.447  0.00  0.00    +0.000 A 
ATOM     23  C   UNL     1       2.144   4.179  20.126  0.00  0.00    +0.000 A 
ATOM     24  C   UNL     1       2.187   3.837  21.456  0.00  0.00    +0.000 A 
ATOM     25  N   UNL     1       2.948   2.711  21.525  0.00  0.00    +0.000 N 
ATOM     26  N   UNL     1       3.418   2.316  20.337  0.00  0.00    +0.000 NA
ATOM     27  H   UNL     1       3.185   2.155  22.340  0.00  0.00    +0.000 HD
ENDBRANCH   2  22
TORSDOF 2
ENDMDL
MODEL 2
REMARK VINA RESULT:      -8.5      0.101      1.609
REMARK  Name = 
REMARK  2 active torsions:
REMARK  status: ('A' for Active; 'I' for Inactive)
REMARK    1  A    between atoms: C_2  and  C_3
REMARK    2  A    between atoms: C_10  and  C_11
REMARK                            x       y       z     vdW  Elec       q    Type
REMARK                         _______ _______ _______ _____ _____    ______ ____
ROOT
ATOM      1  O   UNL     1       2.452   2.149  17.394  0.00  0.00    +0.000 OA
ATOM      2  C   UNL     1       3.014   3.054  18.014  0.00  0.00    +0.000 C 
ATOM      3  N   UNL     1       3.896   3.960  17.380  0.00  0.00    +0.000 N 
ATOM      4  C   UNL     1       4.120   3.792  15.946  0.00  0.00    +0.000 C 
ATOM      5  C   UNL     1       5.339   4.683  15.630  0.00  0.00    +0.000 C 
ATOM      6  C   UNL     1       6.213   4.414  16.899  0.00  0.00    +0.000 C 
ATOM      7  C   UNL     1       5.148   4.324  18.026  0.00  0.00    +0.000 C 
ATOM      8  C   UNL     1       5.255   5.626  18.864  0.00  0.00    +0.000 C 
ATOM      9  C   UNL     1       6.540   5.403  19.681  0.00  0.00    +0.000 C 
ATOM     10  C   UNL     1       7.697   5.135  18.688  0.00  0.00    +0.000 C 
ATOM     11  N   UNL     1       7.298   5.376  17.266  0.00  0.00    +0.000 NA
ATOM     12  C   UNL     1       6.782   6.758  17.192  0.00  0.00    +0.000 C 
ATOM     13  C   UNL     1       5.505   6.903  18.032  0.00  0.00    +0.000 C 
ENDROOT
BRANCH   5  14
ATOM     14  C   UNL     1       5.944   4.456  14.257  0.00  0.00    +0.000 A 
ATOM     15  C   UNL     1       7.070   5.200  13.865  0.00  0.00    +0.000 A 
ATOM     16  C   UNL     1       7.687   4.970  12.636  0.00  0.00    +0.000 A 
ATOM     17  F   UNL     1       8.765   5.690  12.295  0.00  0.00    +0.000 F 
ATOM     18  C   UNL     1       7.211   4.000  11.767  0.00  0.00    +0.000 A 
ATOM     19  C   UNL     1       6.113   3.255  12.149  0.00  0.00    +0.000 A 
ATOM     20  F   UNL     1       5.641   2.303  11.330  0.00  0.00    +0.000 F 
ATOM     21  C   UNL     1       5.476   3.469  13.377  0.00  0.00    +0.000 A 
ENDBRANCH   5  14
BRANCH   2  22
ATOM     22  C   UNL     1       2.850   3.191  19.480  0.00  0.00    +0.000 A 
ATOM     23  C   UNL     1       2.129   4.194  20.185  0.00  0.00    +0.000 A 
ATOM     24  C   UNL     1       2.198   3.837  21.510  0.00  0.00    +0.000 A 
ATOM     25  N   UNL     1       2.959   2.710  21.551  0.00  0.00    +0.000 N 
ATOM     26  N   UNL     1       3.404   2.327  20.349  0.00  0.00    +0.000 NA
ATOM     27  H   UNL     1       3.212   2.144  22.355  0.00  0.00    +0.000 HD
ENDBRANCH   2  22
TORSDOF 2
ENDMDL
MODEL 3
REMARK VINA RESULT:      -8.2      4.909      7.802
REMARK  Name = 
REMARK  2 active torsions:
REMARK  status: ('A' for Active; 'I' for Inactive)
REMARK    1  A    between atoms: C_2  and  C_3
REMARK    2  A    between atoms: C_10  and  C_11
REMARK                            x       y       z     vdW  Elec       q    Type
REMARK                         _______ _______ _______ _____ _____    ______ ____
ROOT
ATOM      1  O   UNL     1       5.843   7.898  16.563  0.00  0.00    +0.000 OA
ATOM      2  C   UNL     1       5.341   6.781  16.704  0.00  0.00    +0.000 C 
ATOM      3  N   UNL     1       4.097   6.597  17.354  0.00  0.00    +0.000 N 
ATOM      4  C   UNL     1       3.414   7.789  17.853  0.00  0.00    +0.000 C 
ATOM      5  C   UNL     1       2.298   7.248  18.770  0.00  0.00    +0.000 C 
ATOM      6  C   UNL     1       3.057   6.067  19.461  0.00  0.00    +0.000 C 
ATOM      7  C   UNL     1       3.931   5.509  18.305  0.00  0.00    +0.000 C 
ATOM      8  C   UNL     1       3.301   4.162  17.861  0.00  0.00    +0.000 C 
ATOM      9  C   UNL     1       3.704   3.206  18.999  0.00  0.00    +0.000 C 
ATOM     10  C   UNL     1       3.179   3.797  20.329  0.00  0.00    +0.000 C 
ATOM     11  N   UNL     1       2.277   4.972  20.116  0.00  0.00    +0.000 NA
ATOM     12  C   UNL     1       1.194   4.526  19.216  0.00  0.00    +0.000 C 
ATOM     13  C   UNL     1       1.757   4.155  17.837  0.00  0.00    +0.000 C 
ENDROOT
BRANCH   5  14
ATOM     14  C   UNL     1       1.629   8.300  19.634  0.00  0.00    +0.000 A 
ATOM     15  C   UNL     1       1.194   9.503  19.050  0.00  0.00    +0.000 A 
ATOM     16  C   UNL     1       0.519  10.461  19.805  0.00  0.00    +0.000 A 
ATOM     17  F   UNL     1       0.110  11.594  19.216  0.00  0.00    +0.000 F 
ATOM     18  C   UNL     1       0.255  10.257  21.150  0.00  0.00    +0.000 A 
ATOM     19  C   UNL     1       0.667   9.073  21.730  0.00  0.00    +0.000 A 
ATOM     20  F   UNL     1       0.412   8.848  23.027  0.00  0.00    +0.000 F 
ATOM     21  C   UNL     1       1.347   8.097  20.993  0.00  0.00    +0.000 A 
ENDBRANCH   5  14
BRANCH   2  22
ATOM     22  C   UNL     1       6.056   5.561  16.265  0.00  0.00    +0.000 A 
ATOM     23  C   UNL     1       5.690   4.665  15.222  0.00  0.00    +0.000 A 
ATOM     24  C   UNL     1       6.712   3.750  15.145  0.00  0.00    +0.000 A 
ATOM     25  N   UNL     1       7.590   4.091  16.127  0.00  0.00    +0.000 N 
ATOM     26  N   UNL     1       7.196   5.147  16.847  0.00  0.00    +0.000 NA
ATOM     27  H   UNL     1       8.478   3.658  16.363  0.00  0.00    +0.000 HD
ENDBRANCH   2  22
TORSDOF 2
ENDMDL
MODEL 4
REMARK VINA RESULT:      -8.1      4.922      7.768
REMARK  Name = 
REMARK  2 active torsions:
REMARK  status: ('A' for Active; 'I' for Inactive)
REMARK    1  A    between atoms: C_2  and  C_3
REMARK    2  A    between atoms: C_10  and  C_11
REMARK                            x       y       z     vdW  Elec       q    Type
REMARK                         _______ _______ _______ _____ _____    ______ ____
ROOT
ATOM      1  O   UNL     1       5.937   8.005  16.682  0.00  0.00    +0.000 OA
ATOM      2  C   UNL     1       5.445   6.881  16.792  0.00  0.00    +0.000 C 
ATOM      3  N   UNL     1       4.176   6.674  17.381  0.00  0.00    +0.000 N 
ATOM      4  C   UNL     1       3.454   7.852  17.858  0.00  0.00    +0.000 C 
ATOM      5  C   UNL     1       2.304   7.288  18.718  0.00  0.00    +0.000 C 
ATOM      6  C   UNL     1       3.047   6.112  19.434  0.00  0.00    +0.000 C 
ATOM      7  C   UNL     1       3.981   5.576  18.316  0.00  0.00    +0.000 C 
ATOM      8  C   UNL     1       3.392   4.224  17.833  0.00  0.00    +0.000 C 
ATOM      9  C   UNL     1       3.756   3.263  18.980  0.00  0.00    +0.000 C 
ATOM     10  C   UNL     1       3.162   3.836  20.289  0.00  0.00    +0.000 C 
ATOM     11  N   UNL     1       2.254   5.000  20.044  0.00  0.00    +0.000 NA
ATOM     12  C   UNL     1       1.220   4.546  19.092  0.00  0.00    +0.000 C 
ATOM     13  C   UNL     1       1.851   4.195  17.737  0.00  0.00    +0.000 C 
ENDROOT
BRANCH   5  14
ATOM     14  C   UNL     1       1.581   8.323  19.558  0.00  0.00    +0.000 A 
ATOM     15  C   UNL     1       1.504   8.154  20.951  0.00  0.00    +0.000 A 
ATOM     16  C   UNL     1       0.903   9.120  21.757  0.00  0.00    +0.000 A 
ATOM     17  F   UNL     1       0.853   8.932  23.084  0.00  0.00    +0.000 F 
ATOM     18  C   UNL     1       0.366  10.275  21.211  0.00  0.00    +0.000 A 
ATOM     19  C   UNL     1       0.449  10.457  19.844  0.00  0.00    +0.000 A 
ATOM     20  F   UNL     1      -0.053  11.572  19.293  0.00  0.00    +0.000 F 
ATOM     21  C   UNL     1       1.047   9.501  19.014  0.00  0.00    +0.000 A 
ENDBRANCH   5  14
BRANCH   2  22
ATOM     22  C   UNL     1       6.198   5.675  16.376  0.00  0.00    +0.000 A 
ATOM     23  C   UNL     1       5.869   4.758  15.339  0.00  0.00    +0.000 A 
ATOM     24  C   UNL     1       6.915   3.869  15.286  0.00  0.00    +0.000 A 
ATOM     25  N   UNL     1       7.770   4.243  16.277  0.00  0.00    +0.000 N 
ATOM     26  N   UNL     1       7.339   5.296  16.979  0.00  0.00    +0.000 NA
ATOM     27  H   UNL     1       8.665   3.835  16.530  0.00  0.00    +0.000 HD
ENDBRANCH   2  22
TORSDOF 2
ENDMDL
MODEL 5
REMARK VINA RESULT:      -7.4      5.001      7.609
REMARK  Name = 
REMARK  2 active torsions:
REMARK  status: ('A' for Active; 'I' for Inactive)
REMARK    1  A    between atoms: C_2  and  C_3
REMARK    2  A    between atoms: C_10  and  C_11
REMARK                            x       y       z     vdW  Elec       q    Type
REMARK                         _______ _______ _______ _____ _____    ______ ____
ROOT
ATOM      1  O   UNL     1       6.322   8.344  17.100  0.00  0.00    +0.000 OA
ATOM      2  C   UNL     1       5.885   7.197  17.208  0.00  0.00    +0.000 C 
ATOM      3  N   UNL     1       4.526   6.939  17.503  0.00  0.00    +0.000 N 
ATOM      4  C   UNL     1       3.643   8.091  17.675  0.00  0.00    +0.000 C 
ATOM      5  C   UNL     1       2.356   7.511  18.296  0.00  0.00    +0.000 C 
ATOM      6  C   UNL     1       2.973   6.465  19.283  0.00  0.00    +0.000 C 
ATOM      7  C   UNL     1       4.178   5.913  18.474  0.00  0.00    +0.000 C 
ATOM      8  C   UNL     1       3.801   4.481  18.009  0.00  0.00    +0.000 C 
ATOM      9  C   UNL     1       3.935   3.656  19.302  0.00  0.00    +0.000 C 
ATOM     10  C   UNL     1       3.012   4.289  20.371  0.00  0.00    +0.000 C 
ATOM     11  N   UNL     1       2.122   5.350  19.802  0.00  0.00    +0.000 NA
ATOM     12  C   UNL     1       1.376   4.733  18.687  0.00  0.00    +0.000 C 
ATOM     13  C   UNL     1       2.333   4.319  17.560  0.00  0.00    +0.000 C 
ENDROOT
BRANCH   5  14
ATOM     14  C   UNL     1       1.393   8.553  18.834  0.00  0.00    +0.000 A 
ATOM     15  C   UNL     1       0.609   9.300  17.938  0.00  0.00    +0.000 A 
ATOM     16  C   UNL     1      -0.330  10.220  18.405  0.00  0.00    +0.000 A 
ATOM     17  F   UNL     1      -1.068  10.911  17.524  0.00  0.00    +0.000 F 
ATOM     18  C   UNL     1      -0.521  10.421  19.762  0.00  0.00    +0.000 A 
ATOM     19  C   UNL     1       0.235   9.682  20.651  0.00  0.00    +0.000 A 
ATOM     20  F   UNL     1       0.059   9.851  21.970  0.00  0.00    +0.000 F 
ATOM     21  C   UNL     1       1.185   8.755  20.207  0.00  0.00    +0.000 A 
ENDBRANCH   5  14
BRANCH   2  22
ATOM     22  C   UNL     1       6.785   6.024  17.105  0.00  0.00    +0.000 A 
ATOM     23  C   UNL     1       7.427   5.325  18.165  0.00  0.00    +0.000 A 
ATOM     24  C   UNL     1       8.074   4.268  17.572  0.00  0.00    +0.000 A 
ATOM     25  N   UNL     1       7.841   4.393  16.237  0.00  0.00    +0.000 N 
ATOM     26  N   UNL     1       7.109   5.468  15.925  0.00  0.00    +0.000 NA
ATOM     27  H   UNL     1       8.142   3.785  15.481  0.00  0.00    +0.000 HD
ENDBRANCH   2  22
TORSDOF 2
ENDMDL
MODEL 6
REMARK VINA RESULT:      -7.4      4.969      7.640
REMARK  Name = 
REMARK  2 active torsions:
REMARK  status: ('A' for Active; 'I' for Inactive)
REMARK    1  A    between atoms: C_2  and  C_3
REMARK    2  A    between atoms: C_10  and  C_11
REMARK                            x       y       z     vdW  Elec       q    Type
REMARK                         _______ _______ _______ _____ _____    ______ ____
ROOT
ATOM      1  O   UNL     1       6.299   8.324  17.119  0.00  0.00    +0.000 OA
ATOM      2  C   UNL     1       5.871   7.173  17.219  0.00  0.00    +0.000 C 
ATOM      3  N   UNL     1       4.519   6.902  17.535  0.00  0.00    +0.000 N 
ATOM      4  C   UNL     1       3.631   8.046  17.737  0.00  0.00    +0.000 C 
ATOM      5  C   UNL     1       2.359   7.449  18.374  0.00  0.00    +0.000 C 
ATOM      6  C   UNL     1       3.001   6.395  19.336  0.00  0.00    +0.000 C 
ATOM      7  C   UNL     1       4.195   5.861  18.499  0.00  0.00    +0.000 C 
ATOM      8  C   UNL     1       3.820   4.433  18.021  0.00  0.00    +0.000 C 
ATOM      9  C   UNL     1       3.982   3.592  19.301  0.00  0.00    +0.000 C 
ATOM     10  C   UNL     1       3.074   4.205  20.394  0.00  0.00    +0.000 C 
ATOM     11  N   UNL     1       2.167   5.267  19.855  0.00  0.00    +0.000 NA
ATOM     12  C   UNL     1       1.405   4.660  18.745  0.00  0.00    +0.000 C 
ATOM     13  C   UNL     1       2.344   4.267  17.597  0.00  0.00    +0.000 C 
ENDROOT
BRANCH   5  14
ATOM     14  C   UNL     1       1.400   8.477  18.942  0.00  0.00    +0.000 A 
ATOM     15  C   UNL     1       1.138   8.493  20.323  0.00  0.00    +0.000 A 
ATOM     16  C   UNL     1       0.311   9.465  20.884  0.00  0.00    +0.000 A 
ATOM     17  F   UNL     1       0.088   9.457  22.206  0.00  0.00    +0.000 F 
ATOM     18  C   UNL     1      -0.274  10.446  20.099  0.00  0.00    +0.000 A 
ATOM     19  C   UNL     1      -0.013  10.447  18.743  0.00  0.00    +0.000 A 
ATOM     20  F   UNL     1      -0.559  11.394  17.965  0.00  0.00    +0.000 F 
ATOM     21  C   UNL     1       0.813   9.481  18.157  0.00  0.00    +0.000 A 
ENDBRANCH   5  14
BRANCH   2  22
ATOM     22  C   UNL     1       6.776   6.008  17.085  0.00  0.00    +0.000 A 
ATOM     23  C   UNL     1       7.434   5.294  18.125  0.00  0.00    +0.000 A 
ATOM     24  C   UNL     1       8.081   4.252  17.505  0.00  0.00    +0.000 A 
ATOM     25  N   UNL     1       7.833   4.400  16.175  0.00  0.00    +0.000 N 
ATOM     26  N   UNL     1       7.091   5.476  15.891  0.00  0.00    +0.000 NA
ATOM     27  H   UNL     1       8.129   3.808  15.406  0.00  0.00    +0.000 HD
ENDBRANCH   2  22
TORSDOF 2
ENDMDL
MODEL 7
REMARK VINA RESULT:      -7.3      7.450      9.057
REMARK  Name = 
REMARK  2 active torsions:
REMARK  status: ('A' for Active; 'I' for Inactive)
REMARK    1  A    between atoms: C_2  and  C_3
REMARK    2  A    between atoms: C_10  and  C_11
REMARK                            x       y       z     vdW  Elec       q    Type
REMARK                         _______ _______ _______ _____ _____    ______ ____
ROOT
ATOM      1  O   UNL     1       0.061   9.861  23.934  0.00  0.00    +0.000 OA
ATOM      2  C   UNL     1      -0.472  10.441  22.985  0.00  0.00    +0.000 C 
ATOM      3  N   UNL     1      -0.311   9.996  21.652  0.00  0.00    +0.000 N 
ATOM      4  C   UNL     1       0.512   8.809  21.431  0.00  0.00    +0.000 C 
ATOM      5  C   UNL     1       0.759   8.779  19.909  0.00  0.00    +0.000 C 
ATOM      6  C   UNL     1       0.967  10.304  19.633  0.00  0.00    +0.000 C 
ATOM      7  C   UNL     1      -0.064  10.961  20.591  0.00  0.00    +0.000 C 
ATOM      8  C   UNL     1      -1.232  11.490  19.717  0.00  0.00    +0.000 C 
ATOM      9  C   UNL     1      -0.627  12.745  19.061  0.00  0.00    +0.000 C 
ATOM     10  C   UNL     1       0.652  12.317  18.302  0.00  0.00    +0.000 C 
ATOM     11  N   UNL     1       0.812  10.831  18.241  0.00  0.00    +0.000 NA
ATOM     12  C   UNL     1      -0.424  10.290  17.641  0.00  0.00    +0.000 C 
ATOM     13  C   UNL     1      -1.630  10.560  18.550  0.00  0.00    +0.000 C 
ENDROOT
BRANCH   5  14
ATOM     14  C   UNL     1       1.828   7.798  19.465  0.00  0.00    +0.000 A 
ATOM     15  C   UNL     1       2.051   6.629  20.215  0.00  0.00    +0.000 A 
ATOM     16  C   UNL     1       2.981   5.678  19.798  0.00  0.00    +0.000 A 
ATOM     17  F   UNL     1       3.164   4.571  20.531  0.00  0.00    +0.000 F 
ATOM     18  C   UNL     1       3.711   5.854  18.632  0.00  0.00    +0.000 A 
ATOM     19  C   UNL     1       3.489   6.992  17.882  0.00  0.00    +0.000 A 
ATOM     20  F   UNL     1       4.175   7.178  16.744  0.00  0.00    +0.000 F 
ATOM     21  C   UNL     1       2.562   7.962  18.281  0.00  0.00    +0.000 A 
ENDBRANCH   5  14
BRANCH   2  22
ATOM     22  C   UNL     1      -1.249  11.685  23.190  0.00  0.00    +0.000 A 
ATOM     23  C   UNL     1      -2.662  11.821  23.294  0.00  0.00    +0.000 A 
ATOM     24  C   UNL     1      -2.886  13.149  23.567  0.00  0.00    +0.000 A 
ATOM     25  N   UNL     1      -1.660  13.738  23.573  0.00  0.00    +0.000 N 
ATOM     26  N   UNL     1      -0.662  12.890  23.300  0.00  0.00    +0.000 NA
ATOM     27  H   UNL     1      -1.423  14.708  23.759  0.00  0.00    +0.000 HD
ENDBRANCH   2  22
TORSDOF 2
ENDMDL
MODEL 8
REMARK VINA RESULT:      -7.0      7.253      8.980
REMARK  Name = 
REMARK  2 active torsions:
REMARK  status: ('A' for Active; 'I' for Inactive)
REMARK    1  A    between atoms: C_2  and  C_3
REMARK    2  A    between atoms: C_10  and  C_11
REMARK                            x       y       z     vdW  Elec       q    Type
REMARK                         _______ _______ _______ _____ _____    ______ ____
ROOT
ATOM      1  O   UNL     1      -0.065   9.687  23.948  0.00  0.00    +0.000 OA
ATOM      2  C   UNL     1      -0.479  10.285  22.953  0.00  0.00    +0.000 C 
ATOM      3  N   UNL     1      -0.291   9.780  21.645  0.00  0.00    +0.000 N 
ATOM      4  C   UNL     1       0.415   8.507  21.509  0.00  0.00    +0.000 C 
ATOM      5  C   UNL     1       0.743   8.399  20.006  0.00  0.00    +0.000 C 
ATOM      6  C   UNL     1       1.125   9.884  19.699  0.00  0.00    +0.000 C 
ATOM      7  C   UNL     1       0.116  10.677  20.574  0.00  0.00    +0.000 C 
ATOM      8  C   UNL     1      -0.938  11.293  19.617  0.00  0.00    +0.000 C 
ATOM      9  C   UNL     1      -0.168  12.455  18.963  0.00  0.00    +0.000 C 
ATOM     10  C   UNL     1       1.100  11.872  18.295  0.00  0.00    +0.000 C 
ATOM     11  N   UNL     1       1.106  10.375  18.286  0.00  0.00    +0.000 NA
ATOM     12  C   UNL     1      -0.144   9.944  17.628  0.00  0.00    +0.000 C 
ATOM     13  C   UNL     1      -1.365  10.369  18.455  0.00  0.00    +0.000 C 
ENDROOT
BRANCH   5  14
ATOM     14  C   UNL     1       1.727   7.298  19.655  0.00  0.00    +0.000 A 
ATOM     15  C   UNL     1       2.592   7.464  18.560  0.00  0.00    +0.000 A 
ATOM     16  C   UNL     1       3.550   6.499  18.252  0.00  0.00    +0.000 A 
ATOM     17  F   UNL     1       4.365   6.691  17.206  0.00  0.00    +0.000 F 
ATOM     18  C   UNL     1       3.680   5.350  19.017  0.00  0.00    +0.000 A 
ATOM     19  C   UNL     1       2.843   5.184  20.103  0.00  0.00    +0.000 A 
ATOM     20  F   UNL     1       2.959   4.086  20.865  0.00  0.00    +0.000 F 
ATOM     21  C   UNL     1       1.873   6.138  20.431  0.00  0.00    +0.000 A 
ENDBRANCH   5  14
BRANCH   2  22
ATOM     22  C   UNL     1      -1.133  11.608  23.075  0.00  0.00    +0.000 A 
ATOM     23  C   UNL     1      -2.523  11.885  23.200  0.00  0.00    +0.000 A 
ATOM     24  C   UNL     1      -2.615  13.245  23.371  0.00  0.00    +0.000 A 
ATOM     25  N   UNL     1      -1.340  13.715  23.301  0.00  0.00    +0.000 N 
ATOM     26  N   UNL     1      -0.434  12.758  23.075  0.00  0.00    +0.000 NA
ATOM     27  H   UNL     1      -1.010  14.670  23.403  0.00  0.00    +0.000 HD
ENDBRANCH   2  22
TORSDOF 2
ENDMDL
MODEL 9
REMARK VINA RESULT:      -7.0     10.131     13.245
REMARK  Name = 
REMARK  2 active torsions:
REMARK  status: ('A' for Active; 'I' for Inactive)
REMARK    1  A    between atoms: C_2  and  C_3
REMARK    2  A    between atoms: C_10  and  C_11
REMARK                            x       y       z     vdW  Elec       q    Type
REMARK                         _______ _______ _______ _____ _____    ______ ____
ROOT
ATOM      1  O   UNL     1       8.611  17.199  20.404  0.00  0.00    +0.000 OA
ATOM      2  C   UNL     1       9.039  16.268  19.720  0.00  0.00    +0.000 C 
ATOM      3  N   UNL     1       8.860  14.917  20.100  0.00  0.00    +0.000 N 
ATOM      4  C   UNL     1       8.135  14.656  21.342  0.00  0.00    +0.000 C 
ATOM      5  C   UNL     1       8.390  13.164  21.640  0.00  0.00    +0.000 C 
ATOM      6  C   UNL     1       9.893  13.052  21.221  0.00  0.00    +0.000 C 
ATOM      7  C   UNL     1       9.963  13.976  19.976  0.00  0.00    +0.000 C 
ATOM      8  C   UNL     1      10.083  13.060  18.729  0.00  0.00    +0.000 C 
ATOM      9  C   UNL     1      11.544  12.579  18.798  0.00  0.00    +0.000 C 
ATOM     10  C   UNL     1      11.758  11.895  20.169  0.00  0.00    +0.000 C 
ATOM     11  N   UNL     1      10.477  11.708  20.921  0.00  0.00    +0.000 NA
ATOM     12  C   UNL     1       9.564  10.956  20.036  0.00  0.00    +0.000 C 
ATOM     13  C   UNL     1       9.219  11.782  18.789  0.00  0.00    +0.000 C 
ENDROOT
BRANCH   5  14
ATOM     14  C   UNL     1       7.978  12.722  23.032  0.00  0.00    +0.000 A 
ATOM     15  C   UNL     1       8.613  13.283  24.153  0.00  0.00    +0.000 A 
ATOM     16  C   UNL     1       8.213  12.945  25.446  0.00  0.00    +0.000 A 
ATOM     17  F   UNL     1       8.834  13.504  26.494  0.00  0.00    +0.000 F 
ATOM     18  C   UNL     1       7.178  12.050  25.663  0.00  0.00    +0.000 A 
ATOM     19  C   UNL     1       6.538  11.503  24.567  0.00  0.00    +0.000 A 
ATOM     20  F   UNL     1       5.525  10.644  24.753  0.00  0.00    +0.000 F 
ATOM     21  C   UNL     1       6.923  11.826  23.261  0.00  0.00    +0.000 A 
ENDBRANCH   5  14
BRANCH   2  22
ATOM     22  C   UNL     1       9.835  16.522  18.497  0.00  0.00    +0.000 A 
ATOM     23  C   UNL     1      11.160  17.034  18.411  0.00  0.00    +0.000 A 
ATOM     24  C   UNL     1      11.483  17.000  17.075  0.00  0.00    +0.000 A 
ATOM     25  N   UNL     1      10.376  16.532  16.437  0.00  0.00    +0.000 N 
ATOM     26  N   UNL     1       9.354  16.283  17.263  0.00  0.00    +0.000 NA
ATOM     27  H   UNL     1      10.243  16.352  15.447  0.00  0.00    +0.000 HD
ENDBRANCH   2  22
TORSDOF 2
ENDMDL
