MODEL 1
REMARK VINA RESULT:      -9.2      0.000      0.000
REMARK  Name = 
REMARK  6 active torsions:
REMARK  status: ('A' for Active; 'I' for Inactive)
REMARK    1  A    between atoms: C_1  and  C_2
REMARK    2  A    between atoms: N_4  and  C_5
REMARK    3  A    between atoms: C_7  and  C_8
REMARK    4  A    between atoms: C_11  and  C_12
REMARK    5  A    between atoms: C_12  and  C_13
REMARK    6  A    between atoms: C_12  and  C_14
REMARK                            x       y       z     vdW  Elec       q    Type
REMARK                         _______ _______ _______ _____ _____    ______ ____
ROOT
ATOM      1  C   UNL     1       4.445   4.977  17.915  0.00  0.00    +0.000 A 
ATOM      2  N   UNL     1       3.977   6.173  18.154  0.00  0.00    +0.000 NA
ATOM      3  N   UNL     1       3.082   6.008  19.157  0.00  0.00    +0.000 N 
ATOM      4  C   UNL     1       2.202   6.840  19.790  0.00  0.00    +0.000 A 
ATOM      5  N   UNL     1       1.505   6.116  20.662  0.00  0.00    +0.000 NA
ATOM      6  N   UNL     1       1.928   4.791  20.581  0.00  0.00    +0.000 NA
ATOM      7  C   UNL     1       2.861   4.780  19.674  0.00  0.00    +0.000 A 
ATOM      8  S   UNL     1       3.839   3.622  18.890  0.00  0.00    +0.000 S 
ENDROOT
BRANCH   1  15
ATOM      9  C   UNL     1       7.670   5.181  18.110  0.00  0.00    +0.000 C 
ATOM     10  C   UNL     1       6.828   4.828  16.938  0.00  0.00    +0.000 A 
ATOM     11  N   UNL     1       7.411   4.566  15.759  0.00  0.00    +0.000 NA
ATOM     12  N   UNL     1       6.386   4.303  14.938  0.00  0.00    +0.000 N 
ATOM     13  C   UNL     1       6.634   4.017  13.545  0.00  0.00    +0.000 C 
ATOM     14  C   UNL     1       5.169   4.373  15.550  0.00  0.00    +0.000 A 
ATOM     15  C   UNL     1       5.406   4.732  16.867  0.00  0.00    +0.000 A 
ENDBRANCH   1  15
BRANCH   4  16
ATOM     16  C   UNL     1       2.029   8.287  19.439  0.00  0.00    +0.000 C 
ATOM     17  C   UNL     1       1.456   8.414  18.023  0.00  0.00    +0.000 C 
BRANCH  16  18
ATOM     18  C   UNL     1       1.196   9.050  20.460  0.00  0.00    +0.000 A 
ATOM     19  C   UNL     1       1.277   8.721  21.819  0.00  0.00    +0.000 A 
ATOM     20  C   UNL     1       0.489   9.392  22.763  0.00  0.00    +0.000 A 
ATOM     21  C   UNL     1      -0.395  10.396  22.400  0.00  0.00    +0.000 A 
ATOM     22  N   UNL     1      -1.152  10.987  23.342  0.00  0.00    +0.000 NA
ATOM     23  C   UNL     1      -2.011  11.955  22.950  0.00  0.00    +0.000 A 
ATOM     24  C   UNL     1      -2.144  12.384  21.645  0.00  0.00    +0.000 A 
ATOM     25  C   UNL     1      -1.354  11.775  20.675  0.00  0.00    +0.000 A 
ATOM     26  C   UNL     1      -0.465  10.754  21.039  0.00  0.00    +0.000 A 
ATOM     27  C   UNL     1       0.330  10.088  20.085  0.00  0.00    +0.000 A 
ENDBRANCH  16  18
ENDBRANCH   4  16
TORSDOF 3
ENDMDL
MODEL 2
REMARK VINA RESULT:      -8.5      2.159      3.647
REMARK  Name = 
REMARK  6 active torsions:
REMARK  status: ('A' for Active; 'I' for Inactive)
REMARK    1  A    between atoms: C_1  and  C_2
REMARK    2  A    between atoms: N_4  and  C_5
REMARK    3  A    between atoms: C_7  and  C_8
REMARK    4  A    between atoms: C_11  and  C_12
REMARK    5  A    between atoms: C_12  and  C_13
REMARK    6  A    between atoms: C_12  and  C_14
REMARK                            x       y       z     vdW  Elec       q    Type
REMARK                         _______ _______ _______ _____ _____    ______ ____
ROOT
ATOM      1  C   UNL     1       5.983   4.497  15.705  0.00  0.00    +0.000 A 
ATOM      2  N   UNL     1       4.850   4.752  16.303  0.00  0.00    +0.000 NA
ATOM      3  N   UNL     1       5.181   5.012  17.591  0.00  0.00    +0.000 N 
ATOM      4  C   UNL     1       4.459   5.255  18.726  0.00  0.00    +0.000 A 
ATOM      5  N   UNL     1       5.313   5.367  19.740  0.00  0.00    +0.000 NA
ATOM      6  N   UNL     1       6.606   5.177  19.258  0.00  0.00    +0.000 NA
ATOM      7  C   UNL     1       6.473   4.968  17.981  0.00  0.00    +0.000 A 
ATOM      8  S   UNL     1       7.478   4.571  16.661  0.00  0.00    +0.000 S 
ENDROOT
BRANCH   1  15
ATOM      9  C   UNL     1       8.111   5.509  13.484  0.00  0.00    +0.000 C 
ATOM     10  C   UNL     1       6.967   4.574  13.321  0.00  0.00    +0.000 A 
ATOM     11  N   UNL     1       6.704   4.056  12.113  0.00  0.00    +0.000 NA
ATOM     12  N   UNL     1       5.628   3.286  12.316  0.00  0.00    +0.000 N 
ATOM     13  C   UNL     1       5.021   2.590  11.206  0.00  0.00    +0.000 C 
ATOM     14  C   UNL     1       5.200   3.280  13.611  0.00  0.00    +0.000 A 
ATOM     15  C   UNL     1       6.041   4.129  14.311  0.00  0.00    +0.000 A 
ENDBRANCH   1  15
BRANCH   4  16
ATOM     16  C   UNL     1       2.962   5.272  18.768  0.00  0.00    +0.000 C 
ATOM     17  C   UNL     1       2.458   4.264  19.806  0.00  0.00    +0.000 C 
BRANCH  16  18
ATOM     18  C   UNL     1       2.390   6.664  19.004  0.00  0.00    +0.000 A 
ATOM     19  C   UNL     1       2.377   7.603  17.965  0.00  0.00    +0.000 A 
ATOM     20  C   UNL     1       1.888   8.897  18.180  0.00  0.00    +0.000 A 
ATOM     21  C   UNL     1       1.402   9.302  19.414  0.00  0.00    +0.000 A 
ATOM     22  N   UNL     1       0.972  10.568  19.575  0.00  0.00    +0.000 NA
ATOM     23  C   UNL     1       0.515  10.930  20.795  0.00  0.00    +0.000 A 
ATOM     24  C   UNL     1       0.448  10.076  21.878  0.00  0.00    +0.000 A 
ATOM     25  C   UNL     1       0.886   8.768  21.704  0.00  0.00    +0.000 A 
ATOM     26  C   UNL     1       1.385   8.358  20.459  0.00  0.00    +0.000 A 
ATOM     27  C   UNL     1       1.870   7.051  20.247  0.00  0.00    +0.000 A 
ENDBRANCH  16  18
ENDBRANCH   4  16
TORSDOF 3
ENDMDL
MODEL 3
REMARK VINA RESULT:      -8.5      3.961      8.561
REMARK  Name = 
REMARK  6 active torsions:
REMARK  status: ('A' for Active; 'I' for Inactive)
REMARK    1  A    between atoms: C_1  and  C_2
REMARK    2  A    between atoms: N_4  and  C_5
REMARK    3  A    between atoms: C_7  and  C_8
REMARK    4  A    between atoms: C_11  and  C_12
REMARK    5  A    between atoms: C_12  and  C_13
REMARK    6  A    between atoms: C_12  and  C_14
REMARK                            x       y       z     vdW  Elec       q    Type
REMARK                         _______ _______ _______ _____ _____    ______ ____
ROOT
ATOM      1  C   UNL     1      -1.458  11.381  18.452  0.00  0.00    +0.000 A 
ATOM      2  N   UNL     1      -1.084  10.429  19.265  0.00  0.00    +0.000 NA
ATOM      3  N   UNL     1      -0.109  10.979  20.028  0.00  0.00    +0.000 N 
ATOM      4  C   UNL     1       0.735  10.492  20.986  0.00  0.00    +0.000 A 
ATOM      5  N   UNL     1       1.554  11.475  21.351  0.00  0.00    +0.000 NA
ATOM      6  N   UNL     1       1.248  12.612  20.606  0.00  0.00    +0.000 NA
ATOM      7  C   UNL     1       0.258  12.265  19.836  0.00  0.00    +0.000 A 
ATOM      8  S   UNL     1      -0.664  12.964  18.583  0.00  0.00    +0.000 S 
ENDROOT
BRANCH   1  15
ATOM      9  C   UNL     1      -4.637  11.951  18.681  0.00  0.00    +0.000 C 
ATOM     10  C   UNL     1      -3.869  11.404  17.533  0.00  0.00    +0.000 A 
ATOM     11  N   UNL     1      -4.515  11.054  16.412  0.00  0.00    +0.000 NA
ATOM     12  N   UNL     1      -3.548  10.599  15.605  0.00  0.00    +0.000 N 
ATOM     13  C   UNL     1      -3.882  10.082  14.300  0.00  0.00    +0.000 C 
ATOM     14  C   UNL     1      -2.304  10.657  16.163  0.00  0.00    +0.000 A 
ATOM     15  C   UNL     1      -2.465  11.165  17.441  0.00  0.00    +0.000 A 
ENDBRANCH   1  15
BRANCH   4  16
ATOM     16  C   UNL     1       0.751   9.060  21.426  0.00  0.00    +0.000 C 
ATOM     17  C   UNL     1      -0.679   8.583  21.703  0.00  0.00    +0.000 C 
BRANCH  16  18
ATOM     18  C   UNL     1       1.474   8.146  20.446  0.00  0.00    +0.000 A 
ATOM     19  C   UNL     1       1.857   8.629  19.188  0.00  0.00    +0.000 A 
ATOM     20  C   UNL     1       2.491   7.789  18.264  0.00  0.00    +0.000 A 
ATOM     21  C   UNL     1       2.762   6.459  18.548  0.00  0.00    +0.000 A 
ATOM     22  N   UNL     1       3.343   5.685  17.613  0.00  0.00    +0.000 NA
ATOM     23  C   UNL     1       3.583   4.391  17.921  0.00  0.00    +0.000 A 
ATOM     24  C   UNL     1       3.281   3.821  19.142  0.00  0.00    +0.000 A 
ATOM     25  C   UNL     1       2.686   4.626  20.107  0.00  0.00    +0.000 A 
ATOM     26  C   UNL     1       2.404   5.969  19.820  0.00  0.00    +0.000 A 
ATOM     27  C   UNL     1       1.773   6.812  20.757  0.00  0.00    +0.000 A 
ENDBRANCH  16  18
ENDBRANCH   4  16
TORSDOF 3
ENDMDL
MODEL 4
REMARK VINA RESULT:      -8.4      1.777      9.061
REMARK  Name = 
REMARK  6 active torsions:
REMARK  status: ('A' for Active; 'I' for Inactive)
REMARK    1  A    between atoms: C_1  and  C_2
REMARK    2  A    between atoms: N_4  and  C_5
REMARK    3  A    between atoms: C_7  and  C_8
REMARK    4  A    between atoms: C_11  and  C_12
REMARK    5  A    between atoms: C_12  and  C_13
REMARK    6  A    between atoms: C_12  and  C_14
REMARK                            x       y       z     vdW  Elec       q    Type
REMARK                         _______ _______ _______ _____ _____    ______ ____
ROOT
ATOM      1  C   UNL     1       2.352   6.682  19.989  0.00  0.00    +0.000 A 
ATOM      2  N   UNL     1       3.425   6.623  19.246  0.00  0.00    +0.000 NA
ATOM      3  N   UNL     1       3.863   5.346  19.361  0.00  0.00    +0.000 N 
ATOM      4  C   UNL     1       4.968   4.678  18.913  0.00  0.00    +0.000 A 
ATOM      5  N   UNL     1       4.922   3.439  19.395  0.00  0.00    +0.000 NA
ATOM      6  N   UNL     1       3.781   3.307  20.181  0.00  0.00    +0.000 NA
ATOM      7  C   UNL     1       3.189   4.464  20.131  0.00  0.00    +0.000 A 
ATOM      8  S   UNL     1       1.827   5.212  20.836  0.00  0.00    +0.000 S 
ENDROOT
BRANCH   1  15
ATOM      9  C   UNL     1       1.844   9.002  17.787  0.00  0.00    +0.000 C 
ATOM     10  C   UNL     1       1.389   8.943  19.200  0.00  0.00    +0.000 A 
ATOM     11  N   UNL     1       0.686   9.963  19.711  0.00  0.00    +0.000 NA
ATOM     12  N   UNL     1       0.455   9.599  20.979  0.00  0.00    +0.000 N 
ATOM     13  C   UNL     1      -0.252  10.490  21.867  0.00  0.00    +0.000 C 
ATOM     14  C   UNL     1       0.971   8.376  21.294  0.00  0.00    +0.000 A 
ATOM     15  C   UNL     1       1.612   7.910  20.159  0.00  0.00    +0.000 A 
ENDBRANCH   1  15
BRANCH   4  16
ATOM     16  C   UNL     1       6.056   5.322  18.109  0.00  0.00    +0.000 C 
ATOM     17  C   UNL     1       7.413   5.075  18.777  0.00  0.00    +0.000 C 
BRANCH  16  18
ATOM     18  C   UNL     1       6.054   4.885  16.650  0.00  0.00    +0.000 A 
ATOM     19  C   UNL     1       5.139   3.922  16.207  0.00  0.00    +0.000 A 
ATOM     20  C   UNL     1       5.150   3.486  14.876  0.00  0.00    +0.000 A 
ATOM     21  C   UNL     1       6.057   3.979  13.951  0.00  0.00    +0.000 A 
ATOM     22  N   UNL     1       6.047   3.503  12.692  0.00  0.00    +0.000 NA
ATOM     23  C   UNL     1       6.953   4.000  11.819  0.00  0.00    +0.000 A 
ATOM     24  C   UNL     1       7.875   4.977  12.139  0.00  0.00    +0.000 A 
ATOM     25  C   UNL     1       7.877   5.470  13.439  0.00  0.00    +0.000 A 
ATOM     26  C   UNL     1       6.966   4.968  14.378  0.00  0.00    +0.000 A 
ATOM     27  C   UNL     1       6.954   5.416  15.715  0.00  0.00    +0.000 A 
ENDBRANCH  16  18
ENDBRANCH   4  16
TORSDOF 3
ENDMDL
MODEL 5
REMARK VINA RESULT:      -8.3      2.217      3.472
REMARK  Name = 
REMARK  6 active torsions:
REMARK  status: ('A' for Active; 'I' for Inactive)
REMARK    1  A    between atoms: C_1  and  C_2
REMARK    2  A    between atoms: N_4  and  C_5
REMARK    3  A    between atoms: C_7  and  C_8
REMARK    4  A    between atoms: C_11  and  C_12
REMARK    5  A    between atoms: C_12  and  C_13
REMARK    6  A    between atoms: C_12  and  C_14
REMARK                            x       y       z     vdW  Elec       q    Type
REMARK                         _______ _______ _______ _____ _____    ______ ____
ROOT
ATOM      1  C   UNL     1       5.998   4.479  15.687  0.00  0.00    +0.000 A 
ATOM      2  N   UNL     1       4.844   4.779  16.220  0.00  0.00    +0.000 NA
ATOM      3  N   UNL     1       5.112   5.042  17.521  0.00  0.00    +0.000 N 
ATOM      4  C   UNL     1       4.339   5.321  18.612  0.00  0.00    +0.000 A 
ATOM      5  N   UNL     1       5.140   5.417  19.670  0.00  0.00    +0.000 NA
ATOM      6  N   UNL     1       6.450   5.179  19.263  0.00  0.00    +0.000 NA
ATOM      7  C   UNL     1       6.380   4.960  17.982  0.00  0.00    +0.000 A 
ATOM      8  S   UNL     1       7.441   4.515  16.723  0.00  0.00    +0.000 S 
ENDROOT
BRANCH   1  15
ATOM      9  C   UNL     1       8.090   5.623  13.496  0.00  0.00    +0.000 C 
ATOM     10  C   UNL     1       7.030   4.596  13.325  0.00  0.00    +0.000 A 
ATOM     11  N   UNL     1       6.840   4.037  12.122  0.00  0.00    +0.000 NA
ATOM     12  N   UNL     1       5.824   3.185  12.314  0.00  0.00    +0.000 N 
ATOM     13  C   UNL     1       5.303   2.423  11.204  0.00  0.00    +0.000 C 
ATOM     14  C   UNL     1       5.367   3.167  13.599  0.00  0.00    +0.000 A 
ATOM     15  C   UNL     1       6.120   4.093  14.302  0.00  0.00    +0.000 A 
ENDBRANCH   1  15
BRANCH   4  16
ATOM     16  C   UNL     1       2.842   5.388  18.572  0.00  0.00    +0.000 C 
ATOM     17  C   UNL     1       2.247   4.156  19.262  0.00  0.00    +0.000 C 
BRANCH  16  18
ATOM     18  C   UNL     1       2.290   6.684  19.151  0.00  0.00    +0.000 A 
ATOM     19  C   UNL     1       1.824   6.721  20.471  0.00  0.00    +0.000 A 
ATOM     20  C   UNL     1       1.281   7.897  21.004  0.00  0.00    +0.000 A 
ATOM     21  C   UNL     1       1.181   9.061  20.258  0.00  0.00    +0.000 A 
ATOM     22  N   UNL     1       0.621  10.155  20.806  0.00  0.00    +0.000 NA
ATOM     23  C   UNL     1       0.531  11.270  20.046  0.00  0.00    +0.000 A 
ATOM     24  C   UNL     1       0.993  11.356  18.748  0.00  0.00    +0.000 A 
ATOM     25  C   UNL     1       1.576  10.225  18.188  0.00  0.00    +0.000 A 
ATOM     26  C   UNL     1       1.671   9.044  18.937  0.00  0.00    +0.000 A 
ATOM     27  C   UNL     1       2.226   7.865  18.398  0.00  0.00    +0.000 A 
ENDBRANCH  16  18
ENDBRANCH   4  16
TORSDOF 3
ENDMDL
MODEL 6
REMARK VINA RESULT:      -8.2      2.994      3.430
REMARK  Name = 
REMARK  6 active torsions:
REMARK  status: ('A' for Active; 'I' for Inactive)
REMARK    1  A    between atoms: C_1  and  C_2
REMARK    2  A    between atoms: N_4  and  C_5
REMARK    3  A    between atoms: C_7  and  C_8
REMARK    4  A    between atoms: C_11  and  C_12
REMARK    5  A    between atoms: C_12  and  C_13
REMARK    6  A    between atoms: C_12  and  C_14
REMARK                            x       y       z     vdW  Elec       q    Type
REMARK                         _______ _______ _______ _____ _____    ______ ____
ROOT
ATOM      1  C   UNL     1       4.132   6.482  17.859  0.00  0.00    +0.000 A 
ATOM      2  N   UNL     1       3.489   7.599  17.645  0.00  0.00    +0.000 NA
ATOM      3  N   UNL     1       2.654   7.735  18.703  0.00  0.00    +0.000 N 
ATOM      4  C   UNL     1       1.670   8.626  19.028  0.00  0.00    +0.000 A 
ATOM      5  N   UNL     1       1.115   8.227  20.169  0.00  0.00    +0.000 NA
ATOM      6  N   UNL     1       1.737   7.051  20.582  0.00  0.00    +0.000 NA
ATOM      7  C   UNL     1       2.639   6.800  19.679  0.00  0.00    +0.000 A 
ATOM      8  S   UNL     1       3.766   5.567  19.337  0.00  0.00    +0.000 S 
ENDROOT
BRANCH   1  15
ATOM      9  C   UNL     1       7.234   7.353  17.532  0.00  0.00    +0.000 C 
ATOM     10  C   UNL     1       6.461   6.348  16.757  0.00  0.00    +0.000 A 
ATOM     11  N   UNL     1       7.057   5.687  15.754  0.00  0.00    +0.000 NA
ATOM     12  N   UNL     1       6.095   4.889  15.272  0.00  0.00    +0.000 N 
ATOM     13  C   UNL     1       6.364   4.045  14.132  0.00  0.00    +0.000 C 
ATOM     14  C   UNL     1       4.910   5.004  15.938  0.00  0.00    +0.000 A 
ATOM     15  C   UNL     1       5.096   5.967  16.917  0.00  0.00    +0.000 A 
ENDBRANCH   1  15
BRANCH   4  16
ATOM     16  C   UNL     1       1.267   9.771  18.150  0.00  0.00    +0.000 C 
ATOM     17  C   UNL     1      -0.212   9.640  17.769  0.00  0.00    +0.000 C 
BRANCH  16  18
ATOM     18  C   UNL     1       1.577  11.129  18.766  0.00  0.00    +0.000 A 
ATOM     19  C   UNL     1       0.995  11.495  19.987  0.00  0.00    +0.000 A 
ATOM     20  C   UNL     1       1.244  12.754  20.546  0.00  0.00    +0.000 A 
ATOM     21  C   UNL     1       2.064  13.684  19.924  0.00  0.00    +0.000 A 
ATOM     22  N   UNL     1       2.244  14.893  20.488  0.00  0.00    +0.000 NA
ATOM     23  C   UNL     1       3.041  15.778  19.848  0.00  0.00    +0.000 A 
ATOM     24  C   UNL     1       3.693  15.508  18.661  0.00  0.00    +0.000 A 
ATOM     25  C   UNL     1       3.509  14.256  18.086  0.00  0.00    +0.000 A 
ATOM     26  C   UNL     1       2.675  13.317  18.709  0.00  0.00    +0.000 A 
ATOM     27  C   UNL     1       2.434  12.048  18.145  0.00  0.00    +0.000 A 
ENDBRANCH  16  18
ENDBRANCH   4  16
TORSDOF 3
ENDMDL
MODEL 7
REMARK VINA RESULT:      -8.2      1.068      1.641
REMARK  Name = 
REMARK  6 active torsions:
REMARK  status: ('A' for Active; 'I' for Inactive)
REMARK    1  A    between atoms: C_1  and  C_2
REMARK    2  A    between atoms: N_4  and  C_5
REMARK    3  A    between atoms: C_7  and  C_8
REMARK    4  A    between atoms: C_11  and  C_12
REMARK    5  A    between atoms: C_12  and  C_13
REMARK    6  A    between atoms: C_12  and  C_14
REMARK                            x       y       z     vdW  Elec       q    Type
REMARK                         _______ _______ _______ _____ _____    ______ ____
ROOT
ATOM      1  C   UNL     1       4.254   5.541  18.178  0.00  0.00    +0.000 A 
ATOM      2  N   UNL     1       3.809   6.769  18.176  0.00  0.00    +0.000 NA
ATOM      3  N   UNL     1       2.889   6.812  19.169  0.00  0.00    +0.000 N 
ATOM      4  C   UNL     1       2.014   7.765  19.612  0.00  0.00    +0.000 A 
ATOM      5  N   UNL     1       1.283   7.230  20.586  0.00  0.00    +0.000 NA
ATOM      6  N   UNL     1       1.677   5.906  20.766  0.00  0.00    +0.000 NA
ATOM      7  C   UNL     1       2.628   5.707  19.902  0.00  0.00    +0.000 A 
ATOM      8  S   UNL     1       3.597   4.405  19.374  0.00  0.00    +0.000 S 
ENDROOT
BRANCH   1  15
ATOM      9  C   UNL     1       7.473   5.467  18.527  0.00  0.00    +0.000 C 
ATOM     10  C   UNL     1       6.653   5.056  17.358  0.00  0.00    +0.000 A 
ATOM     11  N   UNL     1       7.259   4.604  16.252  0.00  0.00    +0.000 NA
ATOM     12  N   UNL     1       6.251   4.343  15.410  0.00  0.00    +0.000 N 
ATOM     13  C   UNL     1       6.531   3.872  14.074  0.00  0.00    +0.000 C 
ATOM     14  C   UNL     1       5.020   4.597  15.941  0.00  0.00    +0.000 A 
ATOM     15  C   UNL     1       5.233   5.086  17.220  0.00  0.00    +0.000 A 
ENDBRANCH   1  15
BRANCH   4  16
ATOM     16  C   UNL     1       1.882   9.122  18.991  0.00  0.00    +0.000 C 
ATOM     17  C   UNL     1       1.855   8.996  17.464  0.00  0.00    +0.000 C 
BRANCH  16  18
ATOM     18  C   UNL     1       0.685   9.902  19.518  0.00  0.00    +0.000 A 
ATOM     19  C   UNL     1      -0.319  10.325  18.638  0.00  0.00    +0.000 A 
ATOM     20  C   UNL     1      -1.407  11.074  19.104  0.00  0.00    +0.000 A 
ATOM     21  C   UNL     1      -1.536  11.427  20.439  0.00  0.00    +0.000 A 
ATOM     22  N   UNL     1      -2.584  12.175  20.829  0.00  0.00    +0.000 NA
ATOM     23  C   UNL     1      -2.672  12.509  22.136  0.00  0.00    +0.000 A 
ATOM     24  C   UNL     1      -1.760  12.114  23.095  0.00  0.00    +0.000 A 
ATOM     25  C   UNL     1      -0.682  11.336  22.688  0.00  0.00    +0.000 A 
ATOM     26  C   UNL     1      -0.545  10.984  21.338  0.00  0.00    +0.000 A 
ATOM     27  C   UNL     1       0.548  10.224  20.876  0.00  0.00    +0.000 A 
ENDBRANCH  16  18
ENDBRANCH   4  16
TORSDOF 3
ENDMDL
MODEL 8
REMARK VINA RESULT:      -8.1      3.923      8.363
REMARK  Name = 
REMARK  6 active torsions:
REMARK  status: ('A' for Active; 'I' for Inactive)
REMARK    1  A    between atoms: C_1  and  C_2
REMARK    2  A    between atoms: N_4  and  C_5
REMARK    3  A    between atoms: C_7  and  C_8
REMARK    4  A    between atoms: C_11  and  C_12
REMARK    5  A    between atoms: C_12  and  C_13
REMARK    6  A    between atoms: C_12  and  C_14
REMARK                            x       y       z     vdW  Elec       q    Type
REMARK                         _______ _______ _______ _____ _____    ______ ____
ROOT
ATOM      1  C   UNL     1      -1.349  11.185  18.558  0.00  0.00    +0.000 A 
ATOM      2  N   UNL     1      -1.055  10.221  19.389  0.00  0.00    +0.000 NA
ATOM      3  N   UNL     1      -0.037  10.703  20.143  0.00  0.00    +0.000 N 
ATOM      4  C   UNL     1       0.764  10.166  21.110  0.00  0.00    +0.000 A 
ATOM      5  N   UNL     1       1.661  11.084  21.458  0.00  0.00    +0.000 NA
ATOM      6  N   UNL     1       1.450  12.228  20.692  0.00  0.00    +0.000 NA
ATOM      7  C   UNL     1       0.435  11.950  19.927  0.00  0.00    +0.000 A 
ATOM      8  S   UNL     1      -0.427  12.700  18.660  0.00  0.00    +0.000 S 
ENDROOT
BRANCH   1  15
ATOM      9  C   UNL     1      -4.495  11.907  18.815  0.00  0.00    +0.000 C 
ATOM     10  C   UNL     1      -3.761  11.340  17.654  0.00  0.00    +0.000 A 
ATOM     11  N   UNL     1      -4.429  11.040  16.532  0.00  0.00    +0.000 NA
ATOM     12  N   UNL     1      -3.490  10.549  15.713  0.00  0.00    +0.000 N 
ATOM     13  C   UNL     1      -3.857  10.069  14.402  0.00  0.00    +0.000 C 
ATOM     14  C   UNL     1      -2.242  10.538  16.263  0.00  0.00    +0.000 A 
ATOM     15  C   UNL     1      -2.371  11.034  17.550  0.00  0.00    +0.000 A 
ENDBRANCH   1  15
BRANCH   4  16
ATOM     16  C   UNL     1       0.662   8.745  21.577  0.00  0.00    +0.000 C 
ATOM     17  C   UNL     1      -0.811   8.360  21.757  0.00  0.00    +0.000 C 
BRANCH  16  18
ATOM     18  C   UNL     1       1.398   7.768  20.669  0.00  0.00    +0.000 A 
ATOM     19  C   UNL     1       1.416   6.402  20.978  0.00  0.00    +0.000 A 
ATOM     20  C   UNL     1       2.118   5.498  20.171  0.00  0.00    +0.000 A 
ATOM     21  C   UNL     1       2.820   5.909  19.048  0.00  0.00    +0.000 A 
ATOM     22  N   UNL     1       3.506   5.004  18.325  0.00  0.00    +0.000 NA
ATOM     23  C   UNL     1       4.187   5.443  17.243  0.00  0.00    +0.000 A 
ATOM     24  C   UNL     1       4.206   6.760  16.827  0.00  0.00    +0.000 A 
ATOM     25  C   UNL     1       3.491   7.690  17.573  0.00  0.00    +0.000 A 
ATOM     26  C   UNL     1       2.787   7.278  18.713  0.00  0.00    +0.000 A 
ATOM     27  C   UNL     1       2.075   8.191  19.517  0.00  0.00    +0.000 A 
ENDBRANCH  16  18
ENDBRANCH   4  16
TORSDOF 3
ENDMDL
MODEL 9
REMARK VINA RESULT:      -8.0      2.863      3.857
REMARK  Name = 
REMARK  6 active torsions:
REMARK  status: ('A' for Active; 'I' for Inactive)
REMARK    1  A    between atoms: C_1  and  C_2
REMARK    2  A    between atoms: N_4  and  C_5
REMARK    3  A    between atoms: C_7  and  C_8
REMARK    4  A    between atoms: C_11  and  C_12
REMARK    5  A    between atoms: C_12  and  C_13
REMARK    6  A    between atoms: C_12  and  C_14
REMARK                            x       y       z     vdW  Elec       q    Type
REMARK                         _______ _______ _______ _____ _____    ______ ____
ROOT
ATOM      1  C   UNL     1       2.986   6.252  19.019  0.00  0.00    +0.000 A 
ATOM      2  N   UNL     1       2.709   7.505  18.777  0.00  0.00    +0.000 NA
ATOM      3  N   UNL     1       1.872   7.881  19.774  0.00  0.00    +0.000 N 
ATOM      4  C   UNL     1       1.164   9.018  20.040  0.00  0.00    +0.000 A 
ATOM      5  N   UNL     1       0.435   8.803  21.132  0.00  0.00    +0.000 NA
ATOM      6  N   UNL     1       0.660   7.500  21.570  0.00  0.00    +0.000 NA
ATOM      7  C   UNL     1       1.517   6.996  20.731  0.00  0.00    +0.000 A 
ATOM      8  S   UNL     1       2.265   5.488  20.452  0.00  0.00    +0.000 S 
ENDROOT
BRANCH   1  15
ATOM      9  C   UNL     1       2.223   3.519  17.459  0.00  0.00    +0.000 C 
ATOM     10  C   UNL     1       3.507   4.266  17.456  0.00  0.00    +0.000 A 
ATOM     11  N   UNL     1       4.545   3.794  16.751  0.00  0.00    +0.000 NA
ATOM     12  N   UNL     1       5.523   4.681  16.974  0.00  0.00    +0.000 N 
ATOM     13  C   UNL     1       6.831   4.471  16.400  0.00  0.00    +0.000 C 
ATOM     14  C   UNL     1       5.145   5.713  17.783  0.00  0.00    +0.000 A 
ATOM     15  C   UNL     1       3.829   5.476  18.141  0.00  0.00    +0.000 A 
ENDBRANCH   1  15
BRANCH   4  16
ATOM     16  C   UNL     1       1.172  10.227  19.154  0.00  0.00    +0.000 C 
ATOM     17  C   UNL     1       2.080   9.980  17.944  0.00  0.00    +0.000 C 
BRANCH  16  18
ATOM     18  C   UNL     1      -0.225  10.665  18.735  0.00  0.00    +0.000 A 
ATOM     19  C   UNL     1      -0.938  11.580  19.520  0.00  0.00    +0.000 A 
ATOM     20  C   UNL     1      -2.237  11.964  19.165  0.00  0.00    +0.000 A 
ATOM     21  C   UNL     1      -2.868  11.461  18.037  0.00  0.00    +0.000 A 
ATOM     22  N   UNL     1      -4.130  11.838  17.758  0.00  0.00    +0.000 NA
ATOM     23  C   UNL     1      -4.717  11.319  16.656  0.00  0.00    +0.000 A 
ATOM     24  C   UNL     1      -4.093  10.441  15.793  0.00  0.00    +0.000 A 
ATOM     25  C   UNL     1      -2.788  10.059  16.082  0.00  0.00    +0.000 A 
ATOM     26  C   UNL     1      -2.151  10.560  17.225  0.00  0.00    +0.000 A 
ATOM     27  C   UNL     1      -0.840  10.176  17.574  0.00  0.00    +0.000 A 
ENDBRANCH  16  18
ENDBRANCH   4  16
TORSDOF 3
ENDMDL
