MODEL 1
REMARK VINA RESULT:      -7.4      0.000      0.000
REMARK  Name = 
REMARK  6 active torsions:
REMARK  status: ('A' for Active; 'I' for Inactive)
REMARK    1  A    between atoms: C_1  and  O_2
REMARK    2  A    between atoms: O_2  and  C_3
REMARK    3  A    between atoms: C_9  and  N_10
REMARK    4  A    between atoms: C_14  and  N_15
REMARK    5  A    between atoms: N_18  and  S_19
REMARK    6  A    between atoms: S_19  and  C_22
REMARK                            x       y       z     vdW  Elec       q    Type
REMARK                         _______ _______ _______ _____ _____    ______ ____
ROOT
ATOM      1  N   UNL     1       3.987   5.641  18.559  0.00  0.00    +0.000 N 
ATOM      2  C   UNL     1       3.158   4.911  19.376  0.00  0.00    +0.000 C 
ATOM      3  O   UNL     1       3.424   3.910  20.028  0.00  0.00    +0.000 OA
ATOM      4  C   UNL     1       1.823   5.592  19.439  0.00  0.00    +0.000 C 
ATOM      5  C   UNL     1       2.044   6.930  18.732  0.00  0.00    +0.000 C 
ATOM      6  C   UNL     1       3.412   6.797  18.099  0.00  0.00    +0.000 C 
ATOM      7  O   UNL     1       3.899   7.611  17.327  0.00  0.00    +0.000 OA
ENDROOT
BRANCH   1  14
ATOM      8  C   UNL     1       5.716   4.732  17.087  0.00  0.00    +0.000 A 
ATOM      9  C   UNL     1       7.056   4.388  16.883  0.00  0.00    +0.000 A 
ATOM     10  C   UNL     1       7.999   4.586  17.897  0.00  0.00    +0.000 A 
ATOM     11  C   UNL     1       7.611   5.152  19.107  0.00  0.00    +0.000 A 
ATOM     12 CL   UNL     1       8.766   5.374  20.363  0.00  0.00    +0.000 Cl
ATOM     13  C   UNL     1       6.289   5.525  19.314  0.00  0.00    +0.000 A 
ATOM     14  C   UNL     1       5.331   5.300  18.313  0.00  0.00    +0.000 A 
BRANCH   8  16
ATOM     15  C   UNL     1       5.208   4.559  14.775  0.00  0.00    +0.000 C 
ATOM     16  O   UNL     1       4.750   4.670  16.115  0.00  0.00    +0.000 OA
ENDBRANCH   8  16
ENDBRANCH   1  14
BRANCH   5  17
ATOM     17  N   UNL     1       1.940   8.089  19.638  0.00  0.00    +0.000 NA
ATOM     18  C   UNL     1       1.479   9.366  19.054  0.00  0.00    +0.000 C 
ATOM     19  C   UNL     1       0.010   9.781  19.316  0.00  0.00    +0.000 C 
ATOM     20  N   UNL     1      -0.394   9.587  20.732  0.00  0.00    +0.000 NA
ATOM     21  C   UNL     1      -0.155   8.167  21.119  0.00  0.00    +0.000 C 
ATOM     22  C   UNL     1       1.329   7.790  20.949  0.00  0.00    +0.000 C 
BRANCH  20  23
ATOM     23  S   UNL     1       0.136  10.743  21.873  0.00  0.00    +0.000 S 
ATOM     24  O   UNL     1       0.447  10.064  23.110  0.00  0.00    +0.000 OA
ATOM     25  O   UNL     1       1.133  11.577  21.233  0.00  0.00    +0.000 OA
BRANCH  23  26
ATOM     26  C   UNL     1      -1.285  11.746  22.152  0.00  0.00    +0.000 A 
ATOM     27  C   UNL     1      -2.026  11.607  23.332  0.00  0.00    +0.000 A 
ATOM     28  C   UNL     1      -3.172  12.382  23.521  0.00  0.00    +0.000 A 
ATOM     29  C   UNL     1      -3.574  13.286  22.537  0.00  0.00    +0.000 A 
ATOM     30  C   UNL     1      -2.837  13.408  21.358  0.00  0.00    +0.000 A 
ATOM     31  C   UNL     1      -1.696  12.632  21.166  0.00  0.00    +0.000 A 
ATOM     32  F   UNL     1      -1.018  12.766  20.020  0.00  0.00    +0.000 F 
ENDBRANCH  23  26
ENDBRANCH  20  23
ENDBRANCH   5  17
TORSDOF 5
ENDMDL
MODEL 2
REMARK VINA RESULT:      -7.3      3.938      9.677
REMARK  Name = 
REMARK  6 active torsions:
REMARK  status: ('A' for Active; 'I' for Inactive)
REMARK    1  A    between atoms: C_1  and  O_2
REMARK    2  A    between atoms: O_2  and  C_3
REMARK    3  A    between atoms: C_9  and  N_10
REMARK    4  A    between atoms: C_14  and  N_15
REMARK    5  A    between atoms: N_18  and  S_19
REMARK    6  A    between atoms: S_19  and  C_22
REMARK                            x       y       z     vdW  Elec       q    Type
REMARK                         _______ _______ _______ _____ _____    ______ ____
ROOT
ATOM      1  N   UNL     1       0.098   9.616  19.928  0.00  0.00    +0.000 N 
ATOM      2  C   UNL     1       0.036   8.792  21.025  0.00  0.00    +0.000 C 
ATOM      3  O   UNL     1      -0.915   8.589  21.769  0.00  0.00    +0.000 OA
ATOM      4  C   UNL     1       1.338   8.059  21.150  0.00  0.00    +0.000 C 
ATOM      5  C   UNL     1       2.090   8.394  19.861  0.00  0.00    +0.000 C 
ATOM      6  C   UNL     1       1.268   9.492  19.223  0.00  0.00    +0.000 C 
ATOM      7  O   UNL     1       1.610  10.129  18.236  0.00  0.00    +0.000 OA
ENDROOT
BRANCH   1  14
ATOM      8  C   UNL     1      -1.308  11.602  20.185  0.00  0.00    +0.000 A 
ATOM      9  C   UNL     1      -2.392  12.367  19.743  0.00  0.00    +0.000 A 
ATOM     10  C   UNL     1      -3.151  11.950  18.645  0.00  0.00    +0.000 A 
ATOM     11  C   UNL     1      -2.814  10.782  17.969  0.00  0.00    +0.000 A 
ATOM     12 CL   UNL     1      -3.762  10.257  16.633  0.00  0.00    +0.000 Cl
ATOM     13  C   UNL     1      -1.723  10.026  18.379  0.00  0.00    +0.000 A 
ATOM     14  C   UNL     1      -0.976  10.422  19.499  0.00  0.00    +0.000 A 
BRANCH   8  16
ATOM     15  C   UNL     1      -0.999  12.073  22.490  0.00  0.00    +0.000 C 
ATOM     16  O   UNL     1      -0.450  11.988  21.183  0.00  0.00    +0.000 OA
ENDBRANCH   8  16
ENDBRANCH   1  14
BRANCH   5  17
ATOM     17  N   UNL     1       2.274   7.228  18.977  0.00  0.00    +0.000 NA
ATOM     18  C   UNL     1       3.392   7.278  18.012  0.00  0.00    +0.000 C 
ATOM     19  C   UNL     1       4.669   6.473  18.356  0.00  0.00    +0.000 C 
ATOM     20  N   UNL     1       4.365   5.106  18.852  0.00  0.00    +0.000 NA
ATOM     21  C   UNL     1       3.452   5.203  20.027  0.00  0.00    +0.000 C 
ATOM     22  C   UNL     1       2.141   5.920  19.651  0.00  0.00    +0.000 C 
BRANCH  20  23
ATOM     23  S   UNL     1       3.930   3.923  17.698  0.00  0.00    +0.000 S 
ATOM     24  O   UNL     1       4.190   2.616  18.254  0.00  0.00    +0.000 OA
ATOM     25  O   UNL     1       2.609   4.250  17.201  0.00  0.00    +0.000 OA
BRANCH  23  26
ATOM     26  C   UNL     1       5.065   4.182  16.376  0.00  0.00    +0.000 A 
ATOM     27  C   UNL     1       4.607   4.236  15.053  0.00  0.00    +0.000 A 
ATOM     28  C   UNL     1       5.524   4.403  14.014  0.00  0.00    +0.000 A 
ATOM     29  C   UNL     1       6.887   4.510  14.295  0.00  0.00    +0.000 A 
ATOM     30  C   UNL     1       7.335   4.441  15.615  0.00  0.00    +0.000 A 
ATOM     31  C   UNL     1       6.422   4.270  16.652  0.00  0.00    +0.000 A 
ATOM     32  F   UNL     1       6.887   4.197  17.906  0.00  0.00    +0.000 F 
ENDBRANCH  23  26
ENDBRANCH  20  23
ENDBRANCH   5  17
TORSDOF 5
ENDMDL
MODEL 3
REMARK VINA RESULT:      -7.1      0.829      1.176
REMARK  Name = 
REMARK  6 active torsions:
REMARK  status: ('A' for Active; 'I' for Inactive)
REMARK    1  A    between atoms: C_1  and  O_2
REMARK    2  A    between atoms: O_2  and  C_3
REMARK    3  A    between atoms: C_9  and  N_10
REMARK    4  A    between atoms: C_14  and  N_15
REMARK    5  A    between atoms: N_18  and  S_19
REMARK    6  A    between atoms: S_19  and  C_22
REMARK                            x       y       z     vdW  Elec       q    Type
REMARK                         _______ _______ _______ _____ _____    ______ ____
ROOT
ATOM      1  N   UNL     1       3.933   5.687  18.525  0.00  0.00    +0.000 N 
ATOM      2  C   UNL     1       3.101   4.987  19.364  0.00  0.00    +0.000 C 
ATOM      3  O   UNL     1       3.360   3.998  20.037  0.00  0.00    +0.000 OA
ATOM      4  C   UNL     1       1.777   5.688  19.423  0.00  0.00    +0.000 C 
ATOM      5  C   UNL     1       2.009   7.006  18.684  0.00  0.00    +0.000 C 
ATOM      6  C   UNL     1       3.370   6.841  18.043  0.00  0.00    +0.000 C 
ATOM      7  O   UNL     1       3.862   7.630  17.248  0.00  0.00    +0.000 OA
ENDROOT
BRANCH   1  14
ATOM      8  C   UNL     1       5.636   4.718  17.060  0.00  0.00    +0.000 A 
ATOM      9  C   UNL     1       6.971   4.352  16.853  0.00  0.00    +0.000 A 
ATOM     10  C   UNL     1       7.926   4.564  17.853  0.00  0.00    +0.000 A 
ATOM     11  C   UNL     1       7.556   5.166  19.051  0.00  0.00    +0.000 A 
ATOM     12 CL   UNL     1       8.726   5.405  20.291  0.00  0.00    +0.000 Cl
ATOM     13  C   UNL     1       6.240   5.561  19.261  0.00  0.00    +0.000 A 
ATOM     14  C   UNL     1       5.271   5.323  18.275  0.00  0.00    +0.000 A 
BRANCH   8  16
ATOM     15  C   UNL     1       5.103   4.631  14.750  0.00  0.00    +0.000 C 
ATOM     16  O   UNL     1       4.661   4.643  16.100  0.00  0.00    +0.000 OA
ENDBRANCH   8  16
ENDBRANCH   1  14
BRANCH   5  17
ATOM     17  N   UNL     1       1.929   8.186  19.564  0.00  0.00    +0.000 NA
ATOM     18  C   UNL     1       1.401   9.435  18.976  0.00  0.00    +0.000 C 
ATOM     19  C   UNL     1      -0.060   9.821  19.313  0.00  0.00    +0.000 C 
ATOM     20  N   UNL     1      -0.375   9.656  20.756  0.00  0.00    +0.000 NA
ATOM     21  C   UNL     1      -0.077   8.253  21.165  0.00  0.00    +0.000 C 
ATOM     22  C   UNL     1       1.404   7.908  20.916  0.00  0.00    +0.000 C 
BRANCH  20  23
ATOM     23  S   UNL     1       0.190  10.855  21.833  0.00  0.00    +0.000 S 
ATOM     24  O   UNL     1       0.290  10.282  23.155  0.00  0.00    +0.000 OA
ATOM     25  O   UNL     1       1.345  11.489  21.229  0.00  0.00    +0.000 OA
BRANCH  23  26
ATOM     26  C   UNL     1      -1.107  12.048  21.860  0.00  0.00    +0.000 A 
ATOM     27  C   UNL     1      -1.061  13.160  21.011  0.00  0.00    +0.000 A 
ATOM     28  C   UNL     1      -2.077  14.116  21.072  0.00  0.00    +0.000 A 
ATOM     29  C   UNL     1      -3.127  13.961  21.977  0.00  0.00    +0.000 A 
ATOM     30  C   UNL     1      -3.158  12.857  22.830  0.00  0.00    +0.000 A 
ATOM     31  C   UNL     1      -2.142  11.905  22.773  0.00  0.00    +0.000 A 
ATOM     32  F   UNL     1      -2.197  10.863  23.612  0.00  0.00    +0.000 F 
ENDBRANCH  23  26
ENDBRANCH  20  23
ENDBRANCH   5  17
TORSDOF 5
ENDMDL
MODEL 4
REMARK VINA RESULT:      -7.0      4.286      6.745
REMARK  Name = 
REMARK  6 active torsions:
REMARK  status: ('A' for Active; 'I' for Inactive)
REMARK    1  A    between atoms: C_1  and  O_2
REMARK    2  A    between atoms: O_2  and  C_3
REMARK    3  A    between atoms: C_9  and  N_10
REMARK    4  A    between atoms: C_14  and  N_15
REMARK    5  A    between atoms: N_18  and  S_19
REMARK    6  A    between atoms: S_19  and  C_22
REMARK                            x       y       z     vdW  Elec       q    Type
REMARK                         _______ _______ _______ _____ _____    ______ ____
ROOT
ATOM      1  N   UNL     1       0.029  10.819  19.721  0.00  0.00    +0.000 N 
ATOM      2  C   UNL     1      -1.175  10.977  19.081  0.00  0.00    +0.000 C 
ATOM      3  O   UNL     1      -1.850  10.127  18.514  0.00  0.00    +0.000 OA
ATOM      4  C   UNL     1      -1.630  12.395  19.253  0.00  0.00    +0.000 C 
ATOM      5  C   UNL     1      -0.647  12.991  20.261  0.00  0.00    +0.000 C 
ATOM      6  C   UNL     1       0.440  11.945  20.388  0.00  0.00    +0.000 C 
ATOM      7  O   UNL     1       1.485  12.103  21.002  0.00  0.00    +0.000 OA
ENDROOT
BRANCH   1  14
ATOM      8  C   UNL     1       0.594   8.758  20.912  0.00  0.00    +0.000 A 
ATOM      9  C   UNL     1       1.308   7.556  20.954  0.00  0.00    +0.000 A 
ATOM     10  C   UNL     1       2.156   7.200  19.899  0.00  0.00    +0.000 A 
ATOM     11  C   UNL     1       2.271   8.030  18.789  0.00  0.00    +0.000 A 
ATOM     12 CL   UNL     1       3.331   7.604  17.502  0.00  0.00    +0.000 Cl
ATOM     13  C   UNL     1       1.546   9.214  18.721  0.00  0.00    +0.000 A 
ATOM     14  C   UNL     1       0.719   9.592  19.789  0.00  0.00    +0.000 A 
BRANCH   8  16
ATOM     15  C   UNL     1       0.165   9.447  23.142  0.00  0.00    +0.000 C 
ATOM     16  O   UNL     1      -0.334   9.134  21.849  0.00  0.00    +0.000 OA
ENDBRANCH   8  16
ENDBRANCH   1  14
BRANCH   5  17
ATOM     17  N   UNL     1      -1.273  13.328  21.553  0.00  0.00    +0.000 NA
ATOM     18  C   UNL     1      -0.869  14.598  22.191  0.00  0.00    +0.000 C 
ATOM     19  C   UNL     1      -1.845  15.795  22.080  0.00  0.00    +0.000 C 
ATOM     20  N   UNL     1      -3.254  15.409  22.349  0.00  0.00    +0.000 NA
ATOM     21  C   UNL     1      -3.644  14.304  21.427  0.00  0.00    +0.000 C 
ATOM     22  C   UNL     1      -2.728  13.079  21.613  0.00  0.00    +0.000 C 
BRANCH  20  23
ATOM     23  S   UNL     1      -3.717  15.183  23.978  0.00  0.00    +0.000 S 
ATOM     24  O   UNL     1      -2.865  14.176  24.567  0.00  0.00    +0.000 OA
ATOM     25  O   UNL     1      -3.829  16.489  24.595  0.00  0.00    +0.000 OA
BRANCH  23  26
ATOM     26  C   UNL     1      -5.343  14.514  23.868  0.00  0.00    +0.000 A 
ATOM     27  C   UNL     1      -6.440  15.358  23.654  0.00  0.00    +0.000 A 
ATOM     28  C   UNL     1      -7.726  14.817  23.608  0.00  0.00    +0.000 A 
ATOM     29  C   UNL     1      -7.913  13.445  23.780  0.00  0.00    +0.000 A 
ATOM     30  C   UNL     1      -6.816  12.614  24.007  0.00  0.00    +0.000 A 
ATOM     31  C   UNL     1      -5.532  13.153  24.057  0.00  0.00    +0.000 A 
ATOM     32  F   UNL     1      -4.502  12.328  24.288  0.00  0.00    +0.000 F 
ENDBRANCH  23  26
ENDBRANCH  20  23
ENDBRANCH   5  17
TORSDOF 5
ENDMDL
MODEL 5
REMARK VINA RESULT:      -7.0      4.282      6.655
REMARK  Name = 
REMARK  6 active torsions:
REMARK  status: ('A' for Active; 'I' for Inactive)
REMARK    1  A    between atoms: C_1  and  O_2
REMARK    2  A    between atoms: O_2  and  C_3
REMARK    3  A    between atoms: C_9  and  N_10
REMARK    4  A    between atoms: C_14  and  N_15
REMARK    5  A    between atoms: N_18  and  S_19
REMARK    6  A    between atoms: S_19  and  C_22
REMARK                            x       y       z     vdW  Elec       q    Type
REMARK                         _______ _______ _______ _____ _____    ______ ____
ROOT
ATOM      1  N   UNL     1       0.067  10.708  19.674  0.00  0.00    +0.000 N 
ATOM      2  C   UNL     1      -1.136  10.848  19.027  0.00  0.00    +0.000 C 
ATOM      3  O   UNL     1      -1.795   9.989  18.455  0.00  0.00    +0.000 OA
ATOM      4  C   UNL     1      -1.614  12.259  19.198  0.00  0.00    +0.000 C 
ATOM      5  C   UNL     1      -0.645  12.869  20.212  0.00  0.00    +0.000 C 
ATOM      6  C   UNL     1       0.457  11.840  20.343  0.00  0.00    +0.000 C 
ATOM      7  O   UNL     1       1.496  12.013  20.964  0.00  0.00    +0.000 OA
ENDROOT
BRANCH   1  14
ATOM      8  C   UNL     1       0.661   8.657  20.867  0.00  0.00    +0.000 A 
ATOM      9  C   UNL     1       1.393   7.466  20.911  0.00  0.00    +0.000 A 
ATOM     10  C   UNL     1       2.248   7.122  19.859  0.00  0.00    +0.000 A 
ATOM     11  C   UNL     1       2.353   7.953  18.749  0.00  0.00    +0.000 A 
ATOM     12 CL   UNL     1       3.422   7.541  17.465  0.00  0.00    +0.000 Cl
ATOM     13  C   UNL     1       1.611   9.125  18.678  0.00  0.00    +0.000 A 
ATOM     14  C   UNL     1       0.775   9.492  19.744  0.00  0.00    +0.000 A 
BRANCH   8  16
ATOM     15  C   UNL     1       0.220   9.393  23.080  0.00  0.00    +0.000 C 
ATOM     16  O   UNL     1      -0.275   9.019  21.802  0.00  0.00    +0.000 OA
ENDBRANCH   8  16
ENDBRANCH   1  14
BRANCH   5  17
ATOM     17  N   UNL     1      -1.283  13.195  21.500  0.00  0.00    +0.000 NA
ATOM     18  C   UNL     1      -0.865  14.446  22.167  0.00  0.00    +0.000 C 
ATOM     19  C   UNL     1      -1.818  15.663  22.063  0.00  0.00    +0.000 C 
ATOM     20  N   UNL     1      -3.237  15.298  22.306  0.00  0.00    +0.000 NA
ATOM     21  C   UNL     1      -3.634  14.217  21.358  0.00  0.00    +0.000 C 
ATOM     22  C   UNL     1      -2.743  12.972  21.536  0.00  0.00    +0.000 C 
BRANCH  20  23
ATOM     23  S   UNL     1      -3.727  15.052  23.924  0.00  0.00    +0.000 S 
ATOM     24  O   UNL     1      -2.888  14.035  24.513  0.00  0.00    +0.000 OA
ATOM     25  O   UNL     1      -3.846  16.350  24.556  0.00  0.00    +0.000 OA
BRANCH  23  26
ATOM     26  C   UNL     1      -5.354  14.390  23.779  0.00  0.00    +0.000 A 
ATOM     27  C   UNL     1      -5.598  13.046  24.087  0.00  0.00    +0.000 A 
ATOM     28  C   UNL     1      -6.885  12.527  23.930  0.00  0.00    +0.000 A 
ATOM     29  C   UNL     1      -7.916  13.344  23.466  0.00  0.00    +0.000 A 
ATOM     30  C   UNL     1      -7.660  14.679  23.148  0.00  0.00    +0.000 A 
ATOM     31  C   UNL     1      -6.376  15.197  23.300  0.00  0.00    +0.000 A 
ATOM     32  F   UNL     1      -6.163  16.479  22.977  0.00  0.00    +0.000 F 
ENDBRANCH  23  26
ENDBRANCH  20  23
ENDBRANCH   5  17
TORSDOF 5
ENDMDL
MODEL 6
REMARK VINA RESULT:      -7.0      1.831      2.448
REMARK  Name = 
REMARK  6 active torsions:
REMARK  status: ('A' for Active; 'I' for Inactive)
REMARK    1  A    between atoms: C_1  and  O_2
REMARK    2  A    between atoms: O_2  and  C_3
REMARK    3  A    between atoms: C_9  and  N_10
REMARK    4  A    between atoms: C_14  and  N_15
REMARK    5  A    between atoms: N_18  and  S_19
REMARK    6  A    between atoms: S_19  and  C_22
REMARK                            x       y       z     vdW  Elec       q    Type
REMARK                         _______ _______ _______ _____ _____    ______ ____
ROOT
ATOM      1  N   UNL     1       3.829   5.253  18.079  0.00  0.00    +0.000 N 
ATOM      2  C   UNL     1       3.423   4.504  19.156  0.00  0.00    +0.000 C 
ATOM      3  O   UNL     1       4.002   3.568  19.691  0.00  0.00    +0.000 OA
ATOM      4  C   UNL     1       2.138   5.072  19.680  0.00  0.00    +0.000 C 
ATOM      5  C   UNL     1       1.959   6.382  18.910  0.00  0.00    +0.000 C 
ATOM      6  C   UNL     1       3.017   6.329  17.830  0.00  0.00    +0.000 C 
ATOM      7  O   UNL     1       3.113   7.135  16.915  0.00  0.00    +0.000 OA
ENDROOT
BRANCH   1  14
ATOM      8  C   UNL     1       6.271   5.307  17.947  0.00  0.00    +0.000 A 
ATOM      9  C   UNL     1       7.437   5.074  17.209  0.00  0.00    +0.000 A 
ATOM     10  C   UNL     1       7.360   4.575  15.904  0.00  0.00    +0.000 A 
ATOM     11  C   UNL     1       6.121   4.284  15.343  0.00  0.00    +0.000 A 
ATOM     12 CL   UNL     1       6.025   3.692  13.730  0.00  0.00    +0.000 Cl
ATOM     13  C   UNL     1       4.956   4.483  16.074  0.00  0.00    +0.000 A 
ATOM     14  C   UNL     1       5.024   5.013  17.371  0.00  0.00    +0.000 A 
BRANCH   8  16
ATOM     15  C   UNL     1       7.507   5.666  19.941  0.00  0.00    +0.000 C 
ATOM     16  O   UNL     1       6.259   5.694  19.263  0.00  0.00    +0.000 OA
ENDBRANCH   8  16
ENDBRANCH   1  14
BRANCH   5  17
ATOM     17  N   UNL     1       2.071   7.577  19.766  0.00  0.00    +0.000 NA
ATOM     18  C   UNL     1       1.911   8.894  19.114  0.00  0.00    +0.000 C 
ATOM     19  C   UNL     1       0.555   9.620  19.294  0.00  0.00    +0.000 C 
ATOM     20  N   UNL     1       0.070   9.582  20.698  0.00  0.00    +0.000 NA
ATOM     21  C   UNL     1      -0.011   8.163  21.149  0.00  0.00    +0.000 C 
ATOM     22  C   UNL     1       1.365   7.475  21.059  0.00  0.00    +0.000 C 
BRANCH  20  23
ATOM     23  S   UNL     1       0.792  10.652  21.816  0.00  0.00    +0.000 S 
ATOM     24  O   UNL     1       1.148   9.912  23.004  0.00  0.00    +0.000 OA
ATOM     25  O   UNL     1       1.798  11.421  21.112  0.00  0.00    +0.000 OA
BRANCH  23  26
ATOM     26  C   UNL     1      -0.510  11.761  22.244  0.00  0.00    +0.000 A 
ATOM     27  C   UNL     1      -0.457  13.100  21.839  0.00  0.00    +0.000 A 
ATOM     28  C   UNL     1      -1.477  13.975  22.219  0.00  0.00    +0.000 A 
ATOM     29  C   UNL     1      -2.537  13.514  23.000  0.00  0.00    +0.000 A 
ATOM     30  C   UNL     1      -2.575  12.180  23.410  0.00  0.00    +0.000 A 
ATOM     31  C   UNL     1      -1.555  11.308  23.035  0.00  0.00    +0.000 A 
ATOM     32  F   UNL     1      -1.617  10.038  23.455  0.00  0.00    +0.000 F 
ENDBRANCH  23  26
ENDBRANCH  20  23
ENDBRANCH   5  17
TORSDOF 5
ENDMDL
MODEL 7
REMARK VINA RESULT:      -6.9      6.259      8.723
REMARK  Name = 
REMARK  6 active torsions:
REMARK  status: ('A' for Active; 'I' for Inactive)
REMARK    1  A    between atoms: C_1  and  O_2
REMARK    2  A    between atoms: O_2  and  C_3
REMARK    3  A    between atoms: C_9  and  N_10
REMARK    4  A    between atoms: C_14  and  N_15
REMARK    5  A    between atoms: N_18  and  S_19
REMARK    6  A    between atoms: S_19  and  C_22
REMARK                            x       y       z     vdW  Elec       q    Type
REMARK                         _______ _______ _______ _____ _____    ______ ____
ROOT
ATOM      1  N   UNL     1       4.045  16.351  19.173  0.00  0.00    +0.000 N 
ATOM      2  C   UNL     1       3.086  16.814  18.306  0.00  0.00    +0.000 C 
ATOM      3  O   UNL     1       3.192  17.040  17.107  0.00  0.00    +0.000 OA
ATOM      4  C   UNL     1       1.786  16.930  19.044  0.00  0.00    +0.000 C 
ATOM      5  C   UNL     1       2.055  16.268  20.396  0.00  0.00    +0.000 C 
ATOM      6  C   UNL     1       3.554  16.058  20.419  0.00  0.00    +0.000 C 
ATOM      7  O   UNL     1       4.184  15.674  21.393  0.00  0.00    +0.000 OA
ENDROOT
BRANCH   1  14
ATOM      8  C   UNL     1       6.368  17.078  18.922  0.00  0.00    +0.000 A 
ATOM      9  C   UNL     1       7.676  16.791  18.516  0.00  0.00    +0.000 A 
ATOM     10  C   UNL     1       7.988  15.544  17.965  0.00  0.00    +0.000 A 
ATOM     11  C   UNL     1       7.001  14.571  17.843  0.00  0.00    +0.000 A 
ATOM     12 CL   UNL     1       7.380  13.045  17.144  0.00  0.00    +0.000 Cl
ATOM     13  C   UNL     1       5.704  14.831  18.268  0.00  0.00    +0.000 A 
ATOM     14  C   UNL     1       5.377  16.091  18.792  0.00  0.00    +0.000 A 
BRANCH   8  16
ATOM     15  C   UNL     1       6.641  18.498  20.803  0.00  0.00    +0.000 C 
ATOM     16  O   UNL     1       5.998  18.232  19.565  0.00  0.00    +0.000 OA
ENDBRANCH   8  16
ENDBRANCH   1  14
BRANCH   5  17
ATOM     17  N   UNL     1       1.297  15.019  20.591  0.00  0.00    +0.000 NA
ATOM     18  C   UNL     1      -0.037  14.930  19.962  0.00  0.00    +0.000 C 
ATOM     19  C   UNL     1      -0.158  14.103  18.658  0.00  0.00    +0.000 C 
ATOM     20  N   UNL     1       0.556  12.803  18.739  0.00  0.00    +0.000 NA
ATOM     21  C   UNL     1       1.983  13.048  19.095  0.00  0.00    +0.000 C 
ATOM     22  C   UNL     1       2.097  13.786  20.443  0.00  0.00    +0.000 C 
BRANCH  20  23
ATOM     23  S   UNL     1      -0.196  11.539  19.610  0.00  0.00    +0.000 S 
ATOM     24  O   UNL     1       0.662  10.378  19.575  0.00  0.00    +0.000 OA
ATOM     25  O   UNL     1      -0.639  12.076  20.880  0.00  0.00    +0.000 OA
BRANCH  23  26
ATOM     26  C   UNL     1      -1.637  11.172  18.665  0.00  0.00    +0.000 A 
ATOM     27  C   UNL     1      -2.861  11.775  18.982  0.00  0.00    +0.000 A 
ATOM     28  C   UNL     1      -4.002  11.444  18.248  0.00  0.00    +0.000 A 
ATOM     29  C   UNL     1      -3.919  10.514  17.211  0.00  0.00    +0.000 A 
ATOM     30  C   UNL     1      -2.699   9.908  16.912  0.00  0.00    +0.000 A 
ATOM     31  C   UNL     1      -1.561  10.234  17.646  0.00  0.00    +0.000 A 
ATOM     32  F   UNL     1      -0.408   9.626  17.339  0.00  0.00    +0.000 F 
ENDBRANCH  23  26
ENDBRANCH  20  23
ENDBRANCH   5  17
TORSDOF 5
ENDMDL
MODEL 8
REMARK VINA RESULT:      -6.8      1.306      1.357
REMARK  Name = 
REMARK  6 active torsions:
REMARK  status: ('A' for Active; 'I' for Inactive)
REMARK    1  A    between atoms: C_1  and  O_2
REMARK    2  A    between atoms: O_2  and  C_3
REMARK    3  A    between atoms: C_9  and  N_10
REMARK    4  A    between atoms: C_14  and  N_15
REMARK    5  A    between atoms: N_18  and  S_19
REMARK    6  A    between atoms: S_19  and  C_22
REMARK                            x       y       z     vdW  Elec       q    Type
REMARK                         _______ _______ _______ _____ _____    ______ ____
ROOT
ATOM      1  N   UNL     1       3.707   6.351  18.416  0.00  0.00    +0.000 N 
ATOM      2  C   UNL     1       3.422   5.573  19.511  0.00  0.00    +0.000 C 
ATOM      3  O   UNL     1       4.148   4.768  20.080  0.00  0.00    +0.000 OA
ATOM      4  C   UNL     1       2.050   5.923  20.006  0.00  0.00    +0.000 C 
ATOM      5  C   UNL     1       1.656   7.158  19.195  0.00  0.00    +0.000 C 
ATOM      6  C   UNL     1       2.723   7.261  18.126  0.00  0.00    +0.000 C 
ATOM      7  O   UNL     1       2.691   8.045  17.189  0.00  0.00    +0.000 OA
ENDROOT
BRANCH   1  14
ATOM      8  C   UNL     1       5.209   5.273  16.814  0.00  0.00    +0.000 A 
ATOM      9  C   UNL     1       6.447   5.246  16.162  0.00  0.00    +0.000 A 
ATOM     10  C   UNL     1       7.411   6.222  16.435  0.00  0.00    +0.000 A 
ATOM     11  C   UNL     1       7.131   7.241  17.340  0.00  0.00    +0.000 A 
ATOM     12 CL   UNL     1       8.325   8.429  17.694  0.00  0.00    +0.000 Cl
ATOM     13  C   UNL     1       5.896   7.298  17.973  0.00  0.00    +0.000 A 
ATOM     14  C   UNL     1       4.936   6.304  17.728  0.00  0.00    +0.000 A 
BRANCH   8  16
ATOM     15  C   UNL     1       4.279   3.101  17.046  0.00  0.00    +0.000 C 
ATOM     16  O   UNL     1       4.172   4.421  16.530  0.00  0.00    +0.000 OA
ENDBRANCH   8  16
ENDBRANCH   1  14
BRANCH   5  17
ATOM     17  N   UNL     1       1.545   8.379  20.015  0.00  0.00    +0.000 NA
ATOM     18  C   UNL     1       1.047   9.600  19.348  0.00  0.00    +0.000 C 
ATOM     19  C   UNL     1      -0.425  10.005  19.607  0.00  0.00    +0.000 C 
ATOM     20  N   UNL     1      -0.799   9.909  21.042  0.00  0.00    +0.000 NA
ATOM     21  C   UNL     1      -0.524   8.526  21.528  0.00  0.00    +0.000 C 
ATOM     22  C   UNL     1       0.965   8.166  21.356  0.00  0.00    +0.000 C 
BRANCH  20  23
ATOM     23  S   UNL     1      -0.272  11.156  22.084  0.00  0.00    +0.000 S 
ATOM     24  O   UNL     1      -0.025  10.595  23.391  0.00  0.00    +0.000 OA
ATOM     25  O   UNL     1       0.771  11.895  21.402  0.00  0.00    +0.000 OA
BRANCH  23  26
ATOM     26  C   UNL     1      -1.670  12.221  22.211  0.00  0.00    +0.000 A 
ATOM     27  C   UNL     1      -2.477  12.192  23.355  0.00  0.00    +0.000 A 
ATOM     28  C   UNL     1      -3.603  13.015  23.425  0.00  0.00    +0.000 A 
ATOM     29  C   UNL     1      -3.920  13.856  22.357  0.00  0.00    +0.000 A 
ATOM     30  C   UNL     1      -3.118  13.868  21.215  0.00  0.00    +0.000 A 
ATOM     31  C   UNL     1      -1.997  13.045  21.143  0.00  0.00    +0.000 A 
ATOM     32  F   UNL     1      -1.255  13.073  20.029  0.00  0.00    +0.000 F 
ENDBRANCH  23  26
ENDBRANCH  20  23
ENDBRANCH   5  17
TORSDOF 5
ENDMDL
MODEL 9
REMARK VINA RESULT:      -6.7      4.244      6.318
REMARK  Name = 
REMARK  6 active torsions:
REMARK  status: ('A' for Active; 'I' for Inactive)
REMARK    1  A    between atoms: C_1  and  O_2
REMARK    2  A    between atoms: O_2  and  C_3
REMARK    3  A    between atoms: C_9  and  N_10
REMARK    4  A    between atoms: C_14  and  N_15
REMARK    5  A    between atoms: N_18  and  S_19
REMARK    6  A    between atoms: S_19  and  C_22
REMARK                            x       y       z     vdW  Elec       q    Type
REMARK                         _______ _______ _______ _____ _____    ______ ____
ROOT
ATOM      1  N   UNL     1       0.062  10.874  18.916  0.00  0.00    +0.000 N 
ATOM      2  C   UNL     1      -1.115  10.863  18.209  0.00  0.00    +0.000 C 
ATOM      3  O   UNL     1      -1.804   9.901  17.896  0.00  0.00    +0.000 OA
ATOM      4  C   UNL     1      -1.520  12.279  17.927  0.00  0.00    +0.000 C 
ATOM      5  C   UNL     1      -0.546  13.125  18.749  0.00  0.00    +0.000 C 
ATOM      6  C   UNL     1       0.494  12.136  19.229  0.00  0.00    +0.000 C 
ATOM      7  O   UNL     1       1.525  12.444  19.810  0.00  0.00    +0.000 OA
ENDROOT
BRANCH   1  14
ATOM      8  C   UNL     1       0.486   9.237  20.684  0.00  0.00    +0.000 A 
ATOM      9  C   UNL     1       1.152   8.085  21.116  0.00  0.00    +0.000 A 
ATOM     10  C   UNL     1       2.041   7.421  20.264  0.00  0.00    +0.000 A 
ATOM     11  C   UNL     1       2.247   7.891  18.971  0.00  0.00    +0.000 A 
ATOM     12 CL   UNL     1       3.358   7.088  17.930  0.00  0.00    +0.000 Cl
ATOM     13  C   UNL     1       1.570   9.017  18.518  0.00  0.00    +0.000 A 
ATOM     14  C   UNL     1       0.701   9.706  19.378  0.00  0.00    +0.000 A 
BRANCH   8  16
ATOM     15  C   UNL     1      -0.489   9.633  22.811  0.00  0.00    +0.000 C 
ATOM     16  O   UNL     1      -0.477   9.887  21.413  0.00  0.00    +0.000 OA
ENDBRANCH   8  16
ENDBRANCH   1  14
BRANCH   5  17
ATOM     17  N   UNL     1      -1.199  13.853  19.853  0.00  0.00    +0.000 NA
ATOM     18  C   UNL     1      -2.559  13.421  20.239  0.00  0.00    +0.000 C 
ATOM     19  C   UNL     1      -2.698  12.556  21.516  0.00  0.00    +0.000 C 
ATOM     20  N   UNL     1      -1.888  13.077  22.648  0.00  0.00    +0.000 NA
ATOM     21  C   UNL     1      -0.464  13.188  22.221  0.00  0.00    +0.000 C 
ATOM     22  C   UNL     1      -0.323  14.129  21.009  0.00  0.00    +0.000 C 
BRANCH  20  23
ATOM     23  S   UNL     1      -2.493  14.429  23.498  0.00  0.00    +0.000 S 
ATOM     24  O   UNL     1      -1.975  14.399  24.846  0.00  0.00    +0.000 OA
ATOM     25  O   UNL     1      -2.294  15.601  22.671  0.00  0.00    +0.000 OA
BRANCH  23  26
ATOM     26  C   UNL     1      -4.229  14.136  23.582  0.00  0.00    +0.000 A 
ATOM     27  C   UNL     1      -5.130  15.102  23.116  0.00  0.00    +0.000 A 
ATOM     28  C   UNL     1      -6.503  14.871  23.225  0.00  0.00    +0.000 A 
ATOM     29  C   UNL     1      -6.969  13.687  23.799  0.00  0.00    +0.000 A 
ATOM     30  C   UNL     1      -6.063  12.737  24.273  0.00  0.00    +0.000 A 
ATOM     31  C   UNL     1      -4.694  12.968  24.169  0.00  0.00    +0.000 A 
ATOM     32  F   UNL     1      -3.852  12.040  24.643  0.00  0.00    +0.000 F 
ENDBRANCH  23  26
ENDBRANCH  20  23
ENDBRANCH   5  17
TORSDOF 5
ENDMDL
