MODEL 1
REMARK VINA RESULT:      -7.7      0.000      0.000
REMARK  Name = 
REMARK  10 active torsions:
REMARK  status: ('A' for Active; 'I' for Inactive)
REMARK    1  A    between atoms: C_1  and  C_2
REMARK    2  A    between atoms: C_2  and  C_3
REMARK    3  A    between atoms: C_3  and  N_4
REMARK    4  A    between atoms: N_4  and  C_5
REMARK    5  A    between atoms: N_4  and  C_8
REMARK    6  A    between atoms: C_5  and  C_6
REMARK    7  A    between atoms: C_6  and  C_7
REMARK    8  A    between atoms: C_8  and  C_9
REMARK    9  A    between atoms: C_9  and  O_10
REMARK   10  A    between atoms: C_9  and  C_11
REMARK                            x       y       z     vdW  Elec       q    Type
REMARK                         _______ _______ _______ _____ _____    ______ ____
ROOT
ATOM      1  C   UNL     1       4.007   6.694  17.395  0.00  0.00    +0.000 A 
ATOM      2  C   UNL     1       3.503   8.008  17.350  0.00  0.00    +0.000 A 
ATOM      3  C   UNL     1       2.545   8.472  18.236  0.00  0.00    +0.000 A 
ATOM      4  C   UNL     1       2.088   9.797  18.104  0.00  0.00    +0.000 A 
ATOM      5  C   UNL     1       1.130  10.301  18.969  0.00  0.00    +0.000 A 
ATOM      6 BR   UNL     1       0.528  12.081  18.773  0.00  0.00    +0.000 Br
ATOM      7  C   UNL     1       0.617   9.501  19.974  0.00  0.00    +0.000 A 
ATOM      8  C   UNL     1       1.067   8.180  20.111  0.00  0.00    +0.000 A 
ATOM      9  C   UNL     1       2.050   7.615  19.243  0.00  0.00    +0.000 A 
ATOM     10  C   UNL     1       2.561   6.266  19.332  0.00  0.00    +0.000 A 
ATOM     11  C   UNL     1       2.124   5.356  20.328  0.00  0.00    +0.000 A 
ATOM     12  C   UNL     1       2.624   4.057  20.426  0.00  0.00    +0.000 A 
ATOM     13 BR   UNL     1       1.995   2.902  21.783  0.00  0.00    +0.000 Br
ATOM     14  C   UNL     1       3.576   3.610  19.532  0.00  0.00    +0.000 A 
ATOM     15  C   UNL     1       4.027   4.474  18.535  0.00  0.00    +0.000 A 
ATOM     16  C   UNL     1       3.544   5.804  18.401  0.00  0.00    +0.000 A 
ENDROOT
BRANCH   1  17
ATOM     17  C   UNL     1       5.038   6.320  16.335  0.00  0.00    +0.000 C 
BRANCH  17  18
ATOM     18  O   UNL     1       4.834   7.186  15.216  0.00  0.00    +0.000 OA
ATOM     19  H   UNL     1       3.973   7.618  15.332  0.00  0.00    +0.000 HD
ENDBRANCH  17  18
BRANCH  17  20
ATOM     20  C   UNL     1       4.942   4.805  15.958  0.00  0.00    +0.000 C 
BRANCH  20  21
ATOM     21  N   UNL     1       6.214   4.036  15.839  0.00  0.00    +0.000 NA
BRANCH  21  22
ATOM     22  C   UNL     1       6.440   3.701  14.413  0.00  0.00    +0.000 C 
BRANCH  22  24
ATOM     23  C   UNL     1       5.485   3.260  12.080  0.00  0.00    +0.000 C 
ATOM     24  C   UNL     1       5.297   3.951  13.419  0.00  0.00    +0.000 C 
ENDBRANCH  22  24
ENDBRANCH  21  22
BRANCH  21  25
ATOM     25  C   UNL     1       7.334   4.840  16.392  0.00  0.00    +0.000 C 
BRANCH  25  26
ATOM     26  C   UNL     1       7.717   4.554  17.862  0.00  0.00    +0.000 C 
ATOM     27  C   UNL     1       7.648   5.771  18.771  0.00  0.00    +0.000 C 
ENDBRANCH  25  26
ENDBRANCH  21  25
ENDBRANCH  20  21
ENDBRANCH  17  20
ENDBRANCH   1  17
TORSDOF 8
ENDMDL
MODEL 2
REMARK VINA RESULT:      -7.1      3.157      5.950
REMARK  Name = 
REMARK  10 active torsions:
REMARK  status: ('A' for Active; 'I' for Inactive)
REMARK    1  A    between atoms: C_1  and  C_2
REMARK    2  A    between atoms: C_2  and  C_3
REMARK    3  A    between atoms: C_3  and  N_4
REMARK    4  A    between atoms: N_4  and  C_5
REMARK    5  A    between atoms: N_4  and  C_8
REMARK    6  A    between atoms: C_5  and  C_6
REMARK    7  A    between atoms: C_6  and  C_7
REMARK    8  A    between atoms: C_8  and  C_9
REMARK    9  A    between atoms: C_9  and  O_10
REMARK   10  A    between atoms: C_9  and  C_11
REMARK                            x       y       z     vdW  Elec       q    Type
REMARK                         _______ _______ _______ _____ _____    ______ ____
ROOT
ATOM      1  C   UNL     1       6.835   4.955  18.158  0.00  0.00    +0.000 A 
ATOM      2  C   UNL     1       5.878   4.645  19.144  0.00  0.00    +0.000 A 
ATOM      3  C   UNL     1       4.664   4.050  18.845  0.00  0.00    +0.000 A 
ATOM      4  C   UNL     1       3.761   3.793  19.894  0.00  0.00    +0.000 A 
ATOM      5  C   UNL     1       2.536   3.199  19.639  0.00  0.00    +0.000 A 
ATOM      6 BR   UNL     1       1.337   2.865  21.061  0.00  0.00    +0.000 Br
ATOM      7  C   UNL     1       2.192   2.851  18.345  0.00  0.00    +0.000 A 
ATOM      8  C   UNL     1       3.086   3.105  17.295  0.00  0.00    +0.000 A 
ATOM      9  C   UNL     1       4.358   3.717  17.507  0.00  0.00    +0.000 A 
ATOM     10  C   UNL     1       5.327   4.001  16.473  0.00  0.00    +0.000 A 
ATOM     11  C   UNL     1       5.097   3.678  15.111  0.00  0.00    +0.000 A 
ATOM     12  C   UNL     1       6.034   3.939  14.112  0.00  0.00    +0.000 A 
ATOM     13 BR   UNL     1       5.656   3.476  12.319  0.00  0.00    +0.000 Br
ATOM     14  C   UNL     1       7.238   4.535  14.427  0.00  0.00    +0.000 A 
ATOM     15  C   UNL     1       7.499   4.872  15.754  0.00  0.00    +0.000 A 
ATOM     16  C   UNL     1       6.572   4.624  16.802  0.00  0.00    +0.000 A 
ENDROOT
BRANCH   1  17
ATOM     17  C   UNL     1       8.114   5.636  18.637  0.00  0.00    +0.000 C 
BRANCH  17  18
ATOM     18  O   UNL     1       8.462   5.054  19.895  0.00  0.00    +0.000 OA
ATOM     19  H   UNL     1       8.125   4.145  19.903  0.00  0.00    +0.000 HD
ENDBRANCH  17  18
BRANCH  17  20
ATOM     20  C   UNL     1       7.938   7.188  18.711  0.00  0.00    +0.000 C 
BRANCH  20  21
ATOM     21  N   UNL     1       7.372   7.881  17.519  0.00  0.00    +0.000 NA
BRANCH  21  22
ATOM     22  C   UNL     1       5.927   8.125  17.747  0.00  0.00    +0.000 C 
BRANCH  22  24
ATOM     23  C   UNL     1       3.533   7.300  17.379  0.00  0.00    +0.000 C 
ATOM     24  C   UNL     1       4.921   7.471  16.789  0.00  0.00    +0.000 C 
ENDBRANCH  22  24
ENDBRANCH  21  22
BRANCH  21  25
ATOM     25  C   UNL     1       8.107   9.151  17.286  0.00  0.00    +0.000 C 
BRANCH  25  26
ATOM     26  C   UNL     1       8.810   9.766  18.517  0.00  0.00    +0.000 C 
ATOM     27  C   UNL     1       9.515  11.084  18.237  0.00  0.00    +0.000 C 
ENDBRANCH  25  26
ENDBRANCH  21  25
ENDBRANCH  20  21
ENDBRANCH  17  20
ENDBRANCH   1  17
TORSDOF 8
ENDMDL
MODEL 3
REMARK VINA RESULT:      -7.0      3.186      7.231
REMARK  Name = 
REMARK  10 active torsions:
REMARK  status: ('A' for Active; 'I' for Inactive)
REMARK    1  A    between atoms: C_1  and  C_2
REMARK    2  A    between atoms: C_2  and  C_3
REMARK    3  A    between atoms: C_3  and  N_4
REMARK    4  A    between atoms: N_4  and  C_5
REMARK    5  A    between atoms: N_4  and  C_8
REMARK    6  A    between atoms: C_5  and  C_6
REMARK    7  A    between atoms: C_6  and  C_7
REMARK    8  A    between atoms: C_8  and  C_9
REMARK    9  A    between atoms: C_9  and  O_10
REMARK   10  A    between atoms: C_9  and  C_11
REMARK                            x       y       z     vdW  Elec       q    Type
REMARK                         _______ _______ _______ _____ _____    ______ ____
ROOT
ATOM      1  C   UNL     1       2.609   7.345  18.087  0.00  0.00    +0.000 A 
ATOM      2  C   UNL     1       3.535   7.296  17.027  0.00  0.00    +0.000 A 
ATOM      3  C   UNL     1       4.358   6.205  16.804  0.00  0.00    +0.000 A 
ATOM      4  C   UNL     1       5.267   6.253  15.729  0.00  0.00    +0.000 A 
ATOM      5  C   UNL     1       6.108   5.183  15.470  0.00  0.00    +0.000 A 
ATOM      6 BR   UNL     1       7.322   5.269  14.025  0.00  0.00    +0.000 Br
ATOM      7  C   UNL     1       6.058   4.055  16.270  0.00  0.00    +0.000 A 
ATOM      8  C   UNL     1       5.157   4.001  17.343  0.00  0.00    +0.000 A 
ATOM      9  C   UNL     1       4.272   5.078  17.650  0.00  0.00    +0.000 A 
ATOM     10  C   UNL     1       3.317   5.086  18.735  0.00  0.00    +0.000 A 
ATOM     11  C   UNL     1       3.161   3.983  19.613  0.00  0.00    +0.000 A 
ATOM     12  C   UNL     1       2.232   3.981  20.654  0.00  0.00    +0.000 A 
ATOM     13 BR   UNL     1       2.080   2.471  21.781  0.00  0.00    +0.000 Br
ATOM     14  C   UNL     1       1.422   5.078  20.864  0.00  0.00    +0.000 A 
ATOM     15  C   UNL     1       1.548   6.184  20.024  0.00  0.00    +0.000 A 
ATOM     16  C   UNL     1       2.482   6.227  18.953  0.00  0.00    +0.000 A 
ENDROOT
BRANCH   1  17
ATOM     17  C   UNL     1       1.792   8.626  18.223  0.00  0.00    +0.000 C 
BRANCH  17  18
ATOM     18  O   UNL     1       2.258   9.538  17.226  0.00  0.00    +0.000 OA
ATOM     19  H   UNL     1       2.412  10.393  17.657  0.00  0.00    +0.000 HD
ENDBRANCH  17  18
BRANCH  17  20
ATOM     20  C   UNL     1       1.885   9.208  19.671  0.00  0.00    +0.000 C 
BRANCH  20  21
ATOM     21  N   UNL     1       0.625   9.687  20.310  0.00  0.00    +0.000 NA
BRANCH  21  22
ATOM     22  C   UNL     1       0.826   9.749  21.778  0.00  0.00    +0.000 C 
BRANCH  22  24
ATOM     23  C   UNL     1      -1.131  10.645  23.163  0.00  0.00    +0.000 C 
ATOM     24  C   UNL     1      -0.368   9.421  22.686  0.00  0.00    +0.000 C 
ENDBRANCH  22  24
ENDBRANCH  21  22
BRANCH  21  25
ATOM     25  C   UNL     1       0.260  11.016  19.755  0.00  0.00    +0.000 C 
BRANCH  25  26
ATOM     26  C   UNL     1      -1.193  11.168  19.253  0.00  0.00    +0.000 C 
ATOM     27  C   UNL     1      -1.556  10.239  18.106  0.00  0.00    +0.000 C 
ENDBRANCH  25  26
ENDBRANCH  21  25
ENDBRANCH  20  21
ENDBRANCH  17  20
ENDBRANCH   1  17
TORSDOF 8
ENDMDL
MODEL 4
REMARK VINA RESULT:      -6.9      0.658      2.601
REMARK  Name = 
REMARK  10 active torsions:
REMARK  status: ('A' for Active; 'I' for Inactive)
REMARK    1  A    between atoms: C_1  and  C_2
REMARK    2  A    between atoms: C_2  and  C_3
REMARK    3  A    between atoms: C_3  and  N_4
REMARK    4  A    between atoms: N_4  and  C_5
REMARK    5  A    between atoms: N_4  and  C_8
REMARK    6  A    between atoms: C_5  and  C_6
REMARK    7  A    between atoms: C_6  and  C_7
REMARK    8  A    between atoms: C_8  and  C_9
REMARK    9  A    between atoms: C_9  and  O_10
REMARK   10  A    between atoms: C_9  and  C_11
REMARK                            x       y       z     vdW  Elec       q    Type
REMARK                         _______ _______ _______ _____ _____    ______ ____
ROOT
ATOM      1  C   UNL     1       3.873   7.156  17.562  0.00  0.00    +0.000 A 
ATOM      2  C   UNL     1       3.259   8.423  17.556  0.00  0.00    +0.000 A 
ATOM      3  C   UNL     1       2.241   8.764  18.431  0.00  0.00    +0.000 A 
ATOM      4  C   UNL     1       1.674  10.050  18.340  0.00  0.00    +0.000 A 
ATOM      5  C   UNL     1       0.654  10.432  19.196  0.00  0.00    +0.000 A 
ATOM      6 BR   UNL     1      -0.094  12.162  19.054  0.00  0.00    +0.000 Br
ATOM      7  C   UNL     1       0.186   9.549  20.151  0.00  0.00    +0.000 A 
ATOM      8  C   UNL     1       0.745   8.266  20.247  0.00  0.00    +0.000 A 
ATOM      9  C   UNL     1       1.795   7.826  19.387  0.00  0.00    +0.000 A 
ATOM     10  C   UNL     1       2.418   6.522  19.435  0.00  0.00    +0.000 A 
ATOM     11  C   UNL     1       2.036   5.536  20.380  0.00  0.00    +0.000 A 
ATOM     12  C   UNL     1       2.643   4.281  20.439  0.00  0.00    +0.000 A 
ATOM     13 BR   UNL     1       2.080   3.019  21.729  0.00  0.00    +0.000 Br
ATOM     14  C   UNL     1       3.653   3.957  19.557  0.00  0.00    +0.000 A 
ATOM     15  C   UNL     1       4.054   4.898  18.610  0.00  0.00    +0.000 A 
ATOM     16  C   UNL     1       3.462   6.187  18.517  0.00  0.00    +0.000 A 
ENDROOT
BRANCH   1  17
ATOM     17  C   UNL     1       4.960   6.917  16.519  0.00  0.00    +0.000 C 
BRANCH  17  18
ATOM     18  O   UNL     1       4.426   7.304  15.251  0.00  0.00    +0.000 OA
ATOM     19  H   UNL     1       3.980   6.532  14.870  0.00  0.00    +0.000 HD
ENDBRANCH  17  18
BRANCH  17  20
ATOM     20  C   UNL     1       5.456   5.434  16.544  0.00  0.00    +0.000 C 
BRANCH  20  21
ATOM     21  N   UNL     1       6.902   5.181  16.279  0.00  0.00    +0.000 NA
BRANCH  21  22
ATOM     22  C   UNL     1       7.516   4.597  17.496  0.00  0.00    +0.000 C 
BRANCH  22  24
ATOM     23  C   UNL     1       8.011   6.939  18.402  0.00  0.00    +0.000 C 
ATOM     24  C   UNL     1       7.671   5.496  18.731  0.00  0.00    +0.000 C 
ENDBRANCH  22  24
ENDBRANCH  21  22
BRANCH  21  25
ATOM     25  C   UNL     1       7.042   4.273  15.111  0.00  0.00    +0.000 C 
BRANCH  25  26
ATOM     26  C   UNL     1       5.789   4.111  14.221  0.00  0.00    +0.000 C 
ATOM     27  C   UNL     1       6.085   3.611  12.816  0.00  0.00    +0.000 C 
ENDBRANCH  25  26
ENDBRANCH  21  25
ENDBRANCH  20  21
ENDBRANCH  17  20
ENDBRANCH   1  17
TORSDOF 8
ENDMDL
MODEL 5
REMARK VINA RESULT:      -6.9      3.191      6.823
REMARK  Name = 
REMARK  10 active torsions:
REMARK  status: ('A' for Active; 'I' for Inactive)
REMARK    1  A    between atoms: C_1  and  C_2
REMARK    2  A    between atoms: C_2  and  C_3
REMARK    3  A    between atoms: C_3  and  N_4
REMARK    4  A    between atoms: N_4  and  C_5
REMARK    5  A    between atoms: N_4  and  C_8
REMARK    6  A    between atoms: C_5  and  C_6
REMARK    7  A    between atoms: C_6  and  C_7
REMARK    8  A    between atoms: C_8  and  C_9
REMARK    9  A    between atoms: C_9  and  O_10
REMARK   10  A    between atoms: C_9  and  C_11
REMARK                            x       y       z     vdW  Elec       q    Type
REMARK                         _______ _______ _______ _____ _____    ______ ____
ROOT
ATOM      1  C   UNL     1       2.657   7.368  18.128  0.00  0.00    +0.000 A 
ATOM      2  C   UNL     1       3.568   7.301  17.056  0.00  0.00    +0.000 A 
ATOM      3  C   UNL     1       4.346   6.183  16.805  0.00  0.00    +0.000 A 
ATOM      4  C   UNL     1       5.242   6.214  15.720  0.00  0.00    +0.000 A 
ATOM      5  C   UNL     1       6.038   5.117  15.433  0.00  0.00    +0.000 A 
ATOM      6 BR   UNL     1       7.237   5.180  13.973  0.00  0.00    +0.000 Br
ATOM      7  C   UNL     1       5.955   3.979  16.215  0.00  0.00    +0.000 A 
ATOM      8  C   UNL     1       5.066   3.942  17.298  0.00  0.00    +0.000 A 
ATOM      9  C   UNL     1       4.227   5.046  17.634  0.00  0.00    +0.000 A 
ATOM     10  C   UNL     1       3.286   5.073  18.731  0.00  0.00    +0.000 A 
ATOM     11  C   UNL     1       3.099   3.963  19.594  0.00  0.00    +0.000 A 
ATOM     12  C   UNL     1       2.183   3.978  20.646  0.00  0.00    +0.000 A 
ATOM     13 BR   UNL     1       1.987   2.458  21.751  0.00  0.00    +0.000 Br
ATOM     14  C   UNL     1       1.418   5.102  20.884  0.00  0.00    +0.000 A 
ATOM     15  C   UNL     1       1.577   6.216  20.061  0.00  0.00    +0.000 A 
ATOM     16  C   UNL     1       2.498   6.241  18.979  0.00  0.00    +0.000 A 
ENDROOT
BRANCH   1  17
ATOM     17  C   UNL     1       1.892   8.677  18.296  0.00  0.00    +0.000 C 
BRANCH  17  18
ATOM     18  O   UNL     1       2.515   9.646  17.450  0.00  0.00    +0.000 OA
ATOM     19  H   UNL     1       2.867  10.350  18.017  0.00  0.00    +0.000 HD
ENDBRANCH  17  18
BRANCH  17  20
ATOM     20  C   UNL     1       1.843   9.119  19.795  0.00  0.00    +0.000 C 
BRANCH  20  21
ATOM     21  N   UNL     1       0.693   9.962  20.233  0.00  0.00    +0.000 NA
BRANCH  21  22
ATOM     22  C   UNL     1       0.061  10.570  19.038  0.00  0.00    +0.000 C 
BRANCH  22  24
ATOM     23  C   UNL     1      -1.746  10.009  17.314  0.00  0.00    +0.000 C 
ATOM     24  C   UNL     1      -1.423  10.275  18.774  0.00  0.00    +0.000 C 
ENDBRANCH  22  24
ENDBRANCH  21  22
BRANCH  21  25
ATOM     25  C   UNL     1      -0.273   9.128  20.994  0.00  0.00    +0.000 C 
BRANCH  25  26
ATOM     26  C   UNL     1      -0.278   9.319  22.527  0.00  0.00    +0.000 C 
ATOM     27  C   UNL     1      -0.895  10.630  22.989  0.00  0.00    +0.000 C 
ENDBRANCH  25  26
ENDBRANCH  21  25
ENDBRANCH  20  21
ENDBRANCH  17  20
ENDBRANCH   1  17
TORSDOF 8
ENDMDL
MODEL 6
REMARK VINA RESULT:      -6.7      1.428      1.716
REMARK  Name = 
REMARK  10 active torsions:
REMARK  status: ('A' for Active; 'I' for Inactive)
REMARK    1  A    between atoms: C_1  and  C_2
REMARK    2  A    between atoms: C_2  and  C_3
REMARK    3  A    between atoms: C_3  and  N_4
REMARK    4  A    between atoms: N_4  and  C_5
REMARK    5  A    between atoms: N_4  and  C_8
REMARK    6  A    between atoms: C_5  and  C_6
REMARK    7  A    between atoms: C_6  and  C_7
REMARK    8  A    between atoms: C_8  and  C_9
REMARK    9  A    between atoms: C_9  and  O_10
REMARK   10  A    between atoms: C_9  and  C_11
REMARK                            x       y       z     vdW  Elec       q    Type
REMARK                         _______ _______ _______ _____ _____    ______ ____
ROOT
ATOM      1  C   UNL     1       3.724   5.450  17.718  0.00  0.00    +0.000 A 
ATOM      2  C   UNL     1       3.465   6.828  17.590  0.00  0.00    +0.000 A 
ATOM      3  C   UNL     1       2.651   7.520  18.472  0.00  0.00    +0.000 A 
ATOM      4  C   UNL     1       2.436   8.894  18.255  0.00  0.00    +0.000 A 
ATOM      5  C   UNL     1       1.630   9.625  19.113  0.00  0.00    +0.000 A 
ATOM      6 BR   UNL     1       1.351  11.468  18.802  0.00  0.00    +0.000 Br
ATOM      7  C   UNL     1       1.030   9.004  20.194  0.00  0.00    +0.000 A 
ATOM      8  C   UNL     1       1.240   7.635  20.416  0.00  0.00    +0.000 A 
ATOM      9  C   UNL     1       2.060   6.841  19.559  0.00  0.00    +0.000 A 
ATOM     10  C   UNL     1       2.321   5.430  19.732  0.00  0.00    +0.000 A 
ATOM     11  C   UNL     1       1.777   4.687  20.811  0.00  0.00    +0.000 A 
ATOM     12  C   UNL     1       2.037   3.328  20.990  0.00  0.00    +0.000 A 
ATOM     13 BR   UNL     1       1.278   2.405  22.454  0.00  0.00    +0.000 Br
ATOM     14  C   UNL     1       2.847   2.653  20.099  0.00  0.00    +0.000 A 
ATOM     15  C   UNL     1       3.398   3.348  19.024  0.00  0.00    +0.000 A 
ATOM     16  C   UNL     1       3.158   4.732  18.805  0.00  0.00    +0.000 A 
ENDROOT
BRANCH   1  17
ATOM     17  C   UNL     1       4.616   4.820  16.653  0.00  0.00    +0.000 C 
BRANCH  17  18
ATOM     18  O   UNL     1       3.894   3.726  16.083  0.00  0.00    +0.000 OA
ATOM     19  H   UNL     1       2.981   4.020  15.935  0.00  0.00    +0.000 HD
ENDBRANCH  17  18
BRANCH  17  20
ATOM     20  C   UNL     1       5.998   4.393  17.248  0.00  0.00    +0.000 C 
BRANCH  20  21
ATOM     21  N   UNL     1       7.217   5.086  16.740  0.00  0.00    +0.000 NA
BRANCH  21  22
ATOM     22  C   UNL     1       6.928   5.640  15.395  0.00  0.00    +0.000 C 
BRANCH  22  24
ATOM     23  C   UNL     1       6.306   3.936  13.591  0.00  0.00    +0.000 C 
ATOM     24  C   UNL     1       7.383   4.837  14.169  0.00  0.00    +0.000 C 
ENDBRANCH  22  24
ENDBRANCH  21  22
BRANCH  21  25
ATOM     25  C   UNL     1       7.614   6.154  17.694  0.00  0.00    +0.000 C 
BRANCH  25  26
ATOM     26  C   UNL     1       7.161   7.588  17.338  0.00  0.00    +0.000 C 
ATOM     27  C   UNL     1       8.075   8.680  17.872  0.00  0.00    +0.000 C 
ENDBRANCH  25  26
ENDBRANCH  21  25
ENDBRANCH  20  21
ENDBRANCH  17  20
ENDBRANCH   1  17
TORSDOF 8
ENDMDL
MODEL 7
REMARK VINA RESULT:      -6.7      1.349      1.829
REMARK  Name = 
REMARK  10 active torsions:
REMARK  status: ('A' for Active; 'I' for Inactive)
REMARK    1  A    between atoms: C_1  and  C_2
REMARK    2  A    between atoms: C_2  and  C_3
REMARK    3  A    between atoms: C_3  and  N_4
REMARK    4  A    between atoms: N_4  and  C_5
REMARK    5  A    between atoms: N_4  and  C_8
REMARK    6  A    between atoms: C_5  and  C_6
REMARK    7  A    between atoms: C_6  and  C_7
REMARK    8  A    between atoms: C_8  and  C_9
REMARK    9  A    between atoms: C_9  and  O_10
REMARK   10  A    between atoms: C_9  and  C_11
REMARK                            x       y       z     vdW  Elec       q    Type
REMARK                         _______ _______ _______ _____ _____    ______ ____
ROOT
ATOM      1  C   UNL     1       3.409   6.573  17.781  0.00  0.00    +0.000 A 
ATOM      2  C   UNL     1       2.954   7.903  17.883  0.00  0.00    +0.000 A 
ATOM      3  C   UNL     1       2.129   8.333  18.909  0.00  0.00    +0.000 A 
ATOM      4  C   UNL     1       1.711   9.678  18.919  0.00  0.00    +0.000 A 
ATOM      5  C   UNL     1       0.885  10.150  19.926  0.00  0.00    +0.000 A 
ATOM      6 BR   UNL     1       0.333  11.957  19.920  0.00  0.00    +0.000 Br
ATOM      7  C   UNL     1       0.466   9.299  20.933  0.00  0.00    +0.000 A 
ATOM      8  C   UNL     1       0.878   7.959  20.928  0.00  0.00    +0.000 A 
ATOM      9  C   UNL     1       1.726   7.425  19.912  0.00  0.00    +0.000 A 
ATOM     10  C   UNL     1       2.191   6.058  19.850  0.00  0.00    +0.000 A 
ATOM     11  C   UNL     1       1.844   5.096  20.832  0.00  0.00    +0.000 A 
ATOM     12  C   UNL     1       2.300   3.779  20.784  0.00  0.00    +0.000 A 
ATOM     13 BR   UNL     1       1.796   2.554  22.132  0.00  0.00    +0.000 Br
ATOM     14  C   UNL     1       3.120   3.365  19.753  0.00  0.00    +0.000 A 
ATOM     15  C   UNL     1       3.480   4.281  18.766  0.00  0.00    +0.000 A 
ATOM     16  C   UNL     1       3.037   5.632  18.778  0.00  0.00    +0.000 A 
ENDROOT
BRANCH   1  17
ATOM     17  C   UNL     1       4.288   6.241  16.580  0.00  0.00    +0.000 C 
BRANCH  17  18
ATOM     18  O   UNL     1       4.200   4.831  16.363  0.00  0.00    +0.000 OA
ATOM     19  H   UNL     1       5.102   4.492  16.255  0.00  0.00    +0.000 HD
ENDBRANCH  17  18
BRANCH  17  20
ATOM     20  C   UNL     1       5.757   6.733  16.797  0.00  0.00    +0.000 C 
BRANCH  20  21
ATOM     21  N   UNL     1       6.649   5.901  17.654  0.00  0.00    +0.000 NA
BRANCH  21  22
ATOM     22  C   UNL     1       7.206   4.797  16.836  0.00  0.00    +0.000 C 
BRANCH  22  24
ATOM     23  C   UNL     1       6.590   4.089  14.455  0.00  0.00    +0.000 C 
ATOM     24  C   UNL     1       7.394   5.034  15.331  0.00  0.00    +0.000 C 
ENDBRANCH  22  24
ENDBRANCH  21  22
BRANCH  21  25
ATOM     25  C   UNL     1       7.726   6.751  18.224  0.00  0.00    +0.000 C 
BRANCH  25  26
ATOM     26  C   UNL     1       7.854   8.173  17.634  0.00  0.00    +0.000 C 
ATOM     27  C   UNL     1       8.620   9.146  18.517  0.00  0.00    +0.000 C 
ENDBRANCH  25  26
ENDBRANCH  21  25
ENDBRANCH  20  21
ENDBRANCH  17  20
ENDBRANCH   1  17
TORSDOF 8
ENDMDL
MODEL 8
REMARK VINA RESULT:      -6.6      1.321      2.818
REMARK  Name = 
REMARK  10 active torsions:
REMARK  status: ('A' for Active; 'I' for Inactive)
REMARK    1  A    between atoms: C_1  and  C_2
REMARK    2  A    between atoms: C_2  and  C_3
REMARK    3  A    between atoms: C_3  and  N_4
REMARK    4  A    between atoms: N_4  and  C_5
REMARK    5  A    between atoms: N_4  and  C_8
REMARK    6  A    between atoms: C_5  and  C_6
REMARK    7  A    between atoms: C_6  and  C_7
REMARK    8  A    between atoms: C_8  and  C_9
REMARK    9  A    between atoms: C_9  and  O_10
REMARK   10  A    between atoms: C_9  and  C_11
REMARK                            x       y       z     vdW  Elec       q    Type
REMARK                         _______ _______ _______ _____ _____    ______ ____
ROOT
ATOM      1  C   UNL     1       3.748   5.544  17.549  0.00  0.00    +0.000 A 
ATOM      2  C   UNL     1       3.481   6.924  17.452  0.00  0.00    +0.000 A 
ATOM      3  C   UNL     1       2.679   7.594  18.361  0.00  0.00    +0.000 A 
ATOM      4  C   UNL     1       2.453   8.971  18.174  0.00  0.00    +0.000 A 
ATOM      5  C   UNL     1       1.658   9.681  19.060  0.00  0.00    +0.000 A 
ATOM      6 BR   UNL     1       1.366  11.528  18.789  0.00  0.00    +0.000 Br
ATOM      7  C   UNL     1       1.081   9.037  20.139  0.00  0.00    +0.000 A 
ATOM      8  C   UNL     1       1.301   7.665  20.330  0.00  0.00    +0.000 A 
ATOM      9  C   UNL     1       2.110   6.891  19.445  0.00  0.00    +0.000 A 
ATOM     10  C   UNL     1       2.381   5.479  19.586  0.00  0.00    +0.000 A 
ATOM     11  C   UNL     1       1.859   4.712  20.659  0.00  0.00    +0.000 A 
ATOM     12  C   UNL     1       2.128   3.352  20.808  0.00  0.00    +0.000 A 
ATOM     13 BR   UNL     1       1.399   2.398  22.267  0.00  0.00    +0.000 Br
ATOM     14  C   UNL     1       2.926   2.698  19.891  0.00  0.00    +0.000 A 
ATOM     15  C   UNL     1       3.455   3.416  18.819  0.00  0.00    +0.000 A 
ATOM     16  C   UNL     1       3.205   4.803  18.632  0.00  0.00    +0.000 A 
ENDROOT
BRANCH   1  17
ATOM     17  C   UNL     1       4.625   4.939  16.457  0.00  0.00    +0.000 C 
BRANCH  17  18
ATOM     18  O   UNL     1       5.392   3.892  17.056  0.00  0.00    +0.000 OA
ATOM     19  H   UNL     1       4.864   3.080  17.015  0.00  0.00    +0.000 HD
ENDBRANCH  17  18
BRANCH  17  20
ATOM     20  C   UNL     1       5.513   6.029  15.772  0.00  0.00    +0.000 C 
BRANCH  20  21
ATOM     21  N   UNL     1       6.992   5.840  15.800  0.00  0.00    +0.000 NA
BRANCH  21  22
ATOM     22  C   UNL     1       7.419   5.610  17.202  0.00  0.00    +0.000 C 
BRANCH  22  24
ATOM     23  C   UNL     1       7.866   8.101  17.578  0.00  0.00    +0.000 C 
ATOM     24  C   UNL     1       7.374   6.795  18.177  0.00  0.00    +0.000 C 
ENDBRANCH  22  24
ENDBRANCH  21  22
BRANCH  21  25
ATOM     25  C   UNL     1       7.364   4.698  14.925  0.00  0.00    +0.000 C 
BRANCH  25  26
ATOM     26  C   UNL     1       6.901   4.789  13.454  0.00  0.00    +0.000 C 
ATOM     27  C   UNL     1       6.082   3.597  12.984  0.00  0.00    +0.000 C 
ENDBRANCH  25  26
ENDBRANCH  21  25
ENDBRANCH  20  21
ENDBRANCH  17  20
ENDBRANCH   1  17
TORSDOF 8
ENDMDL
MODEL 9
REMARK VINA RESULT:      -6.6      4.861      8.179
REMARK  Name = 
REMARK  10 active torsions:
REMARK  status: ('A' for Active; 'I' for Inactive)
REMARK    1  A    between atoms: C_1  and  C_2
REMARK    2  A    between atoms: C_2  and  C_3
REMARK    3  A    between atoms: C_3  and  N_4
REMARK    4  A    between atoms: N_4  and  C_5
REMARK    5  A    between atoms: N_4  and  C_8
REMARK    6  A    between atoms: C_5  and  C_6
REMARK    7  A    between atoms: C_6  and  C_7
REMARK    8  A    between atoms: C_8  and  C_9
REMARK    9  A    between atoms: C_9  and  O_10
REMARK   10  A    between atoms: C_9  and  C_11
REMARK                            x       y       z     vdW  Elec       q    Type
REMARK                         _______ _______ _______ _____ _____    ______ ____
ROOT
ATOM      1  C   UNL     1      -0.536  11.299  19.434  0.00  0.00    +0.000 A 
ATOM      2  C   UNL     1      -0.840  10.849  18.135  0.00  0.00    +0.000 A 
ATOM      3  C   UNL     1      -2.098  10.983  17.573  0.00  0.00    +0.000 A 
ATOM      4  C   UNL     1      -2.314  10.487  16.273  0.00  0.00    +0.000 A 
ATOM      5  C   UNL     1      -3.558  10.601  15.673  0.00  0.00    +0.000 A 
ATOM      6 BR   UNL     1      -3.827   9.925  13.929  0.00  0.00    +0.000 Br
ATOM      7  C   UNL     1      -4.600  11.207  16.352  0.00  0.00    +0.000 A 
ATOM      8  C   UNL     1      -4.392  11.702  17.648  0.00  0.00    +0.000 A 
ATOM      9  C   UNL     1      -3.130  11.607  18.307  0.00  0.00    +0.000 A 
ATOM     10  C   UNL     1      -2.847  12.100  19.637  0.00  0.00    +0.000 A 
ATOM     11  C   UNL     1      -3.829  12.753  20.425  0.00  0.00    +0.000 A 
ATOM     12  C   UNL     1      -3.557  13.243  21.703  0.00  0.00    +0.000 A 
ATOM     13 BR   UNL     1      -4.916  14.106  22.693  0.00  0.00    +0.000 Br
ATOM     14  C   UNL     1      -2.298  13.098  22.249  0.00  0.00    +0.000 A 
ATOM     15  C   UNL     1      -1.308  12.457  21.506  0.00  0.00    +0.000 A 
ATOM     16  C   UNL     1      -1.543  11.944  20.201  0.00  0.00    +0.000 A 
ENDROOT
BRANCH   1  17
ATOM     17  C   UNL     1       0.887  11.056  19.927  0.00  0.00    +0.000 C 
BRANCH  17  18
ATOM     18  O   UNL     1       1.614  12.274  19.753  0.00  0.00    +0.000 OA
ATOM     19  H   UNL     1       2.552  12.083  19.910  0.00  0.00    +0.000 HD
ENDBRANCH  17  18
BRANCH  17  20
ATOM     20  C   UNL     1       1.544   9.843  19.191  0.00  0.00    +0.000 C 
BRANCH  20  21
ATOM     21  N   UNL     1       1.271   8.476  19.720  0.00  0.00    +0.000 NA
BRANCH  21  22
ATOM     22  C   UNL     1       2.315   7.550  19.218  0.00  0.00    +0.000 C 
BRANCH  22  24
ATOM     23  C   UNL     1       2.065   5.034  18.821  0.00  0.00    +0.000 C 
ATOM     24  C   UNL     1       2.379   6.138  19.816  0.00  0.00    +0.000 C 
ENDBRANCH  22  24
ENDBRANCH  21  22
BRANCH  21  25
ATOM     25  C   UNL     1       1.249   8.514  21.206  0.00  0.00    +0.000 C 
BRANCH  25  26
ATOM     26  C   UNL     1      -0.148   8.502  21.866  0.00  0.00    +0.000 C 
ATOM     27  C   UNL     1      -0.282   9.439  23.055  0.00  0.00    +0.000 C 
ENDBRANCH  25  26
ENDBRANCH  21  25
ENDBRANCH  20  21
ENDBRANCH  17  20
ENDBRANCH   1  17
TORSDOF 8
ENDMDL
