MODEL 1
REMARK VINA RESULT:      -6.0      0.000      0.000
REMARK  Name = 
REMARK  14 active torsions:
REMARK  status: ('A' for Active; 'I' for Inactive)
REMARK    1  A    between atoms: C_1  and  C_2
REMARK    2  A    between atoms: C_2  and  C_3
REMARK    3  A    between atoms: C_3  and  C_4
REMARK    4  A    between atoms: C_4  and  N_5
REMARK    5  A    between atoms: N_5  and  C_6
REMARK    6  A    between atoms: C_6  and  C_7
REMARK    7  A    between atoms: C_7  and  C_8
REMARK    8  A    between atoms: C_11  and  C_12
REMARK    9  A    between atoms: C_15  and  C_16
REMARK   10  A    between atoms: C_17  and  C_18
REMARK   11  A    between atoms: N_21  and  C_22
REMARK   12  A    between atoms: N_21  and  C_23
REMARK   13  A    between atoms: C_25  and  C_26
REMARK   14  A    between atoms: C_27  and  C_28
REMARK                            x       y       z     vdW  Elec       q    Type
REMARK                         _______ _______ _______ _____ _____    ______ ____
ROOT
ATOM      1  N   UNL     1      -0.039  10.242  19.338  0.00  0.00    +0.000 N 
ATOM      2  C   UNL     1      -1.251  10.983  19.347  0.00  0.00    +0.000 A 
ATOM      3  N   UNL     1      -2.090  10.840  18.347  0.00  0.00    +0.000 NA
ATOM      4  C   UNL     1      -3.280  11.528  18.344  0.00  0.00    +0.000 A 
ATOM      5  C   UNL     1      -4.121  11.393  17.106  0.00  0.00    +0.000 C 
ATOM      6  N   UNL     1      -3.705  12.306  19.291  0.00  0.00    +0.000 NA
ATOM      7  C   UNL     1      -2.831  12.586  20.287  0.00  0.00    +0.000 A 
ATOM      8  C   UNL     1      -2.825  13.553  21.280  0.00  0.00    +0.000 A 
ATOM      9  C   UNL     1      -1.589  13.308  21.969  0.00  0.00    +0.000 A 
ATOM     10  C   UNL     1      -1.013  13.958  23.172  0.00  0.00    +0.000 C 
ATOM     11  N   UNL     1      -0.868  12.329  21.394  0.00  0.00    +0.000 NA
ATOM     12  N   UNL     1      -1.635  11.911  20.358  0.00  0.00    +0.000 N 
ENDROOT
BRANCH   8  13
ATOM     13  C   UNL     1      -3.876  14.569  21.469  0.00  0.00    +0.000 A 
ATOM     14  C   UNL     1      -3.711  15.901  21.041  0.00  0.00    +0.000 A 
ATOM     15  C   UNL     1      -2.467  16.488  20.431  0.00  0.00    +0.000 C 
ATOM     16  C   UNL     1      -4.768  16.819  21.220  0.00  0.00    +0.000 A 
ATOM     17  C   UNL     1      -5.945  16.466  21.864  0.00  0.00    +0.000 A 
ATOM     18  N   UNL     1      -6.900  17.422  22.179  0.00  0.00    +0.000 N 
ATOM     19  C   UNL     1      -7.302  18.397  21.176  0.00  0.00    +0.000 C 
ATOM     20  C   UNL     1      -7.917  17.055  23.156  0.00  0.00    +0.000 C 
ATOM     21  N   UNL     1      -6.107  15.208  22.282  0.00  0.00    +0.000 NA
ATOM     22  C   UNL     1      -5.117  14.273  22.086  0.00  0.00    +0.000 A 
ATOM     23  C   UNL     1      -5.512  12.938  22.641  0.00  0.00    +0.000 C 
ENDBRANCH   8  13
BRANCH   1  24
ATOM     24  C   UNL     1       0.900  10.153  20.473  0.00  0.00    +0.000 C 
BRANCH  24  25
ATOM     25  C   UNL     1       0.798   8.811  21.208  0.00  0.00    +0.000 C 
BRANCH  25  27
ATOM     26  C   UNL     1      -0.179   9.566  23.386  0.00  0.00    +0.000 C 
ATOM     27  C   UNL     1      -0.412   8.723  22.138  0.00  0.00    +0.000 C 
ENDBRANCH  25  27
ENDBRANCH  24  25
ENDBRANCH   1  24
BRANCH   1  28
ATOM     28  C   UNL     1       0.446   9.746  18.023  0.00  0.00    +0.000 C 
BRANCH  28  29
ATOM     29  C   UNL     1       1.961   9.588  17.861  0.00  0.00    +0.000 C 
ATOM     30  C   UNL     1       2.446   8.150  17.858  0.00  0.00    +0.000 C 
ENDBRANCH  28  29
ENDBRANCH   1  28
TORSDOF 6
ENDMDL
MODEL 2
REMARK VINA RESULT:      -5.8      2.852      8.621
REMARK  Name = 
REMARK  14 active torsions:
REMARK  status: ('A' for Active; 'I' for Inactive)
REMARK    1  A    between atoms: C_1  and  C_2
REMARK    2  A    between atoms: C_2  and  C_3
REMARK    3  A    between atoms: C_3  and  C_4
REMARK    4  A    between atoms: C_4  and  N_5
REMARK    5  A    between atoms: N_5  and  C_6
REMARK    6  A    between atoms: C_6  and  C_7
REMARK    7  A    between atoms: C_7  and  C_8
REMARK    8  A    between atoms: C_11  and  C_12
REMARK    9  A    between atoms: C_15  and  C_16
REMARK   10  A    between atoms: C_17  and  C_18
REMARK   11  A    between atoms: N_21  and  C_22
REMARK   12  A    between atoms: N_21  and  C_23
REMARK   13  A    between atoms: C_25  and  C_26
REMARK   14  A    between atoms: C_27  and  C_28
REMARK                            x       y       z     vdW  Elec       q    Type
REMARK                         _______ _______ _______ _____ _____    ______ ____
ROOT
ATOM      1  N   UNL     1      -0.069  16.280  20.149  0.00  0.00    +0.000 N 
ATOM      2  C   UNL     1       0.648  15.086  20.429  0.00  0.00    +0.000 A 
ATOM      3  N   UNL     1       1.891  15.173  20.841  0.00  0.00    +0.000 NA
ATOM      4  C   UNL     1       2.598  14.033  21.142  0.00  0.00    +0.000 A 
ATOM      5  C   UNL     1       4.047  14.223  21.491  0.00  0.00    +0.000 C 
ATOM      6  N   UNL     1       2.131  12.823  21.104  0.00  0.00    +0.000 NA
ATOM      7  C   UNL     1       0.897  12.663  20.570  0.00  0.00    +0.000 A 
ATOM      8  C   UNL     1       0.209  11.545  20.125  0.00  0.00    +0.000 A 
ATOM      9  C   UNL     1      -1.031  12.091  19.648  0.00  0.00    +0.000 A 
ATOM     10  C   UNL     1      -2.233  11.414  19.101  0.00  0.00    +0.000 C 
ATOM     11  N   UNL     1      -1.062  13.433  19.724  0.00  0.00    +0.000 NA
ATOM     12  N   UNL     1       0.131  13.766  20.273  0.00  0.00    +0.000 N 
ENDROOT
BRANCH   8  13
ATOM     13  C   UNL     1       0.738  10.170  20.148  0.00  0.00    +0.000 A 
ATOM     14  C   UNL     1       0.590   9.331  21.270  0.00  0.00    +0.000 A 
ATOM     15  C   UNL     1      -0.027   9.716  22.588  0.00  0.00    +0.000 C 
ATOM     16  C   UNL     1       1.088   8.012  21.217  0.00  0.00    +0.000 A 
ATOM     17  C   UNL     1       1.780   7.534  20.114  0.00  0.00    +0.000 A 
ATOM     18  N   UNL     1       2.407   6.296  20.147  0.00  0.00    +0.000 N 
ATOM     19  C   UNL     1       1.693   5.141  20.670  0.00  0.00    +0.000 C 
ATOM     20  C   UNL     1       3.398   6.021  19.115  0.00  0.00    +0.000 C 
ATOM     21  N   UNL     1       1.934   8.324  19.048  0.00  0.00    +0.000 NA
ATOM     22  C   UNL     1       1.423   9.601  19.045  0.00  0.00    +0.000 A 
ATOM     23  C   UNL     1       1.722  10.303  17.755  0.00  0.00    +0.000 C 
ENDBRANCH   8  13
BRANCH   1  24
ATOM     24  C   UNL     1      -1.516  16.346  19.868  0.00  0.00    +0.000 C 
BRANCH  24  25
ATOM     25  C   UNL     1      -2.333  16.716  21.111  0.00  0.00    +0.000 C 
BRANCH  25  27
ATOM     26  C   UNL     1      -2.294  14.913  22.849  0.00  0.00    +0.000 C 
ATOM     27  C   UNL     1      -3.094  15.532  21.708  0.00  0.00    +0.000 C 
ENDBRANCH  25  27
ENDBRANCH  24  25
ENDBRANCH   1  24
BRANCH   1  28
ATOM     28  C   UNL     1       0.729  17.499  19.858  0.00  0.00    +0.000 C 
BRANCH  28  29
ATOM     29  C   UNL     1       0.312  18.322  18.634  0.00  0.00    +0.000 C 
ATOM     30  C   UNL     1       1.118  18.035  17.379  0.00  0.00    +0.000 C 
ENDBRANCH  28  29
ENDBRANCH   1  28
TORSDOF 6
ENDMDL
MODEL 3
REMARK VINA RESULT:      -5.5      0.586      1.748
REMARK  Name = 
REMARK  14 active torsions:
REMARK  status: ('A' for Active; 'I' for Inactive)
REMARK    1  A    between atoms: C_1  and  C_2
REMARK    2  A    between atoms: C_2  and  C_3
REMARK    3  A    between atoms: C_3  and  C_4
REMARK    4  A    between atoms: C_4  and  N_5
REMARK    5  A    between atoms: N_5  and  C_6
REMARK    6  A    between atoms: C_6  and  C_7
REMARK    7  A    between atoms: C_7  and  C_8
REMARK    8  A    between atoms: C_11  and  C_12
REMARK    9  A    between atoms: C_15  and  C_16
REMARK   10  A    between atoms: C_17  and  C_18
REMARK   11  A    between atoms: N_21  and  C_22
REMARK   12  A    between atoms: N_21  and  C_23
REMARK   13  A    between atoms: C_25  and  C_26
REMARK   14  A    between atoms: C_27  and  C_28
REMARK                            x       y       z     vdW  Elec       q    Type
REMARK                         _______ _______ _______ _____ _____    ______ ____
ROOT
ATOM      1  N   UNL     1      -0.132  10.362  19.407  0.00  0.00    +0.000 N 
ATOM      2  C   UNL     1      -1.369  11.060  19.441  0.00  0.00    +0.000 A 
ATOM      3  N   UNL     1      -2.227  10.880  18.464  0.00  0.00    +0.000 NA
ATOM      4  C   UNL     1      -3.441  11.525  18.486  0.00  0.00    +0.000 A 
ATOM      5  C   UNL     1      -4.307  11.351  17.270  0.00  0.00    +0.000 C 
ATOM      6  N   UNL     1      -3.869  12.296  19.437  0.00  0.00    +0.000 NA
ATOM      7  C   UNL     1      -2.981  12.615  20.409  0.00  0.00    +0.000 A 
ATOM      8  C   UNL     1      -2.984  13.589  21.395  0.00  0.00    +0.000 A 
ATOM      9  C   UNL     1      -1.723  13.394  22.054  0.00  0.00    +0.000 A 
ATOM     10  C   UNL     1      -1.141  14.074  23.237  0.00  0.00    +0.000 C 
ATOM     11  N   UNL     1      -0.983  12.436  21.468  0.00  0.00    +0.000 NA
ATOM     12  N   UNL     1      -1.760  11.983  20.455  0.00  0.00    +0.000 N 
ENDROOT
BRANCH   8  13
ATOM     13  C   UNL     1      -4.065  14.570  21.603  0.00  0.00    +0.000 A 
ATOM     14  C   UNL     1      -5.264  14.230  22.259  0.00  0.00    +0.000 A 
ATOM     15  C   UNL     1      -5.647  12.861  22.752  0.00  0.00    +0.000 C 
ATOM     16  C   UNL     1      -6.248  15.223  22.458  0.00  0.00    +0.000 A 
ATOM     17  C   UNL     1      -6.097  16.512  21.968  0.00  0.00    +0.000 A 
ATOM     18  N   UNL     1      -7.142  17.423  22.026  0.00  0.00    +0.000 N 
ATOM     19  C   UNL     1      -7.895  17.578  23.261  0.00  0.00    +0.000 C 
ATOM     20  C   UNL     1      -7.042  18.609  21.185  0.00  0.00    +0.000 C 
ATOM     21  N   UNL     1      -4.967  16.842  21.336  0.00  0.00    +0.000 NA
ATOM     22  C   UNL     1      -3.967  15.913  21.162  0.00  0.00    +0.000 A 
ATOM     23  C   UNL     1      -2.804  16.501  20.422  0.00  0.00    +0.000 C 
ENDBRANCH   8  13
BRANCH   1  24
ATOM     24  C   UNL     1       0.838  10.316  20.519  0.00  0.00    +0.000 C 
BRANCH  24  25
ATOM     25  C   UNL     1       0.906   8.931  21.172  0.00  0.00    +0.000 C 
BRANCH  25  27
ATOM     26  C   UNL     1      -0.463   9.705  23.120  0.00  0.00    +0.000 C 
ATOM     27  C   UNL     1       0.807   8.976  22.697  0.00  0.00    +0.000 C 
ENDBRANCH  25  27
ENDBRANCH  24  25
ENDBRANCH   1  24
BRANCH   1  28
ATOM     28  C   UNL     1       0.337   9.873  18.085  0.00  0.00    +0.000 C 
BRANCH  28  29
ATOM     29  C   UNL     1       1.852   9.833  17.861  0.00  0.00    +0.000 C 
ATOM     30  C   UNL     1       2.436   8.435  17.765  0.00  0.00    +0.000 C 
ENDBRANCH  28  29
ENDBRANCH   1  28
TORSDOF 6
ENDMDL
MODEL 4
REMARK VINA RESULT:      -5.5      3.078      8.872
REMARK  Name = 
REMARK  14 active torsions:
REMARK  status: ('A' for Active; 'I' for Inactive)
REMARK    1  A    between atoms: C_1  and  C_2
REMARK    2  A    between atoms: C_2  and  C_3
REMARK    3  A    between atoms: C_3  and  C_4
REMARK    4  A    between atoms: C_4  and  N_5
REMARK    5  A    between atoms: N_5  and  C_6
REMARK    6  A    between atoms: C_6  and  C_7
REMARK    7  A    between atoms: C_7  and  C_8
REMARK    8  A    between atoms: C_11  and  C_12
REMARK    9  A    between atoms: C_15  and  C_16
REMARK   10  A    between atoms: C_17  and  C_18
REMARK   11  A    between atoms: N_21  and  C_22
REMARK   12  A    between atoms: N_21  and  C_23
REMARK   13  A    between atoms: C_25  and  C_26
REMARK   14  A    between atoms: C_27  and  C_28
REMARK                            x       y       z     vdW  Elec       q    Type
REMARK                         _______ _______ _______ _____ _____    ______ ____
ROOT
ATOM      1  N   UNL     1       0.031  16.228  20.085  0.00  0.00    +0.000 N 
ATOM      2  C   UNL     1       0.728  15.027  20.388  0.00  0.00    +0.000 A 
ATOM      3  N   UNL     1       1.963  15.105  20.827  0.00  0.00    +0.000 NA
ATOM      4  C   UNL     1       2.652  13.959  21.150  0.00  0.00    +0.000 A 
ATOM      5  C   UNL     1       4.095  14.137  21.529  0.00  0.00    +0.000 C 
ATOM      6  N   UNL     1       2.173  12.754  21.109  0.00  0.00    +0.000 NA
ATOM      7  C   UNL     1       0.949  12.603  20.550  0.00  0.00    +0.000 A 
ATOM      8  C   UNL     1       0.259  11.490  20.096  0.00  0.00    +0.000 A 
ATOM      9  C   UNL     1      -0.964  12.045  19.589  0.00  0.00    +0.000 A 
ATOM     10  C   UNL     1      -2.160  11.377  19.020  0.00  0.00    +0.000 C 
ATOM     11  N   UNL     1      -0.982  13.388  19.655  0.00  0.00    +0.000 NA
ATOM     12  N   UNL     1       0.201  13.712  20.229  0.00  0.00    +0.000 N 
ENDROOT
BRANCH   8  13
ATOM     13  C   UNL     1       0.774  10.109  20.139  0.00  0.00    +0.000 A 
ATOM     14  C   UNL     1       0.576   9.273  21.255  0.00  0.00    +0.000 A 
ATOM     15  C   UNL     1      -0.084   9.665  22.550  0.00  0.00    +0.000 C 
ATOM     16  C   UNL     1       1.063   7.949  21.222  0.00  0.00    +0.000 A 
ATOM     17  C   UNL     1       1.790   7.463  20.144  0.00  0.00    +0.000 A 
ATOM     18  N   UNL     1       2.403   6.220  20.201  0.00  0.00    +0.000 N 
ATOM     19  C   UNL     1       1.659   5.072  20.698  0.00  0.00    +0.000 C 
ATOM     20  C   UNL     1       3.429   5.934  19.206  0.00  0.00    +0.000 C 
ATOM     21  N   UNL     1       1.991   8.251  19.084  0.00  0.00    +0.000 NA
ATOM     22  C   UNL     1       1.493   9.533  19.062  0.00  0.00    +0.000 A 
ATOM     23  C   UNL     1       1.846  10.231  17.783  0.00  0.00    +0.000 C 
ENDBRANCH   8  13
BRANCH   1  24
ATOM     24  C   UNL     1      -1.410  16.306  19.772  0.00  0.00    +0.000 C 
BRANCH  24  25
ATOM     25  C   UNL     1      -2.273  16.410  21.034  0.00  0.00    +0.000 C 
BRANCH  25  27
ATOM     26  C   UNL     1      -2.880  18.251  22.620  0.00  0.00    +0.000 C 
ATOM     27  C   UNL     1      -2.971  17.762  21.179  0.00  0.00    +0.000 C 
ENDBRANCH  25  27
ENDBRANCH  24  25
ENDBRANCH   1  24
BRANCH   1  28
ATOM     28  C   UNL     1       0.847  17.437  19.804  0.00  0.00    +0.000 C 
BRANCH  28  29
ATOM     29  C   UNL     1       0.660  18.631  20.746  0.00  0.00    +0.000 C 
ATOM     30  C   UNL     1       0.889  18.315  22.213  0.00  0.00    +0.000 C 
ENDBRANCH  28  29
ENDBRANCH   1  28
TORSDOF 6
ENDMDL
MODEL 5
REMARK VINA RESULT:      -5.4      2.702      8.600
REMARK  Name = 
REMARK  14 active torsions:
REMARK  status: ('A' for Active; 'I' for Inactive)
REMARK    1  A    between atoms: C_1  and  C_2
REMARK    2  A    between atoms: C_2  and  C_3
REMARK    3  A    between atoms: C_3  and  C_4
REMARK    4  A    between atoms: C_4  and  N_5
REMARK    5  A    between atoms: N_5  and  C_6
REMARK    6  A    between atoms: C_6  and  C_7
REMARK    7  A    between atoms: C_7  and  C_8
REMARK    8  A    between atoms: C_11  and  C_12
REMARK    9  A    between atoms: C_15  and  C_16
REMARK   10  A    between atoms: C_17  and  C_18
REMARK   11  A    between atoms: N_21  and  C_22
REMARK   12  A    between atoms: N_21  and  C_23
REMARK   13  A    between atoms: C_25  and  C_26
REMARK   14  A    between atoms: C_27  and  C_28
REMARK                            x       y       z     vdW  Elec       q    Type
REMARK                         _______ _______ _______ _____ _____    ______ ____
ROOT
ATOM      1  N   UNL     1      -0.209  16.054  20.291  0.00  0.00    +0.000 N 
ATOM      2  C   UNL     1       0.555  14.876  20.510  0.00  0.00    +0.000 A 
ATOM      3  N   UNL     1       1.797  14.992  20.918  0.00  0.00    +0.000 NA
ATOM      4  C   UNL     1       2.550  13.867  21.160  0.00  0.00    +0.000 A 
ATOM      5  C   UNL     1       3.994  14.097  21.508  0.00  0.00    +0.000 C 
ATOM      6  N   UNL     1       2.130  12.644  21.067  0.00  0.00    +0.000 NA
ATOM      7  C   UNL     1       0.898  12.461  20.535  0.00  0.00    +0.000 A 
ATOM      8  C   UNL     1       0.250  11.339  20.041  0.00  0.00    +0.000 A 
ATOM      9  C   UNL     1      -1.014  11.858  19.599  0.00  0.00    +0.000 A 
ATOM     10  C   UNL     1      -2.192  11.161  19.028  0.00  0.00    +0.000 C 
ATOM     11  N   UNL     1      -1.095  13.193  19.738  0.00  0.00    +0.000 NA
ATOM     12  N   UNL     1       0.088  13.546  20.295  0.00  0.00    +0.000 N 
ENDROOT
BRANCH   8  13
ATOM     13  C   UNL     1       0.832   9.986  19.995  0.00  0.00    +0.000 A 
ATOM     14  C   UNL     1       1.578   9.531  18.890  0.00  0.00    +0.000 A 
ATOM     15  C   UNL     1       1.816  10.287  17.610  0.00  0.00    +0.000 C 
ATOM     16  C   UNL     1       2.139   8.237  18.920  0.00  0.00    +0.000 A 
ATOM     17  C   UNL     1       1.924   7.370  19.982  0.00  0.00    +0.000 A 
ATOM     18  N   UNL     1       2.340   6.048  19.918  0.00  0.00    +0.000 N 
ATOM     19  C   UNL     1       3.682   5.737  19.449  0.00  0.00    +0.000 C 
ATOM     20  C   UNL     1       1.772   5.120  20.889  0.00  0.00    +0.000 C 
ATOM     21  N   UNL     1       1.210   7.788  21.031  0.00  0.00    +0.000 NA
ATOM     22  C   UNL     1       0.684   9.059  21.057  0.00  0.00    +0.000 A 
ATOM     23  C   UNL     1      -0.083   9.304  22.321  0.00  0.00    +0.000 C 
ENDBRANCH   8  13
BRANCH   1  24
ATOM     24  C   UNL     1      -1.661  16.076  20.023  0.00  0.00    +0.000 C 
BRANCH  24  25
ATOM     25  C   UNL     1      -2.485  16.262  21.302  0.00  0.00    +0.000 C 
BRANCH  25  27
ATOM     26  C   UNL     1      -4.583  15.630  22.514  0.00  0.00    +0.000 C 
ATOM     27  C   UNL     1      -3.532  15.168  21.511  0.00  0.00    +0.000 C 
ENDBRANCH  25  27
ENDBRANCH  24  25
ENDBRANCH   1  24
BRANCH   1  28
ATOM     28  C   UNL     1       0.538  17.315  20.053  0.00  0.00    +0.000 C 
BRANCH  28  29
ATOM     29  C   UNL     1       0.016  18.227  18.938  0.00  0.00    +0.000 C 
ATOM     30  C   UNL     1       0.567  17.911  17.559  0.00  0.00    +0.000 C 
ENDBRANCH  28  29
ENDBRANCH   1  28
TORSDOF 6
ENDMDL
MODEL 6
REMARK VINA RESULT:      -5.4      2.350      9.045
REMARK  Name = 
REMARK  14 active torsions:
REMARK  status: ('A' for Active; 'I' for Inactive)
REMARK    1  A    between atoms: C_1  and  C_2
REMARK    2  A    between atoms: C_2  and  C_3
REMARK    3  A    between atoms: C_3  and  C_4
REMARK    4  A    between atoms: C_4  and  N_5
REMARK    5  A    between atoms: N_5  and  C_6
REMARK    6  A    between atoms: C_6  and  C_7
REMARK    7  A    between atoms: C_7  and  C_8
REMARK    8  A    between atoms: C_11  and  C_12
REMARK    9  A    between atoms: C_15  and  C_16
REMARK   10  A    between atoms: C_17  and  C_18
REMARK   11  A    between atoms: N_21  and  C_22
REMARK   12  A    between atoms: N_21  and  C_23
REMARK   13  A    between atoms: C_25  and  C_26
REMARK   14  A    between atoms: C_27  and  C_28
REMARK                            x       y       z     vdW  Elec       q    Type
REMARK                         _______ _______ _______ _____ _____    ______ ____
ROOT
ATOM      1  N   UNL     1      -2.767  12.466  21.032  0.00  0.00    +0.000 N 
ATOM      2  C   UNL     1      -2.034  11.683  20.100  0.00  0.00    +0.000 A 
ATOM      3  N   UNL     1      -2.484  11.572  18.872  0.00  0.00    +0.000 NA
ATOM      4  C   UNL     1      -1.780  10.841  17.945  0.00  0.00    +0.000 A 
ATOM      5  C   UNL     1      -2.430  10.672  16.600  0.00  0.00    +0.000 C 
ATOM      6  N   UNL     1      -0.641  10.256  18.151  0.00  0.00    +0.000 NA
ATOM      7  C   UNL     1      -0.191  10.234  19.428  0.00  0.00    +0.000 A 
ATOM      8  C   UNL     1       0.801   9.496  20.057  0.00  0.00    +0.000 A 
ATOM      9  C   UNL     1       0.726   9.941  21.421  0.00  0.00    +0.000 A 
ATOM     10  C   UNL     1       1.560   9.585  22.595  0.00  0.00    +0.000 C 
ATOM     11  N   UNL     1      -0.277  10.814  21.620  0.00  0.00    +0.000 NA
ATOM     12  N   UNL     1      -0.837  10.968  20.396  0.00  0.00    +0.000 N 
ENDROOT
BRANCH   8  13
ATOM     13  C   UNL     1       1.648   8.490  19.392  0.00  0.00    +0.000 A 
ATOM     14  C   UNL     1       1.727   7.160  19.850  0.00  0.00    +0.000 A 
ATOM     15  C   UNL     1       1.058   6.605  21.079  0.00  0.00    +0.000 C 
ATOM     16  C   UNL     1       2.530   6.235  19.149  0.00  0.00    +0.000 A 
ATOM     17  C   UNL     1       3.298   6.611  18.057  0.00  0.00    +0.000 A 
ATOM     18  N   UNL     1       4.206   5.731  17.487  0.00  0.00    +0.000 N 
ATOM     19  C   UNL     1       3.804   4.361  17.207  0.00  0.00    +0.000 C 
ATOM     20  C   UNL     1       5.217   6.294  16.601  0.00  0.00    +0.000 C 
ATOM     21  N   UNL     1       3.237   7.872  17.620  0.00  0.00    +0.000 NA
ATOM     22  C   UNL     1       2.432   8.792  18.250  0.00  0.00    +0.000 A 
ATOM     23  C   UNL     1       2.530  10.138  17.597  0.00  0.00    +0.000 C 
ENDBRANCH   8  13
BRANCH   1  24
ATOM     24  C   UNL     1      -2.288  12.837  22.379  0.00  0.00    +0.000 C 
BRANCH  24  25
ATOM     25  C   UNL     1      -3.033  12.085  23.487  0.00  0.00    +0.000 C 
BRANCH  25  27
ATOM     26  C   UNL     1      -3.177  14.338  24.571  0.00  0.00    +0.000 C 
ATOM     27  C   UNL     1      -3.879  12.999  24.374  0.00  0.00    +0.000 C 
ENDBRANCH  25  27
ENDBRANCH  24  25
ENDBRANCH   1  24
BRANCH   1  28
ATOM     28  C   UNL     1      -4.205  12.701  20.741  0.00  0.00    +0.000 C 
BRANCH  28  29
ATOM     29  C   UNL     1      -4.694  14.152  20.808  0.00  0.00    +0.000 C 
ATOM     30  C   UNL     1      -6.026  14.333  21.515  0.00  0.00    +0.000 C 
ENDBRANCH  28  29
ENDBRANCH   1  28
TORSDOF 6
ENDMDL
MODEL 7
REMARK VINA RESULT:      -5.3      3.426      7.265
REMARK  Name = 
REMARK  14 active torsions:
REMARK  status: ('A' for Active; 'I' for Inactive)
REMARK    1  A    between atoms: C_1  and  C_2
REMARK    2  A    between atoms: C_2  and  C_3
REMARK    3  A    between atoms: C_3  and  C_4
REMARK    4  A    between atoms: C_4  and  N_5
REMARK    5  A    between atoms: N_5  and  C_6
REMARK    6  A    between atoms: C_6  and  C_7
REMARK    7  A    between atoms: C_7  and  C_8
REMARK    8  A    between atoms: C_11  and  C_12
REMARK    9  A    between atoms: C_15  and  C_16
REMARK   10  A    between atoms: C_17  and  C_18
REMARK   11  A    between atoms: N_21  and  C_22
REMARK   12  A    between atoms: N_21  and  C_23
REMARK   13  A    between atoms: C_25  and  C_26
REMARK   14  A    between atoms: C_27  and  C_28
REMARK                            x       y       z     vdW  Elec       q    Type
REMARK                         _______ _______ _______ _____ _____    ______ ____
ROOT
ATOM      1  N   UNL     1       3.937   5.624  17.328  0.00  0.00    +0.000 N 
ATOM      2  C   UNL     1       3.064   6.098  18.344  0.00  0.00    +0.000 A 
ATOM      3  N   UNL     1       2.502   5.232  19.155  0.00  0.00    +0.000 NA
ATOM      4  C   UNL     1       1.673   5.667  20.161  0.00  0.00    +0.000 A 
ATOM      5  C   UNL     1       0.983   4.599  20.962  0.00  0.00    +0.000 C 
ATOM      6  N   UNL     1       1.408   6.907  20.437  0.00  0.00    +0.000 NA
ATOM      7  C   UNL     1       1.861   7.836  19.562  0.00  0.00    +0.000 A 
ATOM      8  C   UNL     1       1.553   9.175  19.379  0.00  0.00    +0.000 A 
ATOM      9  C   UNL     1       2.367   9.548  18.256  0.00  0.00    +0.000 A 
ATOM     10  C   UNL     1       2.551  10.865  17.597  0.00  0.00    +0.000 C 
ATOM     11  N   UNL     1       3.050   8.506  17.750  0.00  0.00    +0.000 NA
ATOM     12  N   UNL     1       2.715   7.465  18.550  0.00  0.00    +0.000 N 
ENDROOT
BRANCH   8  13
ATOM     13  C   UNL     1       0.575   9.929  20.183  0.00  0.00    +0.000 A 
ATOM     14  C   UNL     1       0.700  10.060  21.580  0.00  0.00    +0.000 A 
ATOM     15  C   UNL     1       1.752   9.412  22.440  0.00  0.00    +0.000 C 
ATOM     16  C   UNL     1      -0.251  10.824  22.290  0.00  0.00    +0.000 A 
ATOM     17  C   UNL     1      -1.345  11.400  21.661  0.00  0.00    +0.000 A 
ATOM     18  N   UNL     1      -2.355  12.002  22.398  0.00  0.00    +0.000 N 
ATOM     19  C   UNL     1      -2.013  12.924  23.470  0.00  0.00    +0.000 C 
ATOM     20  C   UNL     1      -3.619  12.254  21.718  0.00  0.00    +0.000 C 
ATOM     21  N   UNL     1      -1.478  11.275  20.338  0.00  0.00    +0.000 NA
ATOM     22  C   UNL     1      -0.547  10.574  19.606  0.00  0.00    +0.000 A 
ATOM     23  C   UNL     1      -0.903  10.557  18.150  0.00  0.00    +0.000 C 
ENDBRANCH   8  13
BRANCH   1  24
ATOM     24  C   UNL     1       4.782   6.484  16.478  0.00  0.00    +0.000 C 
BRANCH  24  25
ATOM     25  C   UNL     1       6.255   6.059  16.504  0.00  0.00    +0.000 C 
BRANCH  25  27
ATOM     26  C   UNL     1       7.759   7.715  17.629  0.00  0.00    +0.000 C 
ATOM     27  C   UNL     1       6.966   6.425  17.806  0.00  0.00    +0.000 C 
ENDBRANCH  25  27
ENDBRANCH  24  25
ENDBRANCH   1  24
BRANCH   1  28
ATOM     28  C   UNL     1       3.792   4.203  16.916  0.00  0.00    +0.000 C 
BRANCH  28  29
ATOM     29  C   UNL     1       4.339   3.146  17.881  0.00  0.00    +0.000 C 
ATOM     30  C   UNL     1       3.459   1.917  18.030  0.00  0.00    +0.000 C 
ENDBRANCH  28  29
ENDBRANCH   1  28
TORSDOF 6
ENDMDL
MODEL 8
REMARK VINA RESULT:      -5.2      5.524      8.871
REMARK  Name = 
REMARK  14 active torsions:
REMARK  status: ('A' for Active; 'I' for Inactive)
REMARK    1  A    between atoms: C_1  and  C_2
REMARK    2  A    between atoms: C_2  and  C_3
REMARK    3  A    between atoms: C_3  and  C_4
REMARK    4  A    between atoms: C_4  and  N_5
REMARK    5  A    between atoms: N_5  and  C_6
REMARK    6  A    between atoms: C_6  and  C_7
REMARK    7  A    between atoms: C_7  and  C_8
REMARK    8  A    between atoms: C_11  and  C_12
REMARK    9  A    between atoms: C_15  and  C_16
REMARK   10  A    between atoms: C_17  and  C_18
REMARK   11  A    between atoms: N_21  and  C_22
REMARK   12  A    between atoms: N_21  and  C_23
REMARK   13  A    between atoms: C_25  and  C_26
REMARK   14  A    between atoms: C_27  and  C_28
REMARK                            x       y       z     vdW  Elec       q    Type
REMARK                         _______ _______ _______ _____ _____    ______ ____
ROOT
ATOM      1  N   UNL     1      -0.709  12.914  21.962  0.00  0.00    +0.000 N 
ATOM      2  C   UNL     1       0.452  13.067  21.158  0.00  0.00    +0.000 A 
ATOM      3  N   UNL     1       0.648  12.237  20.160  0.00  0.00    +0.000 NA
ATOM      4  C   UNL     1       1.752  12.379  19.353  0.00  0.00    +0.000 A 
ATOM      5  C   UNL     1       1.955  11.314  18.312  0.00  0.00    +0.000 C 
ATOM      6  N   UNL     1       2.640  13.319  19.448  0.00  0.00    +0.000 NA
ATOM      7  C   UNL     1       2.557  14.129  20.530  0.00  0.00    +0.000 A 
ATOM      8  C   UNL     1       3.448  15.028  21.096  0.00  0.00    +0.000 A 
ATOM      9  C   UNL     1       2.736  15.517  22.244  0.00  0.00    +0.000 A 
ATOM     10  C   UNL     1       3.112  16.551  23.239  0.00  0.00    +0.000 C 
ATOM     11  N   UNL     1       1.549  14.908  22.407  0.00  0.00    +0.000 NA
ATOM     12  N   UNL     1       1.463  14.052  21.361  0.00  0.00    +0.000 N 
ENDROOT
BRANCH   8  13
ATOM     13  C   UNL     1       4.799  15.309  20.578  0.00  0.00    +0.000 A 
ATOM     14  C   UNL     1       5.955  14.772  21.178  0.00  0.00    +0.000 A 
ATOM     15  C   UNL     1       5.997  13.937  22.429  0.00  0.00    +0.000 C 
ATOM     16  C   UNL     1       7.218  15.051  20.614  0.00  0.00    +0.000 A 
ATOM     17  C   UNL     1       7.363  15.893  19.521  0.00  0.00    +0.000 A 
ATOM     18  N   UNL     1       8.621  16.288  19.088  0.00  0.00    +0.000 N 
ATOM     19  C   UNL     1       9.675  15.297  18.938  0.00  0.00    +0.000 C 
ATOM     20  C   UNL     1       8.689  17.435  18.191  0.00  0.00    +0.000 C 
ATOM     21  N   UNL     1       6.274  16.415  18.951  0.00  0.00    +0.000 NA
ATOM     22  C   UNL     1       5.022  16.131  19.445  0.00  0.00    +0.000 A 
ATOM     23  C   UNL     1       3.956  16.830  18.657  0.00  0.00    +0.000 C 
ENDBRANCH   8  13
BRANCH   1  24
ATOM     24  C   UNL     1      -1.157  13.879  22.985  0.00  0.00    +0.000 C 
BRANCH  24  25
ATOM     25  C   UNL     1      -2.680  14.050  22.996  0.00  0.00    +0.000 C 
BRANCH  25  27
ATOM     26  C   UNL     1      -4.107  12.560  24.414  0.00  0.00    +0.000 C 
ATOM     27  C   UNL     1      -3.300  13.852  24.379  0.00  0.00    +0.000 C 
ENDBRANCH  25  27
ENDBRANCH  24  25
ENDBRANCH   1  24
BRANCH   1  28
ATOM     28  C   UNL     1      -1.365  11.580  21.962  0.00  0.00    +0.000 C 
BRANCH  28  29
ATOM     29  C   UNL     1      -1.139  10.701  23.197  0.00  0.00    +0.000 C 
ATOM     30  C   UNL     1      -0.127   9.586  22.998  0.00  0.00    +0.000 C 
ENDBRANCH  28  29
ENDBRANCH   1  28
TORSDOF 6
ENDMDL
MODEL 9
REMARK VINA RESULT:      -5.2      1.135      1.402
REMARK  Name = 
REMARK  14 active torsions:
REMARK  status: ('A' for Active; 'I' for Inactive)
REMARK    1  A    between atoms: C_1  and  C_2
REMARK    2  A    between atoms: C_2  and  C_3
REMARK    3  A    between atoms: C_3  and  C_4
REMARK    4  A    between atoms: C_4  and  N_5
REMARK    5  A    between atoms: N_5  and  C_6
REMARK    6  A    between atoms: C_6  and  C_7
REMARK    7  A    between atoms: C_7  and  C_8
REMARK    8  A    between atoms: C_11  and  C_12
REMARK    9  A    between atoms: C_15  and  C_16
REMARK   10  A    between atoms: C_17  and  C_18
REMARK   11  A    between atoms: N_21  and  C_22
REMARK   12  A    between atoms: N_21  and  C_23
REMARK   13  A    between atoms: C_25  and  C_26
REMARK   14  A    between atoms: C_27  and  C_28
REMARK                            x       y       z     vdW  Elec       q    Type
REMARK                         _______ _______ _______ _____ _____    ______ ____
ROOT
ATOM      1  N   UNL     1       0.345   9.630  19.150  0.00  0.00    +0.000 N 
ATOM      2  C   UNL     1      -0.801  10.458  19.011  0.00  0.00    +0.000 A 
ATOM      3  N   UNL     1      -1.455  10.450  17.872  0.00  0.00    +0.000 NA
ATOM      4  C   UNL     1      -2.582  11.224  17.721  0.00  0.00    +0.000 A 
ATOM      5  C   UNL     1      -3.194  11.242  16.349  0.00  0.00    +0.000 C 
ATOM      6  N   UNL     1      -3.120  11.962  18.641  0.00  0.00    +0.000 NA
ATOM      7  C   UNL     1      -2.423  12.104  19.794  0.00  0.00    +0.000 A 
ATOM      8  C   UNL     1      -2.535  12.994  20.851  0.00  0.00    +0.000 A 
ATOM      9  C   UNL     1      -1.459  12.608  21.720  0.00  0.00    +0.000 A 
ATOM     10  C   UNL     1      -1.069  13.125  23.055  0.00  0.00    +0.000 C 
ATOM     11  N   UNL     1      -0.709  11.621  21.199  0.00  0.00    +0.000 NA
ATOM     12  N   UNL     1      -1.302  11.337  20.015  0.00  0.00    +0.000 N 
ENDROOT
BRANCH   8  13
ATOM     13  C   UNL     1      -3.538  14.070  20.939  0.00  0.00    +0.000 A 
ATOM     14  C   UNL     1      -3.202  15.422  20.731  0.00  0.00    +0.000 A 
ATOM     15  C   UNL     1      -1.820  15.963  20.482  0.00  0.00    +0.000 C 
ATOM     16  C   UNL     1      -4.215  16.403  20.796  0.00  0.00    +0.000 A 
ATOM     17  C   UNL     1      -5.525  16.083  21.122  0.00  0.00    +0.000 A 
ATOM     18  N   UNL     1      -6.466  17.078  21.345  0.00  0.00    +0.000 N 
ATOM     19  C   UNL     1      -6.575  18.190  20.414  0.00  0.00    +0.000 C 
ATOM     20  C   UNL     1      -7.696  16.693  22.026  0.00  0.00    +0.000 C 
ATOM     21  N   UNL     1      -5.852  14.805  21.330  0.00  0.00    +0.000 NA
ATOM     22  C   UNL     1      -4.901  13.815  21.233  0.00  0.00    +0.000 A 
ATOM     23  C   UNL     1      -5.490  12.466  21.514  0.00  0.00    +0.000 C 
ENDBRANCH   8  13
BRANCH   1  24
ATOM     24  C   UNL     1       1.059   9.389  20.420  0.00  0.00    +0.000 C 
BRANCH  24  25
ATOM     25  C   UNL     1       0.815   7.977  20.964  0.00  0.00    +0.000 C 
BRANCH  25  27
ATOM     26  C   UNL     1       1.509   5.578  20.789  0.00  0.00    +0.000 C 
ATOM     27  C   UNL     1       1.984   7.024  20.715  0.00  0.00    +0.000 C 
ENDBRANCH  25  27
ENDBRANCH  24  25
ENDBRANCH   1  24
BRANCH   1  28
ATOM     28  C   UNL     1       1.025   9.194  17.903  0.00  0.00    +0.000 C 
BRANCH  28  29
ATOM     29  C   UNL     1       2.557   9.192  17.917  0.00  0.00    +0.000 C 
ATOM     30  C   UNL     1       3.186   7.848  17.596  0.00  0.00    +0.000 C 
ENDBRANCH  28  29
ENDBRANCH   1  28
TORSDOF 6
ENDMDL
