MODEL 1
REMARK VINA RESULT:      -8.2      0.000      0.000
REMARK  Name = 
REMARK  3 active torsions:
REMARK  status: ('A' for Active; 'I' for Inactive)
REMARK    1  A    between atoms: C_6  and  C_7
REMARK    2  A    between atoms: C_14  and  N_15
REMARK    3  A    between atoms: N_15  and  C_16
REMARK                            x       y       z     vdW  Elec       q    Type
REMARK                         _______ _______ _______ _____ _____    ______ ____
ROOT
ATOM      1  O   UNL     1       1.097   3.961  19.087  0.00  0.00    +0.000 OA
ATOM      2  C   UNL     1       2.202   4.070  18.593  0.00  0.00    +0.000 C 
ATOM      3  N   UNL     1       2.748   3.315  17.617  0.00  0.00    +0.000 N 
ATOM      4  C   UNL     1       4.000   3.728  17.324  0.00  0.00    +0.000 C 
ATOM      5  O   UNL     1       4.736   3.266  16.471  0.00  0.00    +0.000 OA
ATOM      6  C   UNL     1       4.300   4.867  18.212  0.00  0.00    +0.000 C 
ATOM      7  C   UNL     1       3.216   5.100  18.964  0.00  0.00    +0.000 C 
ATOM      8  H   UNL     1       2.278   2.553  17.158  0.00  0.00    +0.000 HD
ENDROOT
BRANCH   6   9
ATOM      9  C   UNL     1       5.560   5.590  18.277  0.00  0.00    +0.000 A 
ATOM     10  C   UNL     1       6.443   5.309  19.329  0.00  0.00    +0.000 A 
ATOM     11  C   UNL     1       7.689   5.934  19.397  0.00  0.00    +0.000 A 
ATOM     12  C   UNL     1       8.065   6.847  18.413  0.00  0.00    +0.000 A 
ATOM     13  C   UNL     1       7.196   7.139  17.365  0.00  0.00    +0.000 A 
ATOM     14  C   UNL     1       5.948   6.511  17.291  0.00  0.00    +0.000 A 
ATOM     15 CL   UNL     1       4.920   6.903  15.955  0.00  0.00    +0.000 Cl
ENDBRANCH   6   9
BRANCH   7  16
ATOM     16  N   UNL     1       2.970   6.057  19.925  0.00  0.00    +0.000 N 
ATOM     17  H   UNL     1       2.448   5.642  20.708  0.00  0.00    +0.000 HD
BRANCH  16  18
ATOM     18  C   UNL     1       2.308   7.280  19.615  0.00  0.00    +0.000 A 
ATOM     19  C   UNL     1       1.560   8.011  20.548  0.00  0.00    +0.000 A 
ATOM     20  C   UNL     1       0.933   9.206  20.184  0.00  0.00    +0.000 A 
ATOM     21  C   UNL     1       1.028   9.675  18.876  0.00  0.00    +0.000 A 
ATOM     22  C   UNL     1       1.752   8.951  17.934  0.00  0.00    +0.000 A 
ATOM     23  C   UNL     1       2.388   7.761  18.301  0.00  0.00    +0.000 A 
ENDBRANCH  16  18
ENDBRANCH   7  16
TORSDOF 3
ENDMDL
MODEL 2
REMARK VINA RESULT:      -8.2      2.183      4.978
REMARK  Name = 
REMARK  3 active torsions:
REMARK  status: ('A' for Active; 'I' for Inactive)
REMARK    1  A    between atoms: C_6  and  C_7
REMARK    2  A    between atoms: C_14  and  N_15
REMARK    3  A    between atoms: N_15  and  C_16
REMARK                            x       y       z     vdW  Elec       q    Type
REMARK                         _______ _______ _______ _____ _____    ______ ____
ROOT
ATOM      1  O   UNL     1       4.305   0.662  18.464  0.00  0.00    +0.000 OA
ATOM      2  C   UNL     1       3.522   1.592  18.486  0.00  0.00    +0.000 C 
ATOM      3  N   UNL     1       2.195   1.560  18.242  0.00  0.00    +0.000 N 
ATOM      4  C   UNL     1       1.649   2.790  18.355  0.00  0.00    +0.000 C 
ATOM      5  O   UNL     1       0.473   3.077  18.222  0.00  0.00    +0.000 OA
ATOM      6  C   UNL     1       2.741   3.719  18.700  0.00  0.00    +0.000 C 
ATOM      7  C   UNL     1       3.870   3.007  18.807  0.00  0.00    +0.000 C 
ATOM      8  H   UNL     1       1.678   0.726  18.018  0.00  0.00    +0.000 HD
ENDROOT
BRANCH   6   9
ATOM      9  C   UNL     1       2.616   5.159  18.868  0.00  0.00    +0.000 A 
ATOM     10  C   UNL     1       2.799   5.984  17.750  0.00  0.00    +0.000 A 
ATOM     11  C   UNL     1       2.628   7.365  17.852  0.00  0.00    +0.000 A 
ATOM     12  C   UNL     1       2.274   7.936  19.073  0.00  0.00    +0.000 A 
ATOM     13  C   UNL     1       2.093   7.128  20.193  0.00  0.00    +0.000 A 
ATOM     14  C   UNL     1       2.260   5.742  20.094  0.00  0.00    +0.000 A 
ATOM     15 CL   UNL     1       2.006   4.792  21.517  0.00  0.00    +0.000 Cl
ENDBRANCH   6   9
BRANCH   7  16
ATOM     16  N   UNL     1       5.155   3.389  19.131  0.00  0.00    +0.000 N 
ATOM     17  H   UNL     1       5.188   3.716  20.106  0.00  0.00    +0.000 HD
BRANCH  16  18
ATOM     18  C   UNL     1       5.864   4.360  18.366  0.00  0.00    +0.000 A 
ATOM     19  C   UNL     1       5.987   4.303  16.970  0.00  0.00    +0.000 A 
ATOM     20  C   UNL     1       6.696   5.286  16.274  0.00  0.00    +0.000 A 
ATOM     21  C   UNL     1       7.310   6.327  16.966  0.00  0.00    +0.000 A 
ATOM     22  C   UNL     1       7.212   6.387  18.353  0.00  0.00    +0.000 A 
ATOM     23  C   UNL     1       6.494   5.410  19.048  0.00  0.00    +0.000 A 
ENDBRANCH  16  18
ENDBRANCH   7  16
TORSDOF 3
ENDMDL
MODEL 3
REMARK VINA RESULT:      -8.2      2.149      4.905
REMARK  Name = 
REMARK  3 active torsions:
REMARK  status: ('A' for Active; 'I' for Inactive)
REMARK    1  A    between atoms: C_6  and  C_7
REMARK    2  A    between atoms: C_14  and  N_15
REMARK    3  A    between atoms: N_15  and  C_16
REMARK                            x       y       z     vdW  Elec       q    Type
REMARK                         _______ _______ _______ _____ _____    ______ ____
ROOT
ATOM      1  O   UNL     1       4.374   0.765  18.218  0.00  0.00    +0.000 OA
ATOM      2  C   UNL     1       3.567   1.673  18.282  0.00  0.00    +0.000 C 
ATOM      3  N   UNL     1       2.249   1.628  17.997  0.00  0.00    +0.000 N 
ATOM      4  C   UNL     1       1.669   2.834  18.180  0.00  0.00    +0.000 C 
ATOM      5  O   UNL     1       0.491   3.103  18.033  0.00  0.00    +0.000 OA
ATOM      6  C   UNL     1       2.727   3.761  18.623  0.00  0.00    +0.000 C 
ATOM      7  C   UNL     1       3.870   3.069  18.713  0.00  0.00    +0.000 C 
ATOM      8  H   UNL     1       1.759   0.800  17.700  0.00  0.00    +0.000 HD
ENDROOT
BRANCH   6   9
ATOM      9  C   UNL     1       2.562   5.182  18.887  0.00  0.00    +0.000 A 
ATOM     10  C   UNL     1       2.670   6.082  17.818  0.00  0.00    +0.000 A 
ATOM     11  C   UNL     1       2.458   7.447  18.015  0.00  0.00    +0.000 A 
ATOM     12  C   UNL     1       2.136   7.926  19.284  0.00  0.00    +0.000 A 
ATOM     13  C   UNL     1       2.030   7.044  20.356  0.00  0.00    +0.000 A 
ATOM     14  C   UNL     1       2.238   5.674  20.162  0.00  0.00    +0.000 A 
ATOM     15 CL   UNL     1       2.075   4.627  21.529  0.00  0.00    +0.000 Cl
ENDBRANCH   6   9
BRANCH   7  16
ATOM     16  N   UNL     1       5.135   3.457  19.101  0.00  0.00    +0.000 N 
ATOM     17  H   UNL     1       5.121   3.770  20.080  0.00  0.00    +0.000 HD
BRANCH  16  18
ATOM     18  C   UNL     1       5.871   4.443  18.382  0.00  0.00    +0.000 A 
ATOM     19  C   UNL     1       6.633   5.443  19.004  0.00  0.00    +0.000 A 
ATOM     20  C   UNL     1       7.334   6.384  18.245  0.00  0.00    +0.000 A 
ATOM     21  C   UNL     1       7.267   6.351  16.855  0.00  0.00    +0.000 A 
ATOM     22  C   UNL     1       6.500   5.376  16.223  0.00  0.00    +0.000 A 
ATOM     23  C   UNL     1       5.808   4.429  16.982  0.00  0.00    +0.000 A 
ENDBRANCH  16  18
ENDBRANCH   7  16
TORSDOF 3
ENDMDL
MODEL 4
REMARK VINA RESULT:      -8.1      0.313      1.096
REMARK  Name = 
REMARK  3 active torsions:
REMARK  status: ('A' for Active; 'I' for Inactive)
REMARK    1  A    between atoms: C_6  and  C_7
REMARK    2  A    between atoms: C_14  and  N_15
REMARK    3  A    between atoms: N_15  and  C_16
REMARK                            x       y       z     vdW  Elec       q    Type
REMARK                         _______ _______ _______ _____ _____    ______ ____
ROOT
ATOM      1  O   UNL     1       0.982   4.127  19.550  0.00  0.00    +0.000 OA
ATOM      2  C   UNL     1       2.069   4.160  19.006  0.00  0.00    +0.000 C 
ATOM      3  N   UNL     1       2.560   3.301  18.089  0.00  0.00    +0.000 N 
ATOM      4  C   UNL     1       3.808   3.652  17.710  0.00  0.00    +0.000 C 
ATOM      5  O   UNL     1       4.500   3.092  16.880  0.00  0.00    +0.000 OA
ATOM      6  C   UNL     1       4.167   4.864  18.471  0.00  0.00    +0.000 C 
ATOM      7  C   UNL     1       3.119   5.195  19.236  0.00  0.00    +0.000 C 
ATOM      8  H   UNL     1       2.057   2.509  17.724  0.00  0.00    +0.000 HD
ENDROOT
BRANCH   6   9
ATOM      9  C   UNL     1       5.443   5.559  18.418  0.00  0.00    +0.000 A 
ATOM     10  C   UNL     1       6.395   5.293  19.412  0.00  0.00    +0.000 A 
ATOM     11  C   UNL     1       7.655   5.891  19.366  0.00  0.00    +0.000 A 
ATOM     12  C   UNL     1       7.977   6.760  18.325  0.00  0.00    +0.000 A 
ATOM     13  C   UNL     1       7.040   7.036  17.333  0.00  0.00    +0.000 A 
ATOM     14  C   UNL     1       5.776   6.436  17.374  0.00  0.00    +0.000 A 
ATOM     15 CL   UNL     1       4.662   6.806  16.103  0.00  0.00    +0.000 Cl
ENDBRANCH   6   9
BRANCH   7  16
ATOM     16  N   UNL     1       2.931   6.247  20.108  0.00  0.00    +0.000 N 
ATOM     17  H   UNL     1       2.475   5.913  20.967  0.00  0.00    +0.000 HD
BRANCH  16  18
ATOM     18  C   UNL     1       2.229   7.426  19.722  0.00  0.00    +0.000 A 
ATOM     19  C   UNL     1       2.284   7.969  18.431  0.00  0.00    +0.000 A 
ATOM     20  C   UNL     1       1.573   9.129  18.112  0.00  0.00    +0.000 A 
ATOM     21  C   UNL     1       0.812   9.772  19.085  0.00  0.00    +0.000 A 
ATOM     22  C   UNL     1       0.761   9.255  20.376  0.00  0.00    +0.000 A 
ATOM     23  C   UNL     1       1.465   8.089  20.692  0.00  0.00    +0.000 A 
ENDBRANCH  16  18
ENDBRANCH   7  16
TORSDOF 3
ENDMDL
MODEL 5
REMARK VINA RESULT:      -7.6      3.271      6.290
REMARK  Name = 
REMARK  3 active torsions:
REMARK  status: ('A' for Active; 'I' for Inactive)
REMARK    1  A    between atoms: C_6  and  C_7
REMARK    2  A    between atoms: C_14  and  N_15
REMARK    3  A    between atoms: N_15  and  C_16
REMARK                            x       y       z     vdW  Elec       q    Type
REMARK                         _______ _______ _______ _____ _____    ______ ____
ROOT
ATOM      1  O   UNL     1       8.051   7.099  16.500  0.00  0.00    +0.000 OA
ATOM      2  C   UNL     1       7.273   6.458  17.179  0.00  0.00    +0.000 C 
ATOM      3  N   UNL     1       7.399   6.114  18.478  0.00  0.00    +0.000 N 
ATOM      4  C   UNL     1       6.336   5.395  18.898  0.00  0.00    +0.000 C 
ATOM      5  O   UNL     1       6.146   4.967  20.022  0.00  0.00    +0.000 OA
ATOM      6  C   UNL     1       5.428   5.250  17.745  0.00  0.00    +0.000 C 
ATOM      7  C   UNL     1       5.968   5.907  16.710  0.00  0.00    +0.000 C 
ATOM      8  H   UNL     1       8.178   6.371  19.061  0.00  0.00    +0.000 HD
ENDROOT
BRANCH   6   9
ATOM      9  C   UNL     1       4.180   4.503  17.728  0.00  0.00    +0.000 A 
ATOM     10  C   UNL     1       4.234   3.107  17.609  0.00  0.00    +0.000 A 
ATOM     11  C   UNL     1       3.065   2.346  17.651  0.00  0.00    +0.000 A 
ATOM     12  C   UNL     1       1.830   2.972  17.812  0.00  0.00    +0.000 A 
ATOM     13  C   UNL     1       1.762   4.358  17.928  0.00  0.00    +0.000 A 
ATOM     14  C   UNL     1       2.932   5.125  17.890  0.00  0.00    +0.000 A 
ATOM     15 CL   UNL     1       2.782   6.840  18.055  0.00  0.00    +0.000 Cl
ENDBRANCH   6   9
BRANCH   7  16
ATOM     16  N   UNL     1       5.514   6.098  15.422  0.00  0.00    +0.000 N 
ATOM     17  H   UNL     1       4.486   6.140  15.415  0.00  0.00    +0.000 HD
BRANCH  16  18
ATOM     18  C   UNL     1       5.879   5.221  14.359  0.00  0.00    +0.000 A 
ATOM     19  C   UNL     1       5.064   4.173  13.909  0.00  0.00    +0.000 A 
ATOM     20  C   UNL     1       5.477   3.345  12.861  0.00  0.00    +0.000 A 
ATOM     21  C   UNL     1       6.719   3.542  12.263  0.00  0.00    +0.000 A 
ATOM     22  C   UNL     1       7.547   4.567  12.711  0.00  0.00    +0.000 A 
ATOM     23  C   UNL     1       7.129   5.401  13.752  0.00  0.00    +0.000 A 
ENDBRANCH  16  18
ENDBRANCH   7  16
TORSDOF 3
ENDMDL
MODEL 6
REMARK VINA RESULT:      -7.6      3.297      6.353
REMARK  Name = 
REMARK  3 active torsions:
REMARK  status: ('A' for Active; 'I' for Inactive)
REMARK    1  A    between atoms: C_6  and  C_7
REMARK    2  A    between atoms: C_14  and  N_15
REMARK    3  A    between atoms: N_15  and  C_16
REMARK                            x       y       z     vdW  Elec       q    Type
REMARK                         _______ _______ _______ _____ _____    ______ ____
ROOT
ATOM      1  O   UNL     1       8.099   6.973  16.409  0.00  0.00    +0.000 OA
ATOM      2  C   UNL     1       7.302   6.372  17.103  0.00  0.00    +0.000 C 
ATOM      3  N   UNL     1       7.420   6.052  18.408  0.00  0.00    +0.000 N 
ATOM      4  C   UNL     1       6.335   5.376  18.844  0.00  0.00    +0.000 C 
ATOM      5  O   UNL     1       6.134   4.978  19.978  0.00  0.00    +0.000 OA
ATOM      6  C   UNL     1       5.420   5.235  17.696  0.00  0.00    +0.000 C 
ATOM      7  C   UNL     1       5.979   5.852  16.646  0.00  0.00    +0.000 C 
ATOM      8  H   UNL     1       8.207   6.297  18.985  0.00  0.00    +0.000 HD
ENDROOT
BRANCH   6   9
ATOM      9  C   UNL     1       4.150   4.527  17.697  0.00  0.00    +0.000 A 
ATOM     10  C   UNL     1       4.158   3.131  17.571  0.00  0.00    +0.000 A 
ATOM     11  C   UNL     1       2.967   2.406  17.629  0.00  0.00    +0.000 A 
ATOM     12  C   UNL     1       1.755   3.070  17.813  0.00  0.00    +0.000 A 
ATOM     13  C   UNL     1       1.732   4.457  17.935  0.00  0.00    +0.000 A 
ATOM     14  C   UNL     1       2.925   5.187  17.881  0.00  0.00    +0.000 A 
ATOM     15 CL   UNL     1       2.832   6.906  18.056  0.00  0.00    +0.000 Cl
ENDBRANCH   6   9
BRANCH   7  16
ATOM     16  N   UNL     1       5.529   6.030  15.355  0.00  0.00    +0.000 N 
ATOM     17  H   UNL     1       4.501   6.029  15.340  0.00  0.00    +0.000 HD
BRANCH  16  18
ATOM     18  C   UNL     1       5.940   5.175  14.292  0.00  0.00    +0.000 A 
ATOM     19  C   UNL     1       7.174   5.297  13.637  0.00  0.00    +0.000 A 
ATOM     20  C   UNL     1       7.522   4.427  12.600  0.00  0.00    +0.000 A 
ATOM     21  C   UNL     1       6.633   3.437  12.190  0.00  0.00    +0.000 A 
ATOM     22  C   UNL     1       5.397   3.315  12.819  0.00  0.00    +0.000 A 
ATOM     23  C   UNL     1       5.054   4.178  13.863  0.00  0.00    +0.000 A 
ENDBRANCH  16  18
ENDBRANCH   7  16
TORSDOF 3
ENDMDL
MODEL 7
REMARK VINA RESULT:      -7.5      2.644      5.146
REMARK  Name = 
REMARK  3 active torsions:
REMARK  status: ('A' for Active; 'I' for Inactive)
REMARK    1  A    between atoms: C_6  and  C_7
REMARK    2  A    between atoms: C_14  and  N_15
REMARK    3  A    between atoms: N_15  and  C_16
REMARK                            x       y       z     vdW  Elec       q    Type
REMARK                         _______ _______ _______ _____ _____    ______ ____
ROOT
ATOM      1  O   UNL     1       6.606   3.775  14.622  0.00  0.00    +0.000 OA
ATOM      2  C   UNL     1       6.357   4.664  15.414  0.00  0.00    +0.000 C 
ATOM      3  N   UNL     1       7.168   5.665  15.815  0.00  0.00    +0.000 N 
ATOM      4  C   UNL     1       6.549   6.464  16.710  0.00  0.00    +0.000 C 
ATOM      5  O   UNL     1       7.009   7.464  17.231  0.00  0.00    +0.000 OA
ATOM      6  C   UNL     1       5.195   5.917  16.918  0.00  0.00    +0.000 C 
ATOM      7  C   UNL     1       5.057   4.847  16.125  0.00  0.00    +0.000 C 
ATOM      8  H   UNL     1       8.106   5.805  15.480  0.00  0.00    +0.000 HD
ENDROOT
BRANCH   6   9
ATOM      9  C   UNL     1       4.198   6.433  17.843  0.00  0.00    +0.000 A 
ATOM     10  C   UNL     1       3.324   7.434  17.399  0.00  0.00    +0.000 A 
ATOM     11  C   UNL     1       2.313   7.914  18.233  0.00  0.00    +0.000 A 
ATOM     12  C   UNL     1       2.166   7.398  19.519  0.00  0.00    +0.000 A 
ATOM     13  C   UNL     1       3.030   6.405  19.974  0.00  0.00    +0.000 A 
ATOM     14  C   UNL     1       4.043   5.919  19.140  0.00  0.00    +0.000 A 
ATOM     15 CL   UNL     1       5.073   4.674  19.757  0.00  0.00    +0.000 Cl
ENDBRANCH   6   9
BRANCH   7  16
ATOM     16  N   UNL     1       3.988   4.000  15.925  0.00  0.00    +0.000 N 
ATOM     17  H   UNL     1       3.272   4.467  15.353  0.00  0.00    +0.000 HD
BRANCH  16  18
ATOM     18  C   UNL     1       3.292   3.400  17.014  0.00  0.00    +0.000 A 
ATOM     19  C   UNL     1       3.799   2.323  17.755  0.00  0.00    +0.000 A 
ATOM     20  C   UNL     1       3.069   1.776  18.813  0.00  0.00    +0.000 A 
ATOM     21  C   UNL     1       1.813   2.284  19.133  0.00  0.00    +0.000 A 
ATOM     22  C   UNL     1       1.288   3.341  18.395  0.00  0.00    +0.000 A 
ATOM     23  C   UNL     1       2.023   3.895  17.343  0.00  0.00    +0.000 A 
ENDBRANCH  16  18
ENDBRANCH   7  16
TORSDOF 3
ENDMDL
MODEL 8
REMARK VINA RESULT:      -7.4      2.588      5.154
REMARK  Name = 
REMARK  3 active torsions:
REMARK  status: ('A' for Active; 'I' for Inactive)
REMARK    1  A    between atoms: C_6  and  C_7
REMARK    2  A    between atoms: C_14  and  N_15
REMARK    3  A    between atoms: N_15  and  C_16
REMARK                            x       y       z     vdW  Elec       q    Type
REMARK                         _______ _______ _______ _____ _____    ______ ____
ROOT
ATOM      1  O   UNL     1       6.555   3.724  14.885  0.00  0.00    +0.000 OA
ATOM      2  C   UNL     1       6.296   4.670  15.602  0.00  0.00    +0.000 C 
ATOM      3  N   UNL     1       7.124   5.660  15.997  0.00  0.00    +0.000 N 
ATOM      4  C   UNL     1       6.485   6.541  16.797  0.00  0.00    +0.000 C 
ATOM      5  O   UNL     1       6.956   7.551  17.286  0.00  0.00    +0.000 OA
ATOM      6  C   UNL     1       5.096   6.066  16.943  0.00  0.00    +0.000 C 
ATOM      7  C   UNL     1       4.962   4.954  16.208  0.00  0.00    +0.000 C 
ATOM      8  H   UNL     1       8.088   5.738  15.720  0.00  0.00    +0.000 HD
ENDROOT
BRANCH   6   9
ATOM      9  C   UNL     1       4.065   6.682  17.763  0.00  0.00    +0.000 A 
ATOM     10  C   UNL     1       3.301   7.721  17.214  0.00  0.00    +0.000 A 
ATOM     11  C   UNL     1       2.260   8.298  17.943  0.00  0.00    +0.000 A 
ATOM     12  C   UNL     1       1.973   7.843  19.229  0.00  0.00    +0.000 A 
ATOM     13  C   UNL     1       2.727   6.814  19.788  0.00  0.00    +0.000 A 
ATOM     14  C   UNL     1       3.769   6.230  19.059  0.00  0.00    +0.000 A 
ATOM     15 CL   UNL     1       4.658   4.945  19.802  0.00  0.00    +0.000 Cl
ENDBRANCH   6   9
BRANCH   7  16
ATOM     16  N   UNL     1       3.869   4.142  15.986  0.00  0.00    +0.000 N 
ATOM     17  H   UNL     1       3.145   4.662  15.473  0.00  0.00    +0.000 HD
BRANCH  16  18
ATOM     18  C   UNL     1       3.197   3.480  17.054  0.00  0.00    +0.000 A 
ATOM     19  C   UNL     1       1.927   3.854  17.517  0.00  0.00    +0.000 A 
ATOM     20  C   UNL     1       1.318   3.165  18.569  0.00  0.00    +0.000 A 
ATOM     21  C   UNL     1       1.978   2.106  19.186  0.00  0.00    +0.000 A 
ATOM     22  C   UNL     1       3.247   1.734  18.750  0.00  0.00    +0.000 A 
ATOM     23  C   UNL     1       3.851   2.417  17.691  0.00  0.00    +0.000 A 
ENDBRANCH  16  18
ENDBRANCH   7  16
TORSDOF 3
ENDMDL
MODEL 9
REMARK VINA RESULT:      -7.2      1.673      4.876
REMARK  Name = 
REMARK  3 active torsions:
REMARK  status: ('A' for Active; 'I' for Inactive)
REMARK    1  A    between atoms: C_6  and  C_7
REMARK    2  A    between atoms: C_14  and  N_15
REMARK    3  A    between atoms: N_15  and  C_16
REMARK                            x       y       z     vdW  Elec       q    Type
REMARK                         _______ _______ _______ _____ _____    ______ ____
ROOT
ATOM      1  O   UNL     1       4.375   0.941  18.228  0.00  0.00    +0.000 OA
ATOM      2  C   UNL     1       3.508   1.780  18.378  0.00  0.00    +0.000 C 
ATOM      3  N   UNL     1       2.200   1.682  18.062  0.00  0.00    +0.000 N 
ATOM      4  C   UNL     1       1.537   2.817  18.370  0.00  0.00    +0.000 C 
ATOM      5  O   UNL     1       0.345   3.024  18.230  0.00  0.00    +0.000 OA
ATOM      6  C   UNL     1       2.524   3.755  18.939  0.00  0.00    +0.000 C 
ATOM      7  C   UNL     1       3.710   3.134  18.973  0.00  0.00    +0.000 C 
ATOM      8  H   UNL     1       1.772   0.864  17.661  0.00  0.00    +0.000 HD
ENDROOT
BRANCH   6   9
ATOM      9  C   UNL     1       2.259   5.121  19.361  0.00  0.00    +0.000 A 
ATOM     10  C   UNL     1       1.636   5.334  20.598  0.00  0.00    +0.000 A 
ATOM     11  C   UNL     1       1.419   6.629  21.070  0.00  0.00    +0.000 A 
ATOM     12  C   UNL     1       1.822   7.725  20.310  0.00  0.00    +0.000 A 
ATOM     13  C   UNL     1       2.439   7.528  19.077  0.00  0.00    +0.000 A 
ATOM     14  C   UNL     1       2.662   6.231  18.602  0.00  0.00    +0.000 A 
ATOM     15 CL   UNL     1       3.448   6.052  17.071  0.00  0.00    +0.000 Cl
ENDBRANCH   6   9
BRANCH   7  16
ATOM     16  N   UNL     1       4.941   3.556  19.430  0.00  0.00    +0.000 N 
ATOM     17  H   UNL     1       4.832   4.047  20.327  0.00  0.00    +0.000 HD
BRANCH  16  18
ATOM     18  C   UNL     1       5.796   4.373  18.635  0.00  0.00    +0.000 A 
ATOM     19  C   UNL     1       6.037   4.142  17.273  0.00  0.00    +0.000 A 
ATOM     20  C   UNL     1       6.888   4.979  16.546  0.00  0.00    +0.000 A 
ATOM     21  C   UNL     1       7.525   6.045  17.174  0.00  0.00    +0.000 A 
ATOM     22  C   UNL     1       7.310   6.276  18.530  0.00  0.00    +0.000 A 
ATOM     23  C   UNL     1       6.451   5.446  19.255  0.00  0.00    +0.000 A 
ENDBRANCH  16  18
ENDBRANCH   7  16
TORSDOF 3
ENDMDL
