MODEL 1
REMARK VINA RESULT:      -9.4      0.000      0.000
REMARK  Name = 
REMARK  5 active torsions:
REMARK  status: ('A' for Active; 'I' for Inactive)
REMARK    1  A    between atoms: C_3  and  N_4
REMARK    2  A    between atoms: N_4  and  S_5
REMARK    3  A    between atoms: S_5  and  C_8
REMARK    4  A    between atoms: N_21  and  C_22
REMARK    5  A    between atoms: C_25  and  C_26
REMARK                            x       y       z     vdW  Elec       q    Type
REMARK                         _______ _______ _______ _____ _____    ______ ____
ROOT
ATOM      1  O   UNL     1       5.007   5.743  18.985  0.00  0.00    +0.000 OA
ATOM      2  C   UNL     1       5.475   5.265  17.963  0.00  0.00    +0.000 C 
ATOM      3  C   UNL     1       5.015   3.965  17.339  0.00  0.00    +0.000 C 
ATOM      4  C   UNL     1       5.748   3.969  15.996  0.00  0.00    +0.000 C 
ATOM      5  C   UNL     1       7.003   4.779  16.273  0.00  0.00    +0.000 C 
ATOM      6  N   UNL     1       6.572   5.750  17.241  0.00  0.00    +0.000 N 
ENDROOT
BRANCH   6   7
ATOM      7  C   UNL     1       7.348   6.858  17.673  0.00  0.00    +0.000 A 
ATOM      8  C   UNL     1       7.244   8.087  17.013  0.00  0.00    +0.000 A 
ATOM      9  C   UNL     1       7.883   9.231  17.496  0.00  0.00    +0.000 A 
ATOM     10  C   UNL     1       8.694   9.188  18.638  0.00  0.00    +0.000 A 
ATOM     11  C   UNL     1       8.854   7.937  19.258  0.00  0.00    +0.000 A 
ATOM     12  C   UNL     1       8.198   6.796  18.779  0.00  0.00    +0.000 A 
ATOM     13  F   UNL     1       8.364   5.652  19.461  0.00  0.00    +0.000 F 
BRANCH  10  14
ATOM     14  C   UNL     1       9.343  10.411  19.156  0.00  0.00    +0.000 A 
ATOM     15  C   UNL     1       9.296  10.751  20.514  0.00  0.00    +0.000 A 
ATOM     16  C   UNL     1       9.926  11.908  20.949  0.00  0.00    +0.000 A 
ATOM     17  N   UNL     1      10.588  12.755  20.136  0.00  0.00    +0.000 NA
ATOM     18  C   UNL     1      10.619  12.431  18.830  0.00  0.00    +0.000 A 
ATOM     19  C   UNL     1      10.027  11.292  18.305  0.00  0.00    +0.000 A 
ENDBRANCH  10  14
ENDBRANCH   6   7
BRANCH   3  20
ATOM     20  N   UNL     1       3.566   3.825  17.126  0.00  0.00    +0.000 NA
ATOM     21  H   UNL     1       3.272   3.202  16.374  0.00  0.00    +0.000 HD
BRANCH  20  22
ATOM     22  S   UNL     1       2.574   3.555  18.475  0.00  0.00    +0.000 S 
ATOM     23  O   UNL     1       1.353   3.013  17.915  0.00  0.00    +0.000 OA
ATOM     24  O   UNL     1       3.333   2.818  19.456  0.00  0.00    +0.000 OA
BRANCH  22  25
ATOM     25  C   UNL     1       2.164   5.177  19.070  0.00  0.00    +0.000 A 
ATOM     26  C   UNL     1       1.836   5.345  20.417  0.00  0.00    +0.000 A 
ATOM     27  C   UNL     1       1.515   6.619  20.895  0.00  0.00    +0.000 A 
ATOM     28  C   UNL     1       1.509   7.733  20.035  0.00  0.00    +0.000 A 
ATOM     29  C   UNL     1       1.176   9.016  20.501  0.00  0.00    +0.000 A 
ATOM     30  C   UNL     1       1.162  10.103  19.628  0.00  0.00    +0.000 A 
ATOM     31 CL   UNL     1       0.754  11.668  20.218  0.00  0.00    +0.000 Cl
ATOM     32  C   UNL     1       1.471   9.933  18.282  0.00  0.00    +0.000 A 
ATOM     33  C   UNL     1       1.810   8.664  17.805  0.00  0.00    +0.000 A 
ATOM     34  C   UNL     1       1.845   7.558  18.672  0.00  0.00    +0.000 A 
ATOM     35  C   UNL     1       2.194   6.279  18.207  0.00  0.00    +0.000 A 
ENDBRANCH  22  25
ENDBRANCH  20  22
ENDBRANCH   3  20
TORSDOF 5
ENDMDL
MODEL 2
REMARK VINA RESULT:      -8.9      4.706      7.482
REMARK  Name = 
REMARK  5 active torsions:
REMARK  status: ('A' for Active; 'I' for Inactive)
REMARK    1  A    between atoms: C_3  and  N_4
REMARK    2  A    between atoms: N_4  and  S_5
REMARK    3  A    between atoms: S_5  and  C_8
REMARK    4  A    between atoms: N_21  and  C_22
REMARK    5  A    between atoms: C_25  and  C_26
REMARK                            x       y       z     vdW  Elec       q    Type
REMARK                         _______ _______ _______ _____ _____    ______ ____
ROOT
ATOM      1  O   UNL     1       2.240   8.849  19.124  0.00  0.00    +0.000 OA
ATOM      2  C   UNL     1       1.433   8.799  20.039  0.00  0.00    +0.000 C 
ATOM      3  C   UNL     1       0.918   7.516  20.656  0.00  0.00    +0.000 C 
ATOM      4  C   UNL     1       0.145   8.026  21.874  0.00  0.00    +0.000 C 
ATOM      5  C   UNL     1      -0.310   9.414  21.458  0.00  0.00    +0.000 C 
ATOM      6  N   UNL     1       0.757   9.881  20.615  0.00  0.00    +0.000 N 
ENDROOT
BRANCH   6   7
ATOM      7  C   UNL     1       0.880  11.210  20.131  0.00  0.00    +0.000 A 
ATOM      8  C   UNL     1       1.593  12.162  20.868  0.00  0.00    +0.000 A 
ATOM      9  C   UNL     1       1.854  13.436  20.356  0.00  0.00    +0.000 A 
ATOM     10  C   UNL     1       1.372  13.832  19.102  0.00  0.00    +0.000 A 
ATOM     11  C   UNL     1       0.594  12.899  18.396  0.00  0.00    +0.000 A 
ATOM     12  C   UNL     1       0.350  11.617  18.905  0.00  0.00    +0.000 A 
ATOM     13  F   UNL     1      -0.359  10.770  18.143  0.00  0.00    +0.000 F 
BRANCH  10  14
ATOM     14  C   UNL     1       1.676  15.173  18.560  0.00  0.00    +0.000 A 
ATOM     15  C   UNL     1       0.804  16.255  18.738  0.00  0.00    +0.000 A 
ATOM     16  C   UNL     1       1.139  17.494  18.214  0.00  0.00    +0.000 A 
ATOM     17  N   UNL     1       2.268  17.736  17.516  0.00  0.00    +0.000 NA
ATOM     18  C   UNL     1       3.095  16.691  17.336  0.00  0.00    +0.000 A 
ATOM     19  C   UNL     1       2.850  15.418  17.831  0.00  0.00    +0.000 A 
ENDBRANCH  10  14
ENDBRANCH   6   7
BRANCH   3  20
ATOM     20  N   UNL     1       1.939   6.542  21.073  0.00  0.00    +0.000 NA
ATOM     21  H   UNL     1       2.219   6.564  22.054  0.00  0.00    +0.000 HD
BRANCH  20  22
ATOM     22  S   UNL     1       1.754   4.925  20.595  0.00  0.00    +0.000 S 
ATOM     23  O   UNL     1       2.409   4.168  21.643  0.00  0.00    +0.000 OA
ATOM     24  O   UNL     1       0.365   4.703  20.276  0.00  0.00    +0.000 OA
BRANCH  22  25
ATOM     25  C   UNL     1       2.777   4.756  19.154  0.00  0.00    +0.000 A 
ATOM     26  C   UNL     1       2.429   3.820  18.179  0.00  0.00    +0.000 A 
ATOM     27  C   UNL     1       3.227   3.682  17.039  0.00  0.00    +0.000 A 
ATOM     28  C   UNL     1       4.381   4.468  16.866  0.00  0.00    +0.000 A 
ATOM     29  C   UNL     1       5.199   4.330  15.731  0.00  0.00    +0.000 A 
ATOM     30  C   UNL     1       6.346   5.109  15.588  0.00  0.00    +0.000 A 
ATOM     31 CL   UNL     1       7.333   4.927  14.189  0.00  0.00    +0.000 Cl
ATOM     32  C   UNL     1       6.703   6.028  16.568  0.00  0.00    +0.000 A 
ATOM     33  C   UNL     1       5.898   6.181  17.700  0.00  0.00    +0.000 A 
ATOM     34  C   UNL     1       4.729   5.417  17.857  0.00  0.00    +0.000 A 
ATOM     35  C   UNL     1       3.904   5.568  18.985  0.00  0.00    +0.000 A 
ENDBRANCH  22  25
ENDBRANCH  20  22
ENDBRANCH   3  20
TORSDOF 5
ENDMDL
MODEL 3
REMARK VINA RESULT:      -8.8      5.136      8.041
REMARK  Name = 
REMARK  5 active torsions:
REMARK  status: ('A' for Active; 'I' for Inactive)
REMARK    1  A    between atoms: C_3  and  N_4
REMARK    2  A    between atoms: N_4  and  S_5
REMARK    3  A    between atoms: S_5  and  C_8
REMARK    4  A    between atoms: N_21  and  C_22
REMARK    5  A    between atoms: C_25  and  C_26
REMARK                            x       y       z     vdW  Elec       q    Type
REMARK                         _______ _______ _______ _____ _____    ______ ____
ROOT
ATOM      1  O   UNL     1       1.766   9.328  18.946  0.00  0.00    +0.000 OA
ATOM      2  C   UNL     1       1.209   9.191  20.024  0.00  0.00    +0.000 C 
ATOM      3  C   UNL     1       0.943   7.854  20.683  0.00  0.00    +0.000 C 
ATOM      4  C   UNL     1       0.456   8.266  22.074  0.00  0.00    +0.000 C 
ATOM      5  C   UNL     1      -0.176   9.628  21.846  0.00  0.00    +0.000 C 
ATOM      6  N   UNL     1       0.622  10.200  20.796  0.00  0.00    +0.000 N 
ENDROOT
BRANCH   6   7
ATOM      7  C   UNL     1       0.537  11.549  20.361  0.00  0.00    +0.000 A 
ATOM      8  C   UNL     1       1.563  12.450  20.665  0.00  0.00    +0.000 A 
ATOM      9  C   UNL     1       1.580  13.743  20.135  0.00  0.00    +0.000 A 
ATOM     10  C   UNL     1       0.546  14.209  19.313  0.00  0.00    +0.000 A 
ATOM     11  C   UNL     1      -0.519  13.325  19.068  0.00  0.00    +0.000 A 
ATOM     12  C   UNL     1      -0.523  12.025  19.587  0.00  0.00    +0.000 A 
ATOM     13  F   UNL     1      -1.553  11.229  19.262  0.00  0.00    +0.000 F 
BRANCH  10  14
ATOM     14  C   UNL     1       0.588  15.569  18.736  0.00  0.00    +0.000 A 
ATOM     15  C   UNL     1       1.801  16.213  18.456  0.00  0.00    +0.000 A 
ATOM     16  C   UNL     1       1.785  17.488  17.911  0.00  0.00    +0.000 A 
ATOM     17  N   UNL     1       0.658  18.174  17.634  0.00  0.00    +0.000 NA
ATOM     18  C   UNL     1      -0.504  17.557  17.916  0.00  0.00    +0.000 A 
ATOM     19  C   UNL     1      -0.588  16.281  18.453  0.00  0.00    +0.000 A 
ENDBRANCH  10  14
ENDBRANCH   6   7
BRANCH   3  20
ATOM     20  N   UNL     1       2.097   6.946  20.798  0.00  0.00    +0.000 NA
ATOM     21  H   UNL     1       2.702   7.076  21.607  0.00  0.00    +0.000 HD
BRANCH  20  22
ATOM     22  S   UNL     1       1.842   5.286  20.569  0.00  0.00    +0.000 S 
ATOM     23  O   UNL     1       2.503   4.666  21.700  0.00  0.00    +0.000 OA
ATOM     24  O   UNL     1       0.436   5.072  20.322  0.00  0.00    +0.000 OA
BRANCH  22  25
ATOM     25  C   UNL     1       2.813   4.868  19.142  0.00  0.00    +0.000 A 
ATOM     26  C   UNL     1       2.977   3.525  18.801  0.00  0.00    +0.000 A 
ATOM     27  C   UNL     1       3.737   3.186  17.677  0.00  0.00    +0.000 A 
ATOM     28  C   UNL     1       4.346   4.182  16.891  0.00  0.00    +0.000 A 
ATOM     29  C   UNL     1       5.123   3.854  15.766  0.00  0.00    +0.000 A 
ATOM     30  C   UNL     1       5.730   4.857  15.011  0.00  0.00    +0.000 A 
ATOM     31 CL   UNL     1       6.676   4.436  13.635  0.00  0.00    +0.000 Cl
ATOM     32  C   UNL     1       5.582   6.194  15.362  0.00  0.00    +0.000 A 
ATOM     33  C   UNL     1       4.809   6.536  16.474  0.00  0.00    +0.000 A 
ATOM     34  C   UNL     1       4.175   5.542  17.240  0.00  0.00    +0.000 A 
ATOM     35  C   UNL     1       3.386   5.873  18.355  0.00  0.00    +0.000 A 
ENDBRANCH  22  25
ENDBRANCH  20  22
ENDBRANCH   3  20
TORSDOF 5
ENDMDL
MODEL 4
REMARK VINA RESULT:      -8.7      0.593      1.344
REMARK  Name = 
REMARK  5 active torsions:
REMARK  status: ('A' for Active; 'I' for Inactive)
REMARK    1  A    between atoms: C_3  and  N_4
REMARK    2  A    between atoms: N_4  and  S_5
REMARK    3  A    between atoms: S_5  and  C_8
REMARK    4  A    between atoms: N_21  and  C_22
REMARK    5  A    between atoms: C_25  and  C_26
REMARK                            x       y       z     vdW  Elec       q    Type
REMARK                         _______ _______ _______ _____ _____    ______ ____
ROOT
ATOM      1  O   UNL     1       5.036   5.667  19.331  0.00  0.00    +0.000 OA
ATOM      2  C   UNL     1       5.384   5.194  18.260  0.00  0.00    +0.000 C 
ATOM      3  C   UNL     1       4.859   3.894  17.689  0.00  0.00    +0.000 C 
ATOM      4  C   UNL     1       5.430   3.904  16.270  0.00  0.00    +0.000 C 
ATOM      5  C   UNL     1       6.705   4.720  16.400  0.00  0.00    +0.000 C 
ATOM      6  N   UNL     1       6.387   5.686  17.416  0.00  0.00    +0.000 N 
ENDROOT
BRANCH   6   7
ATOM      7  C   UNL     1       7.203   6.796  17.758  0.00  0.00    +0.000 A 
ATOM      8  C   UNL     1       7.054   8.011  17.082  0.00  0.00    +0.000 A 
ATOM      9  C   UNL     1       7.739   9.160  17.485  0.00  0.00    +0.000 A 
ATOM     10  C   UNL     1       8.640   9.135  18.557  0.00  0.00    +0.000 A 
ATOM     11  C   UNL     1       8.842   7.896  19.189  0.00  0.00    +0.000 A 
ATOM     12  C   UNL     1       8.140   6.751  18.792  0.00  0.00    +0.000 A 
ATOM     13  F   UNL     1       8.354   5.620  19.482  0.00  0.00    +0.000 F 
BRANCH  10  14
ATOM     14  C   UNL     1       9.338  10.363  18.993  0.00  0.00    +0.000 A 
ATOM     15  C   UNL     1       9.424  10.721  20.344  0.00  0.00    +0.000 A 
ATOM     16  C   UNL     1      10.096  11.882  20.700  0.00  0.00    +0.000 A 
ATOM     17  N   UNL     1      10.676  12.717  19.815  0.00  0.00    +0.000 NA
ATOM     18  C   UNL     1      10.579  12.375  18.517  0.00  0.00    +0.000 A 
ATOM     19  C   UNL     1       9.937  11.231  18.067  0.00  0.00    +0.000 A 
ENDBRANCH  10  14
ENDBRANCH   6   7
BRANCH   3  20
ATOM     20  N   UNL     1       3.395   3.748  17.646  0.00  0.00    +0.000 NA
ATOM     21  H   UNL     1       3.031   2.934  17.152  0.00  0.00    +0.000 HD
BRANCH  20  22
ATOM     22  S   UNL     1       2.522   3.946  19.087  0.00  0.00    +0.000 S 
ATOM     23  O   UNL     1       1.259   3.283  18.830  0.00  0.00    +0.000 OA
ATOM     24  O   UNL     1       3.364   3.541  20.187  0.00  0.00    +0.000 OA
BRANCH  22  25
ATOM     25  C   UNL     1       2.159   5.682  19.164  0.00  0.00    +0.000 A 
ATOM     26  C   UNL     1       2.242   6.447  18.000  0.00  0.00    +0.000 A 
ATOM     27  C   UNL     1       1.955   7.815  18.051  0.00  0.00    +0.000 A 
ATOM     28  C   UNL     1       1.592   8.432  19.262  0.00  0.00    +0.000 A 
ATOM     29  C   UNL     1       1.314   9.808  19.329  0.00  0.00    +0.000 A 
ATOM     30  C   UNL     1       0.971  10.400  20.544  0.00  0.00    +0.000 A 
ATOM     31 CL   UNL     1       0.630  12.087  20.605  0.00  0.00    +0.000 Cl
ATOM     32  C   UNL     1       0.906   9.642  21.708  0.00  0.00    +0.000 A 
ATOM     33  C   UNL     1       1.175   8.272  21.656  0.00  0.00    +0.000 A 
ATOM     34  C   UNL     1       1.507   7.651  20.440  0.00  0.00    +0.000 A 
ATOM     35  C   UNL     1       1.770   6.273  20.372  0.00  0.00    +0.000 A 
ENDBRANCH  22  25
ENDBRANCH  20  22
ENDBRANCH   3  20
TORSDOF 5
ENDMDL
MODEL 5
REMARK VINA RESULT:      -8.7      5.752      9.516
REMARK  Name = 
REMARK  5 active torsions:
REMARK  status: ('A' for Active; 'I' for Inactive)
REMARK    1  A    between atoms: C_3  and  N_4
REMARK    2  A    between atoms: N_4  and  S_5
REMARK    3  A    between atoms: S_5  and  C_8
REMARK    4  A    between atoms: N_21  and  C_22
REMARK    5  A    between atoms: C_25  and  C_26
REMARK                            x       y       z     vdW  Elec       q    Type
REMARK                         _______ _______ _______ _____ _____    ______ ____
ROOT
ATOM      1  O   UNL     1       2.018  12.264  20.131  0.00  0.00    +0.000 OA
ATOM      2  C   UNL     1       0.868  12.078  19.766  0.00  0.00    +0.000 C 
ATOM      3  C   UNL     1      -0.198  13.153  19.716  0.00  0.00    +0.000 C 
ATOM      4  C   UNL     1      -1.340  12.448  18.981  0.00  0.00    +0.000 C 
ATOM      5  C   UNL     1      -1.142  10.982  19.328  0.00  0.00    +0.000 C 
ATOM      6  N   UNL     1       0.286  10.849  19.432  0.00  0.00    +0.000 N 
ENDROOT
BRANCH   6   7
ATOM      7  C   UNL     1       0.974   9.614  19.556  0.00  0.00    +0.000 A 
ATOM      8  C   UNL     1       0.896   8.883  20.747  0.00  0.00    +0.000 A 
ATOM      9  C   UNL     1       1.441   7.602  20.855  0.00  0.00    +0.000 A 
ATOM     10  C   UNL     1       2.131   7.010  19.789  0.00  0.00    +0.000 A 
ATOM     11  C   UNL     1       2.271   7.775  18.618  0.00  0.00    +0.000 A 
ATOM     12  C   UNL     1       1.708   9.052  18.509  0.00  0.00    +0.000 A 
ATOM     13  F   UNL     1       1.843   9.693  17.338  0.00  0.00    +0.000 F 
BRANCH  10  14
ATOM     14  C   UNL     1       2.681   5.643  19.905  0.00  0.00    +0.000 A 
ATOM     15  C   UNL     1       3.850   5.259  19.234  0.00  0.00    +0.000 A 
ATOM     16  C   UNL     1       4.327   3.965  19.381  0.00  0.00    +0.000 A 
ATOM     17  N   UNL     1       3.724   3.022  20.134  0.00  0.00    +0.000 NA
ATOM     18  C   UNL     1       2.595   3.391  20.765  0.00  0.00    +0.000 A 
ATOM     19  C   UNL     1       2.048   4.664  20.686  0.00  0.00    +0.000 A 
ENDBRANCH  10  14
ENDBRANCH   6   7
BRANCH   3  20
ATOM     20  N   UNL     1       0.166  14.395  19.015  0.00  0.00    +0.000 NA
ATOM     21  H   UNL     1      -0.572  14.852  18.481  0.00  0.00    +0.000 HD
BRANCH  20  22
ATOM     22  S   UNL     1       1.033  15.577  19.868  0.00  0.00    +0.000 S 
ATOM     23  O   UNL     1       0.561  16.831  19.316  0.00  0.00    +0.000 OA
ATOM     24  O   UNL     1       0.917  15.296  21.278  0.00  0.00    +0.000 OA
BRANCH  22  25
ATOM     25  C   UNL     1       2.712  15.398  19.316  0.00  0.00    +0.000 A 
ATOM     26  C   UNL     1       2.976  15.357  17.946  0.00  0.00    +0.000 A 
ATOM     27  C   UNL     1       4.295  15.219  17.503  0.00  0.00    +0.000 A 
ATOM     28  C   UNL     1       5.358  15.112  18.418  0.00  0.00    +0.000 A 
ATOM     29  C   UNL     1       6.686  14.961  17.985  0.00  0.00    +0.000 A 
ATOM     30  C   UNL     1       7.722  14.842  18.911  0.00  0.00    +0.000 A 
ATOM     31 CL   UNL     1       9.343  14.659  18.361  0.00  0.00    +0.000 Cl
ATOM     32  C   UNL     1       7.456  14.864  20.276  0.00  0.00    +0.000 A 
ATOM     33  C   UNL     1       6.141  15.019  20.722  0.00  0.00    +0.000 A 
ATOM     34  C   UNL     1       5.084  15.157  19.806  0.00  0.00    +0.000 A 
ATOM     35  C   UNL     1       3.759  15.324  20.242  0.00  0.00    +0.000 A 
ENDBRANCH  22  25
ENDBRANCH  20  22
ENDBRANCH   3  20
TORSDOF 5
ENDMDL
MODEL 6
REMARK VINA RESULT:      -8.6      6.238      9.431
REMARK  Name = 
REMARK  5 active torsions:
REMARK  status: ('A' for Active; 'I' for Inactive)
REMARK    1  A    between atoms: C_3  and  N_4
REMARK    2  A    between atoms: N_4  and  S_5
REMARK    3  A    between atoms: S_5  and  C_8
REMARK    4  A    between atoms: N_21  and  C_22
REMARK    5  A    between atoms: C_25  and  C_26
REMARK                            x       y       z     vdW  Elec       q    Type
REMARK                         _______ _______ _______ _____ _____    ______ ____
ROOT
ATOM      1  O   UNL     1       1.565  11.455  21.267  0.00  0.00    +0.000 OA
ATOM      2  C   UNL     1       0.737  11.402  20.371  0.00  0.00    +0.000 C 
ATOM      3  C   UNL     1      -0.305  12.468  20.106  0.00  0.00    +0.000 C 
ATOM      4  C   UNL     1      -0.897  12.022  18.767  0.00  0.00    +0.000 C 
ATOM      5  C   UNL     1      -0.711  10.514  18.776  0.00  0.00    +0.000 C 
ATOM      6  N   UNL     1       0.518  10.329  19.499  0.00  0.00    +0.000 N 
ENDROOT
BRANCH   6   7
ATOM      7  C   UNL     1       1.211   9.095  19.609  0.00  0.00    +0.000 A 
ATOM      8  C   UNL     1       1.065   8.308  20.756  0.00  0.00    +0.000 A 
ATOM      9  C   UNL     1       1.618   7.027  20.838  0.00  0.00    +0.000 A 
ATOM     10  C   UNL     1       2.382   6.494  19.792  0.00  0.00    +0.000 A 
ATOM     11  C   UNL     1       2.588   7.315  18.671  0.00  0.00    +0.000 A 
ATOM     12  C   UNL     1       2.017   8.591  18.587  0.00  0.00    +0.000 A 
ATOM     13  F   UNL     1       2.220   9.289  17.459  0.00  0.00    +0.000 F 
BRANCH  10  14
ATOM     14  C   UNL     1       2.940   5.127  19.879  0.00  0.00    +0.000 A 
ATOM     15  C   UNL     1       2.312   4.122  20.627  0.00  0.00    +0.000 A 
ATOM     16  C   UNL     1       2.874   2.855  20.671  0.00  0.00    +0.000 A 
ATOM     17  N   UNL     1       4.016   2.516  20.040  0.00  0.00    +0.000 NA
ATOM     18  C   UNL     1       4.623   3.488  19.335  0.00  0.00    +0.000 A 
ATOM     19  C   UNL     1       4.131   4.780  19.224  0.00  0.00    +0.000 A 
ENDBRANCH  10  14
ENDBRANCH   6   7
BRANCH   3  20
ATOM     20  N   UNL     1       0.192  13.850  20.004  0.00  0.00    +0.000 NA
ATOM     21  H   UNL     1       0.024  14.334  19.123  0.00  0.00    +0.000 HD
BRANCH  20  22
ATOM     22  S   UNL     1      -0.130  14.918  21.282  0.00  0.00    +0.000 S 
ATOM     23  O   UNL     1       0.891  14.616  22.264  0.00  0.00    +0.000 OA
ATOM     24  O   UNL     1      -0.267  16.248  20.738  0.00  0.00    +0.000 OA
BRANCH  22  25
ATOM     25  C   UNL     1      -1.663  14.350  21.976  0.00  0.00    +0.000 A 
ATOM     26  C   UNL     1      -1.692  13.928  23.306  0.00  0.00    +0.000 A 
ATOM     27  C   UNL     1      -2.895  13.482  23.861  0.00  0.00    +0.000 A 
ATOM     28  C   UNL     1      -4.074  13.443  23.095  0.00  0.00    +0.000 A 
ATOM     29  C   UNL     1      -5.287  12.985  23.638  0.00  0.00    +0.000 A 
ATOM     30  C   UNL     1      -6.440  12.941  22.855  0.00  0.00    +0.000 A 
ATOM     31 CL   UNL     1      -7.917  12.379  23.539  0.00  0.00    +0.000 Cl
ATOM     32  C   UNL     1      -6.406  13.343  21.524  0.00  0.00    +0.000 A 
ATOM     33  C   UNL     1      -5.210  13.807  20.971  0.00  0.00    +0.000 A 
ATOM     34  C   UNL     1      -4.040  13.874  21.747  0.00  0.00    +0.000 A 
ATOM     35  C   UNL     1      -2.832  14.348  21.207  0.00  0.00    +0.000 A 
ENDBRANCH  22  25
ENDBRANCH  20  22
ENDBRANCH   3  20
TORSDOF 5
ENDMDL
MODEL 7
REMARK VINA RESULT:      -8.6      5.769      9.257
REMARK  Name = 
REMARK  5 active torsions:
REMARK  status: ('A' for Active; 'I' for Inactive)
REMARK    1  A    between atoms: C_3  and  N_4
REMARK    2  A    between atoms: N_4  and  S_5
REMARK    3  A    between atoms: S_5  and  C_8
REMARK    4  A    between atoms: N_21  and  C_22
REMARK    5  A    between atoms: C_25  and  C_26
REMARK                            x       y       z     vdW  Elec       q    Type
REMARK                         _______ _______ _______ _____ _____    ______ ____
ROOT
ATOM      1  O   UNL     1       2.065  12.196  19.626  0.00  0.00    +0.000 OA
ATOM      2  C   UNL     1       0.887  12.032  19.350  0.00  0.00    +0.000 C 
ATOM      3  C   UNL     1      -0.170  13.112  19.437  0.00  0.00    +0.000 C 
ATOM      4  C   UNL     1      -1.376  12.446  18.770  0.00  0.00    +0.000 C 
ATOM      5  C   UNL     1      -1.161  10.965  19.034  0.00  0.00    +0.000 C 
ATOM      6  N   UNL     1       0.269  10.822  19.012  0.00  0.00    +0.000 N 
ENDROOT
BRANCH   6   7
ATOM      7  C   UNL     1       0.956   9.579  19.024  0.00  0.00    +0.000 A 
ATOM      8  C   UNL     1       1.575   9.107  17.862  0.00  0.00    +0.000 A 
ATOM      9  C   UNL     1       2.376   7.963  17.874  0.00  0.00    +0.000 A 
ATOM     10  C   UNL     1       2.556   7.210  19.042  0.00  0.00    +0.000 A 
ATOM     11  C   UNL     1       1.874   7.645  20.191  0.00  0.00    +0.000 A 
ATOM     12  C   UNL     1       1.087   8.803  20.178  0.00  0.00    +0.000 A 
ATOM     13  F   UNL     1       0.512   9.177  21.332  0.00  0.00    +0.000 F 
BRANCH  10  14
ATOM     14  C   UNL     1       3.427   6.016  19.049  0.00  0.00    +0.000 A 
ATOM     15  C   UNL     1       4.593   5.950  18.275  0.00  0.00    +0.000 A 
ATOM     16  C   UNL     1       5.378   4.807  18.322  0.00  0.00    +0.000 A 
ATOM     17  N   UNL     1       5.086   3.724  19.069  0.00  0.00    +0.000 NA
ATOM     18  C   UNL     1       3.959   3.786  19.800  0.00  0.00    +0.000 A 
ATOM     19  C   UNL     1       3.116   4.888  19.825  0.00  0.00    +0.000 A 
ENDBRANCH  10  14
ENDBRANCH   6   7
BRANCH   3  20
ATOM     20  N   UNL     1       0.144  14.383  18.763  0.00  0.00    +0.000 NA
ATOM     21  H   UNL     1      -0.609  14.816  18.229  0.00  0.00    +0.000 HD
BRANCH  20  22
ATOM     22  S   UNL     1       0.948  15.586  19.647  0.00  0.00    +0.000 S 
ATOM     23  O   UNL     1       0.512  16.826  19.036  0.00  0.00    +0.000 OA
ATOM     24  O   UNL     1       0.735  15.336  21.052  0.00  0.00    +0.000 OA
BRANCH  22  25
ATOM     25  C   UNL     1       2.661  15.401  19.216  0.00  0.00    +0.000 A 
ATOM     26  C   UNL     1       3.022  15.360  17.869  0.00  0.00    +0.000 A 
ATOM     27  C   UNL     1       4.369  15.218  17.521  0.00  0.00    +0.000 A 
ATOM     28  C   UNL     1       5.363  15.105  18.510  0.00  0.00    +0.000 A 
ATOM     29  C   UNL     1       6.718  14.948  18.173  0.00  0.00    +0.000 A 
ATOM     30  C   UNL     1       7.684  14.822  19.170  0.00  0.00    +0.000 A 
ATOM     31 CL   UNL     1       9.340  14.634  18.738  0.00  0.00    +0.000 Cl
ATOM     32  C   UNL     1       7.321  14.844  20.513  0.00  0.00    +0.000 A 
ATOM     33  C   UNL     1       5.979  15.004  20.864  0.00  0.00    +0.000 A 
ATOM     34  C   UNL     1       4.991  15.148  19.875  0.00  0.00    +0.000 A 
ATOM     35  C   UNL     1       3.638  15.321  20.215  0.00  0.00    +0.000 A 
ENDBRANCH  22  25
ENDBRANCH  20  22
ENDBRANCH   3  20
TORSDOF 5
ENDMDL
MODEL 8
REMARK VINA RESULT:      -8.6      5.996      9.516
REMARK  Name = 
REMARK  5 active torsions:
REMARK  status: ('A' for Active; 'I' for Inactive)
REMARK    1  A    between atoms: C_3  and  N_4
REMARK    2  A    between atoms: N_4  and  S_5
REMARK    3  A    between atoms: S_5  and  C_8
REMARK    4  A    between atoms: N_21  and  C_22
REMARK    5  A    between atoms: C_25  and  C_26
REMARK                            x       y       z     vdW  Elec       q    Type
REMARK                         _______ _______ _______ _____ _____    ______ ____
ROOT
ATOM      1  O   UNL     1       1.431  10.055  22.165  0.00  0.00    +0.000 OA
ATOM      2  C   UNL     1       1.054  10.535  21.107  0.00  0.00    +0.000 C 
ATOM      3  C   UNL     1       0.336  11.861  20.979  0.00  0.00    +0.000 C 
ATOM      4  C   UNL     1       0.314  12.077  19.464  0.00  0.00    +0.000 C 
ATOM      5  C   UNL     1       0.322  10.667  18.899  0.00  0.00    +0.000 C 
ATOM      6  N   UNL     1       1.108   9.927  19.848  0.00  0.00    +0.000 N 
ENDROOT
BRANCH   6   7
ATOM      7  C   UNL     1       1.559   8.594  19.656  0.00  0.00    +0.000 A 
ATOM      8  C   UNL     1       1.390   7.643  20.668  0.00  0.00    +0.000 A 
ATOM      9  C   UNL     1       1.692   6.295  20.462  0.00  0.00    +0.000 A 
ATOM     10  C   UNL     1       2.220   5.843  19.245  0.00  0.00    +0.000 A 
ATOM     11  C   UNL     1       2.456   6.812  18.255  0.00  0.00    +0.000 A 
ATOM     12  C   UNL     1       2.136   8.159  18.461  0.00  0.00    +0.000 A 
ATOM     13  F   UNL     1       2.346   9.010  17.445  0.00  0.00    +0.000 F 
BRANCH  10  14
ATOM     14  C   UNL     1       2.511   4.410  19.029  0.00  0.00    +0.000 A 
ATOM     15  C   UNL     1       3.696   3.983  18.416  0.00  0.00    +0.000 A 
ATOM     16  C   UNL     1       3.922   2.626  18.241  0.00  0.00    +0.000 A 
ATOM     17  N   UNL     1       3.056   1.664  18.618  0.00  0.00    +0.000 NA
ATOM     18  C   UNL     1       1.913   2.079  19.193  0.00  0.00    +0.000 A 
ATOM     19  C   UNL     1       1.603   3.413  19.419  0.00  0.00    +0.000 A 
ENDBRANCH  10  14
ENDBRANCH   6   7
BRANCH   3  20
ATOM     20  N   UNL     1       0.971  13.010  21.646  0.00  0.00    +0.000 NA
ATOM     21  H   UNL     1       1.949  13.187  21.419  0.00  0.00    +0.000 HD
BRANCH  20  22
ATOM     22  S   UNL     1       0.141  14.488  21.671  0.00  0.00    +0.000 S 
ATOM     23  O   UNL     1       0.520  15.087  22.935  0.00  0.00    +0.000 OA
ATOM     24  O   UNL     1       0.387  15.168  20.422  0.00  0.00    +0.000 OA
BRANCH  22  25
ATOM     25  C   UNL     1      -1.572  14.046  21.831  0.00  0.00    +0.000 A 
ATOM     26  C   UNL     1      -2.411  14.163  20.721  0.00  0.00    +0.000 A 
ATOM     27  C   UNL     1      -3.760  13.814  20.837  0.00  0.00    +0.000 A 
ATOM     28  C   UNL     1      -4.285  13.356  22.059  0.00  0.00    +0.000 A 
ATOM     29  C   UNL     1      -5.642  13.015  22.192  0.00  0.00    +0.000 A 
ATOM     30  C   UNL     1      -6.144  12.578  23.417  0.00  0.00    +0.000 A 
ATOM     31 CL   UNL     1      -7.809  12.162  23.559  0.00  0.00    +0.000 Cl
ATOM     32  C   UNL     1      -5.312  12.480  24.527  0.00  0.00    +0.000 A 
ATOM     33  C   UNL     1      -3.960  12.811  24.410  0.00  0.00    +0.000 A 
ATOM     34  C   UNL     1      -3.430  13.238  23.180  0.00  0.00    +0.000 A 
ATOM     35  C   UNL     1      -2.070  13.564  23.046  0.00  0.00    +0.000 A 
ENDBRANCH  22  25
ENDBRANCH  20  22
ENDBRANCH   3  20
TORSDOF 5
ENDMDL
MODEL 9
REMARK VINA RESULT:      -8.6      6.148      9.538
REMARK  Name = 
REMARK  5 active torsions:
REMARK  status: ('A' for Active; 'I' for Inactive)
REMARK    1  A    between atoms: C_3  and  N_4
REMARK    2  A    between atoms: N_4  and  S_5
REMARK    3  A    between atoms: S_5  and  C_8
REMARK    4  A    between atoms: N_21  and  C_22
REMARK    5  A    between atoms: C_25  and  C_26
REMARK                            x       y       z     vdW  Elec       q    Type
REMARK                         _______ _______ _______ _____ _____    ______ ____
ROOT
ATOM      1  O   UNL     1       1.939  12.292  19.514  0.00  0.00    +0.000 OA
ATOM      2  C   UNL     1       0.752  12.028  19.405  0.00  0.00    +0.000 C 
ATOM      3  C   UNL     1      -0.360  13.053  19.457  0.00  0.00    +0.000 C 
ATOM      4  C   UNL     1      -1.583  12.233  19.039  0.00  0.00    +0.000 C 
ATOM      5  C   UNL     1      -1.240  10.822  19.488  0.00  0.00    +0.000 C 
ATOM      6  N   UNL     1       0.186  10.751  19.320  0.00  0.00    +0.000 N 
ENDROOT
BRANCH   6   7
ATOM      7  C   UNL     1       0.952   9.561  19.431  0.00  0.00    +0.000 A 
ATOM      8  C   UNL     1       0.918   8.812  20.612  0.00  0.00    +0.000 A 
ATOM      9  C   UNL     1       1.545   7.567  20.706  0.00  0.00    +0.000 A 
ATOM     10  C   UNL     1       2.275   7.035  19.635  0.00  0.00    +0.000 A 
ATOM     11  C   UNL     1       2.368   7.822  18.475  0.00  0.00    +0.000 A 
ATOM     12  C   UNL     1       1.724   9.061  18.380  0.00  0.00    +0.000 A 
ATOM     13  F   UNL     1       1.821   9.725  17.217  0.00  0.00    +0.000 F 
BRANCH  10  14
ATOM     14  C   UNL     1       2.912   5.704  19.736  0.00  0.00    +0.000 A 
ATOM     15  C   UNL     1       2.282   4.633  20.383  0.00  0.00    +0.000 A 
ATOM     16  C   UNL     1       2.921   3.404  20.445  0.00  0.00    +0.000 A 
ATOM     17  N   UNL     1       4.141   3.163  19.925  0.00  0.00    +0.000 NA
ATOM     18  C   UNL     1       4.748   4.198  19.317  0.00  0.00    +0.000 A 
ATOM     19  C   UNL     1       4.184   5.460  19.196  0.00  0.00    +0.000 A 
ENDBRANCH  10  14
ENDBRANCH   6   7
BRANCH   3  20
ATOM     20  N   UNL     1      -0.208  14.222  18.575  0.00  0.00    +0.000 NA
ATOM     21  H   UNL     1      -0.848  14.285  17.785  0.00  0.00    +0.000 HD
BRANCH  20  22
ATOM     22  S   UNL     1      -0.066  15.755  19.286  0.00  0.00    +0.000 S 
ATOM     23  O   UNL     1      -0.628  16.656  18.300  0.00  0.00    +0.000 OA
ATOM     24  O   UNL     1      -0.605  15.688  20.623  0.00  0.00    +0.000 OA
BRANCH  22  25
ATOM     25  C   UNL     1       1.678  16.085  19.315  0.00  0.00    +0.000 A 
ATOM     26  C   UNL     1       2.154  17.164  20.061  0.00  0.00    +0.000 A 
ATOM     27  C   UNL     1       3.527  17.429  20.092  0.00  0.00    +0.000 A 
ATOM     28  C   UNL     1       4.434  16.628  19.375  0.00  0.00    +0.000 A 
ATOM     29  C   UNL     1       5.814  16.891  19.388  0.00  0.00    +0.000 A 
ATOM     30  C   UNL     1       6.693  16.093  18.658  0.00  0.00    +0.000 A 
ATOM     31 CL   UNL     1       8.381  16.430  18.689  0.00  0.00    +0.000 Cl
ATOM     32  C   UNL     1       6.217  15.028  17.900  0.00  0.00    +0.000 A 
ATOM     33  C   UNL     1       4.848  14.750  17.881  0.00  0.00    +0.000 A 
ATOM     34  C   UNL     1       3.946  15.533  18.622  0.00  0.00    +0.000 A 
ATOM     35  C   UNL     1       2.568  15.258  18.620  0.00  0.00    +0.000 A 
ENDBRANCH  22  25
ENDBRANCH  20  22
ENDBRANCH   3  20
TORSDOF 5
ENDMDL
