MODEL 1
REMARK VINA RESULT:      -7.7      0.000      0.000
REMARK  Name = 
REMARK  5 active torsions:
REMARK  status: ('A' for Active; 'I' for Inactive)
REMARK    1  A    between atoms: C_2  and  O_3
REMARK    2  A    between atoms: C_2  and  C_4
REMARK    3  A    between atoms: C_7  and  C_8
REMARK    4  A    between atoms: N_13  and  C_14
REMARK    5  A    between atoms: C_17  and  C_18
REMARK                            x       y       z     vdW  Elec       q    Type
REMARK                         _______ _______ _______ _____ _____    ______ ____
ROOT
ATOM      1  C   UNL     1       2.672   7.428  18.052  0.00  0.00    +0.000 C 
ATOM      2  C   UNL     1       2.025   8.232  18.902  0.00  0.00    +0.000 C 
ATOM      3  S   UNL     1       1.498   7.864  20.492  0.00  0.00    +0.000 S 
ATOM      4  C   UNL     1       0.839   9.478  20.754  0.00  0.00    +0.000 C 
ATOM      5  S   UNL     1       0.003   9.846  22.156  0.00  0.00    +0.000 S 
ATOM      6  N   UNL     1       1.065  10.260  19.630  0.00  0.00    +0.000 N 
ATOM      7  C   UNL     1       1.679   9.637  18.550  0.00  0.00    +0.000 C 
ATOM      8  O   UNL     1       1.956  10.127  17.462  0.00  0.00    +0.000 OA
ENDROOT
BRANCH   1  12
ATOM      9  C   UNL     1       3.735   3.366  18.810  0.00  0.00    +0.000 A 
ATOM     10  C   UNL     1       4.603   4.402  19.169  0.00  0.00    +0.000 A 
ATOM     11  C   UNL     1       4.250   5.730  18.923  0.00  0.00    +0.000 A 
ATOM     12  C   UNL     1       3.023   6.030  18.321  0.00  0.00    +0.000 A 
ATOM     13  C   UNL     1       2.145   4.996  17.979  0.00  0.00    +0.000 A 
ATOM     14  C   UNL     1       2.495   3.664  18.230  0.00  0.00    +0.000 A 
BRANCH   9  16
ATOM     15  O   UNL     1       3.679   1.006  18.523  0.00  0.00    +0.000 OA
ATOM     16  C   UNL     1       4.151   1.972  19.099  0.00  0.00    +0.000 C 
BRANCH  16  17
ATOM     17  O   UNL     1       5.062   1.872  20.090  0.00  0.00    +0.000 OA
ATOM     18  H   UNL     1       4.706   1.990  20.990  0.00  0.00    +0.000 HD
ENDBRANCH  16  17
ENDBRANCH   9  16
ENDBRANCH   1  12
BRANCH   6  19
ATOM     19  C   UNL     1       0.702  11.632  19.533  0.00  0.00    +0.000 A 
ATOM     20  C   UNL     1      -0.546  11.997  19.012  0.00  0.00    +0.000 A 
ATOM     21  C   UNL     1      -0.913  13.344  18.932  0.00  0.00    +0.000 A 
ATOM     22  C   UNL     1      -0.025  14.351  19.334  0.00  0.00    +0.000 A 
ATOM     23  C   UNL     1       1.239  13.982  19.821  0.00  0.00    +0.000 A 
ATOM     24  C   UNL     1       1.595  12.635  19.928  0.00  0.00    +0.000 A 
BRANCH  22  25
ATOM     25  C   UNL     1      -0.401  15.812  19.248  0.00  0.00    +0.000 C 
ATOM     26  F   UNL     1       0.511  16.644  19.823  0.00  0.00    +0.000 F 
ATOM     27  F   UNL     1      -0.536  16.237  17.961  0.00  0.00    +0.000 F 
ATOM     28  F   UNL     1      -1.589  16.077  19.858  0.00  0.00    +0.000 F 
ENDBRANCH  22  25
ENDBRANCH   6  19
TORSDOF 5
ENDMDL
MODEL 2
REMARK VINA RESULT:      -7.7      0.057      1.186
REMARK  Name = 
REMARK  5 active torsions:
REMARK  status: ('A' for Active; 'I' for Inactive)
REMARK    1  A    between atoms: C_2  and  O_3
REMARK    2  A    between atoms: C_2  and  C_4
REMARK    3  A    between atoms: C_7  and  C_8
REMARK    4  A    between atoms: N_13  and  C_14
REMARK    5  A    between atoms: C_17  and  C_18
REMARK                            x       y       z     vdW  Elec       q    Type
REMARK                         _______ _______ _______ _____ _____    ______ ____
ROOT
ATOM      1  C   UNL     1       2.705   7.440  18.051  0.00  0.00    +0.000 C 
ATOM      2  C   UNL     1       2.053   8.247  18.894  0.00  0.00    +0.000 C 
ATOM      3  S   UNL     1       1.509   7.882  20.479  0.00  0.00    +0.000 S 
ATOM      4  C   UNL     1       0.855   9.499  20.734  0.00  0.00    +0.000 C 
ATOM      5  S   UNL     1       0.008   9.871  22.128  0.00  0.00    +0.000 S 
ATOM      6  N   UNL     1       1.096  10.280  19.612  0.00  0.00    +0.000 N 
ATOM      7  C   UNL     1       1.718   9.653  18.539  0.00  0.00    +0.000 C 
ATOM      8  O   UNL     1       2.008  10.142  17.453  0.00  0.00    +0.000 OA
ENDROOT
BRANCH   1  12
ATOM      9  C   UNL     1       3.740   3.372  18.818  0.00  0.00    +0.000 A 
ATOM     10  C   UNL     1       4.625   4.401  19.155  0.00  0.00    +0.000 A 
ATOM     11  C   UNL     1       4.281   5.731  18.906  0.00  0.00    +0.000 A 
ATOM     12  C   UNL     1       3.047   6.040  18.323  0.00  0.00    +0.000 A 
ATOM     13  C   UNL     1       2.152   5.012  18.004  0.00  0.00    +0.000 A 
ATOM     14  C   UNL     1       2.492   3.679  18.258  0.00  0.00    +0.000 A 
BRANCH   9  16
ATOM     15  O   UNL     1       3.663   1.011  18.541  0.00  0.00    +0.000 OA
ATOM     16  C   UNL     1       4.146   1.975  19.110  0.00  0.00    +0.000 C 
BRANCH  16  17
ATOM     17  O   UNL     1       5.064   1.872  20.094  0.00  0.00    +0.000 OA
ATOM     18  H   UNL     1       4.776   2.208  20.962  0.00  0.00    +0.000 HD
ENDBRANCH  16  17
ENDBRANCH   9  16
ENDBRANCH   1  12
BRANCH   6  19
ATOM     19  C   UNL     1       0.741  11.653  19.512  0.00  0.00    +0.000 A 
ATOM     20  C   UNL     1       1.613  12.643  19.982  0.00  0.00    +0.000 A 
ATOM     21  C   UNL     1       1.276  13.996  19.869  0.00  0.00    +0.000 A 
ATOM     22  C   UNL     1       0.044  14.381  19.320  0.00  0.00    +0.000 A 
ATOM     23  C   UNL     1      -0.842  13.384  18.885  0.00  0.00    +0.000 A 
ATOM     24  C   UNL     1      -0.493  12.034  18.971  0.00  0.00    +0.000 A 
BRANCH  22  25
ATOM     25  C   UNL     1      -0.341  15.836  19.197  0.00  0.00    +0.000 C 
ATOM     26  F   UNL     1      -0.536  16.241  17.912  0.00  0.00    +0.000 F 
ATOM     27  F   UNL     1      -1.495  16.125  19.859  0.00  0.00    +0.000 F 
ATOM     28  F   UNL     1       0.606  16.668  19.713  0.00  0.00    +0.000 F 
ENDBRANCH  22  25
ENDBRANCH   6  19
TORSDOF 5
ENDMDL
MODEL 3
REMARK VINA RESULT:      -7.5      0.129      1.332
REMARK  Name = 
REMARK  5 active torsions:
REMARK  status: ('A' for Active; 'I' for Inactive)
REMARK    1  A    between atoms: C_2  and  O_3
REMARK    2  A    between atoms: C_2  and  C_4
REMARK    3  A    between atoms: C_7  and  C_8
REMARK    4  A    between atoms: N_13  and  C_14
REMARK    5  A    between atoms: C_17  and  C_18
REMARK                            x       y       z     vdW  Elec       q    Type
REMARK                         _______ _______ _______ _____ _____    ______ ____
ROOT
ATOM      1  C   UNL     1       2.683   7.440  18.073  0.00  0.00    +0.000 C 
ATOM      2  C   UNL     1       2.040   8.255  18.915  0.00  0.00    +0.000 C 
ATOM      3  S   UNL     1       1.536   7.914  20.518  0.00  0.00    +0.000 S 
ATOM      4  C   UNL     1       0.867   9.527  20.757  0.00  0.00    +0.000 C 
ATOM      5  S   UNL     1       0.045   9.915  22.162  0.00  0.00    +0.000 S 
ATOM      6  N   UNL     1       1.072  10.289  19.615  0.00  0.00    +0.000 N 
ATOM      7  C   UNL     1       1.678   9.650  18.540  0.00  0.00    +0.000 C 
ATOM      8  O   UNL     1       1.937  10.121  17.439  0.00  0.00    +0.000 OA
ENDROOT
BRANCH   1  12
ATOM      9  C   UNL     1       3.710   3.392  18.947  0.00  0.00    +0.000 A 
ATOM     10  C   UNL     1       2.469   3.698  18.380  0.00  0.00    +0.000 A 
ATOM     11  C   UNL     1       2.138   5.024  18.092  0.00  0.00    +0.000 A 
ATOM     12  C   UNL     1       3.050   6.050  18.364  0.00  0.00    +0.000 A 
ATOM     13  C   UNL     1       4.300   5.742  18.912  0.00  0.00    +0.000 A 
ATOM     14  C   UNL     1       4.635   4.414  19.196  0.00  0.00    +0.000 A 
BRANCH   9  16
ATOM     15  O   UNL     1       4.818   1.618  20.079  0.00  0.00    +0.000 OA
ATOM     16  C   UNL     1       4.019   1.968  19.227  0.00  0.00    +0.000 C 
BRANCH  16  17
ATOM     17  O   UNL     1       3.370   1.102  18.420  0.00  0.00    +0.000 OA
ATOM     18  H   UNL     1       3.744   0.203  18.395  0.00  0.00    +0.000 HD
ENDBRANCH  16  17
ENDBRANCH   9  16
ENDBRANCH   1  12
BRANCH   6  19
ATOM     19  C   UNL     1       0.696  11.656  19.496  0.00  0.00    +0.000 A 
ATOM     20  C   UNL     1      -0.575  11.999  19.019  0.00  0.00    +0.000 A 
ATOM     21  C   UNL     1      -0.954  13.341  18.918  0.00  0.00    +0.000 A 
ATOM     22  C   UNL     1      -0.056  14.364  19.254  0.00  0.00    +0.000 A 
ATOM     23  C   UNL     1       1.230  14.016  19.696  0.00  0.00    +0.000 A 
ATOM     24  C   UNL     1       1.598  12.674  19.825  0.00  0.00    +0.000 A 
BRANCH  22  25
ATOM     25  C   UNL     1      -0.445  15.820  19.143  0.00  0.00    +0.000 C 
ATOM     26  F   UNL     1      -0.549  16.260  17.859  0.00  0.00    +0.000 F 
ATOM     27  F   UNL     1      -1.648  16.081  19.725  0.00  0.00    +0.000 F 
ATOM     28  F   UNL     1       0.453  16.643  19.751  0.00  0.00    +0.000 F 
ENDBRANCH  22  25
ENDBRANCH   6  19
TORSDOF 5
ENDMDL
MODEL 4
REMARK VINA RESULT:      -7.5      0.185      1.457
REMARK  Name = 
REMARK  5 active torsions:
REMARK  status: ('A' for Active; 'I' for Inactive)
REMARK    1  A    between atoms: C_2  and  O_3
REMARK    2  A    between atoms: C_2  and  C_4
REMARK    3  A    between atoms: C_7  and  C_8
REMARK    4  A    between atoms: N_13  and  C_14
REMARK    5  A    between atoms: C_17  and  C_18
REMARK                            x       y       z     vdW  Elec       q    Type
REMARK                         _______ _______ _______ _____ _____    ______ ____
ROOT
ATOM      1  C   UNL     1       2.742   7.463  18.098  0.00  0.00    +0.000 C 
ATOM      2  C   UNL     1       2.069   8.275  18.920  0.00  0.00    +0.000 C 
ATOM      3  S   UNL     1       1.488   7.921  20.494  0.00  0.00    +0.000 S 
ATOM      4  C   UNL     1       0.825   9.538  20.721  0.00  0.00    +0.000 C 
ATOM      5  S   UNL     1      -0.056   9.918  22.093  0.00  0.00    +0.000 S 
ATOM      6  N   UNL     1       1.090  10.311  19.600  0.00  0.00    +0.000 N 
ATOM      7  C   UNL     1       1.739   9.678  18.546  0.00  0.00    +0.000 C 
ATOM      8  O   UNL     1       2.053  10.160  17.464  0.00  0.00    +0.000 OA
ENDROOT
BRANCH   1  12
ATOM      9  C   UNL     1       3.686   3.394  18.967  0.00  0.00    +0.000 A 
ATOM     10  C   UNL     1       2.505   3.716  18.290  0.00  0.00    +0.000 A 
ATOM     11  C   UNL     1       2.202   5.048  18.005  0.00  0.00    +0.000 A 
ATOM     12  C   UNL     1       3.081   6.067  18.389  0.00  0.00    +0.000 A 
ATOM     13  C   UNL     1       4.272   5.744  19.048  0.00  0.00    +0.000 A 
ATOM     14  C   UNL     1       4.581   4.409  19.331  0.00  0.00    +0.000 A 
BRANCH   9  16
ATOM     15  O   UNL     1       4.840   1.595  20.010  0.00  0.00    +0.000 OA
ATOM     16  C   UNL     1       3.969   1.963  19.240  0.00  0.00    +0.000 C 
BRANCH  16  17
ATOM     17  O   UNL     1       3.205   1.112  18.523  0.00  0.00    +0.000 OA
ATOM     18  H   UNL     1       3.021   1.396  17.609  0.00  0.00    +0.000 HD
ENDBRANCH  16  17
ENDBRANCH   9  16
ENDBRANCH   1  12
BRANCH   6  19
ATOM     19  C   UNL     1       0.734  11.683  19.481  0.00  0.00    +0.000 A 
ATOM     20  C   UNL     1       1.523  12.671  20.082  0.00  0.00    +0.000 A 
ATOM     21  C   UNL     1       1.187  14.022  19.952  0.00  0.00    +0.000 A 
ATOM     22  C   UNL     1       0.034  14.407  19.252  0.00  0.00    +0.000 A 
ATOM     23  C   UNL     1      -0.774  13.410  18.683  0.00  0.00    +0.000 A 
ATOM     24  C   UNL     1      -0.422  12.062  18.788  0.00  0.00    +0.000 A 
BRANCH  22  25
ATOM     25  C   UNL     1      -0.350  15.861  19.108  0.00  0.00    +0.000 C 
ATOM     26  F   UNL     1       0.583  16.722  19.601  0.00  0.00    +0.000 F 
ATOM     27  F   UNL     1      -0.540  16.220  17.809  0.00  0.00    +0.000 F 
ATOM     28  F   UNL     1      -1.511  16.156  19.754  0.00  0.00    +0.000 F 
ENDBRANCH  22  25
ENDBRANCH   6  19
TORSDOF 5
ENDMDL
MODEL 5
REMARK VINA RESULT:      -7.3      3.679      4.322
REMARK  Name = 
REMARK  5 active torsions:
REMARK  status: ('A' for Active; 'I' for Inactive)
REMARK    1  A    between atoms: C_2  and  O_3
REMARK    2  A    between atoms: C_2  and  C_4
REMARK    3  A    between atoms: C_7  and  C_8
REMARK    4  A    between atoms: N_13  and  C_14
REMARK    5  A    between atoms: C_17  and  C_18
REMARK                            x       y       z     vdW  Elec       q    Type
REMARK                         _______ _______ _______ _____ _____    ______ ____
ROOT
ATOM      1  C   UNL     1       1.306   8.154  21.233  0.00  0.00    +0.000 C 
ATOM      2  C   UNL     1       0.556   9.227  20.962  0.00  0.00    +0.000 C 
ATOM      3  S   UNL     1      -0.082   9.699  19.441  0.00  0.00    +0.000 S 
ATOM      4  C   UNL     1      -0.890  11.117  20.108  0.00  0.00    +0.000 C 
ATOM      5  S   UNL     1      -1.682  12.201  19.109  0.00  0.00    +0.000 S 
ATOM      6  N   UNL     1      -0.673  11.174  21.477  0.00  0.00    +0.000 N 
ATOM      7  C   UNL     1       0.145  10.190  22.021  0.00  0.00    +0.000 C 
ATOM      8  O   UNL     1       0.482  10.060  23.192  0.00  0.00    +0.000 OA
ENDROOT
BRANCH   1  12
ATOM      9  C   UNL     1       2.671   5.293  18.377  0.00  0.00    +0.000 A 
ATOM     10  C   UNL     1       2.039   4.872  19.551  0.00  0.00    +0.000 A 
ATOM     11  C   UNL     1       1.591   5.812  20.482  0.00  0.00    +0.000 A 
ATOM     12  C   UNL     1       1.766   7.179  20.240  0.00  0.00    +0.000 A 
ATOM     13  C   UNL     1       2.380   7.602  19.056  0.00  0.00    +0.000 A 
ATOM     14  C   UNL     1       2.826   6.662  18.120  0.00  0.00    +0.000 A 
BRANCH   9  16
ATOM     15  O   UNL     1       4.210   4.295  16.863  0.00  0.00    +0.000 OA
ATOM     16  C   UNL     1       3.123   4.258  17.415  0.00  0.00    +0.000 C 
BRANCH  16  17
ATOM     17  O   UNL     1       2.202   3.302  17.174  0.00  0.00    +0.000 OA
ATOM     18  H   UNL     1       2.223   2.546  17.788  0.00  0.00    +0.000 HD
ENDBRANCH  16  17
ENDBRANCH   9  16
ENDBRANCH   1  12
BRANCH   6  19
ATOM     19  C   UNL     1      -1.231  12.169  22.327  0.00  0.00    +0.000 A 
ATOM     20  C   UNL     1      -0.546  13.369  22.553  0.00  0.00    +0.000 A 
ATOM     21  C   UNL     1      -1.099  14.357  23.374  0.00  0.00    +0.000 A 
ATOM     22  C   UNL     1      -2.329  14.146  24.014  0.00  0.00    +0.000 A 
ATOM     23  C   UNL     1      -2.994  12.927  23.815  0.00  0.00    +0.000 A 
ATOM     24  C   UNL     1      -2.455  11.952  22.971  0.00  0.00    +0.000 A 
BRANCH  22  25
ATOM     25  C   UNL     1      -2.938  15.198  24.910  0.00  0.00    +0.000 C 
ATOM     26  F   UNL     1      -2.306  16.403  24.845  0.00  0.00    +0.000 F 
ATOM     27  F   UNL     1      -4.243  15.444  24.608  0.00  0.00    +0.000 F 
ATOM     28  F   UNL     1      -2.919  14.835  26.222  0.00  0.00    +0.000 F 
ENDBRANCH  22  25
ENDBRANCH   6  19
TORSDOF 5
ENDMDL
MODEL 6
REMARK VINA RESULT:      -7.3      3.603      4.151
REMARK  Name = 
REMARK  5 active torsions:
REMARK  status: ('A' for Active; 'I' for Inactive)
REMARK    1  A    between atoms: C_2  and  O_3
REMARK    2  A    between atoms: C_2  and  C_4
REMARK    3  A    between atoms: C_7  and  C_8
REMARK    4  A    between atoms: N_13  and  C_14
REMARK    5  A    between atoms: C_17  and  C_18
REMARK                            x       y       z     vdW  Elec       q    Type
REMARK                         _______ _______ _______ _____ _____    ______ ____
ROOT
ATOM      1  C   UNL     1       1.342   8.100  21.223  0.00  0.00    +0.000 C 
ATOM      2  C   UNL     1       0.608   9.182  20.941  0.00  0.00    +0.000 C 
ATOM      3  S   UNL     1      -0.028   9.644  19.417  0.00  0.00    +0.000 S 
ATOM      4  C   UNL     1      -0.810  11.083  20.069  0.00  0.00    +0.000 C 
ATOM      5  S   UNL     1      -1.589  12.167  19.059  0.00  0.00    +0.000 S 
ATOM      6  N   UNL     1      -0.586  11.154  21.436  0.00  0.00    +0.000 N 
ATOM      7  C   UNL     1       0.218  10.165  21.989  0.00  0.00    +0.000 C 
ATOM      8  O   UNL     1       0.558  10.045  23.160  0.00  0.00    +0.000 OA
ENDROOT
BRANCH   1  12
ATOM      9  C   UNL     1       2.650   5.181  18.399  0.00  0.00    +0.000 A 
ATOM     10  C   UNL     1       2.006   4.786  19.576  0.00  0.00    +0.000 A 
ATOM     11  C   UNL     1       1.576   5.745  20.496  0.00  0.00    +0.000 A 
ATOM     12  C   UNL     1       1.783   7.105  20.241  0.00  0.00    +0.000 A 
ATOM     13  C   UNL     1       2.410   7.502  19.055  0.00  0.00    +0.000 A 
ATOM     14  C   UNL     1       2.836   6.544  18.129  0.00  0.00    +0.000 A 
BRANCH   9  16
ATOM     15  O   UNL     1       4.198   4.089  16.963  0.00  0.00    +0.000 OA
ATOM     16  C   UNL     1       3.081   4.127  17.449  0.00  0.00    +0.000 C 
BRANCH  16  17
ATOM     17  O   UNL     1       2.107   3.245  17.138  0.00  0.00    +0.000 OA
ATOM     18  H   UNL     1       1.273   3.365  17.627  0.00  0.00    +0.000 HD
ENDBRANCH  16  17
ENDBRANCH   9  16
ENDBRANCH   1  12
BRANCH   6  19
ATOM     19  C   UNL     1      -1.125  12.169  22.275  0.00  0.00    +0.000 A 
ATOM     20  C   UNL     1      -2.338  11.961  22.943  0.00  0.00    +0.000 A 
ATOM     21  C   UNL     1      -2.862  12.949  23.783  0.00  0.00    +0.000 A 
ATOM     22  C   UNL     1      -2.203  14.177  23.939  0.00  0.00    +0.000 A 
ATOM     23  C   UNL     1      -1.007  14.394  23.238  0.00  0.00    +0.000 A 
ATOM     24  C   UNL     1      -0.468  13.396  22.422  0.00  0.00    +0.000 A 
BRANCH  22  25
ATOM     25  C   UNL     1      -2.758  15.258  24.836  0.00  0.00    +0.000 C 
ATOM     26  F   UNL     1      -2.478  15.069  26.155  0.00  0.00    +0.000 F 
ATOM     27  F   UNL     1      -2.270  16.491  24.524  0.00  0.00    +0.000 F 
ATOM     28  F   UNL     1      -4.113  15.358  24.750  0.00  0.00    +0.000 F 
ENDBRANCH  22  25
ENDBRANCH   6  19
TORSDOF 5
ENDMDL
MODEL 7
REMARK VINA RESULT:      -7.2      3.641      4.183
REMARK  Name = 
REMARK  5 active torsions:
REMARK  status: ('A' for Active; 'I' for Inactive)
REMARK    1  A    between atoms: C_2  and  O_3
REMARK    2  A    between atoms: C_2  and  C_4
REMARK    3  A    between atoms: C_7  and  C_8
REMARK    4  A    between atoms: N_13  and  C_14
REMARK    5  A    between atoms: C_17  and  C_18
REMARK                            x       y       z     vdW  Elec       q    Type
REMARK                         _______ _______ _______ _____ _____    ______ ____
ROOT
ATOM      1  C   UNL     1       1.289   8.132  21.278  0.00  0.00    +0.000 C 
ATOM      2  C   UNL     1       0.561   9.214  20.984  0.00  0.00    +0.000 C 
ATOM      3  S   UNL     1      -0.045   9.679  19.448  0.00  0.00    +0.000 S 
ATOM      4  C   UNL     1      -0.838  11.118  20.087  0.00  0.00    +0.000 C 
ATOM      5  S   UNL     1      -1.597  12.204  19.064  0.00  0.00    +0.000 S 
ATOM      6  N   UNL     1      -0.640  11.188  21.459  0.00  0.00    +0.000 N 
ATOM      7  C   UNL     1       0.152  10.196  22.026  0.00  0.00    +0.000 C 
ATOM      8  O   UNL     1       0.470  10.074  23.203  0.00  0.00    +0.000 OA
ENDROOT
BRANCH   1  12
ATOM      9  C   UNL     1       2.597   5.259  18.408  0.00  0.00    +0.000 A 
ATOM     10  C   UNL     1       2.811   6.624  18.189  0.00  0.00    +0.000 A 
ATOM     11  C   UNL     1       2.385   7.560  19.132  0.00  0.00    +0.000 A 
ATOM     12  C   UNL     1       1.747   7.137  20.304  0.00  0.00    +0.000 A 
ATOM     13  C   UNL     1       1.550   5.771  20.533  0.00  0.00    +0.000 A 
ATOM     14  C   UNL     1       1.981   4.830  19.591  0.00  0.00    +0.000 A 
BRANCH   9  16
ATOM     15  O   UNL     1       4.153   4.411  16.822  0.00  0.00    +0.000 OA
ATOM     16  C   UNL     1       3.075   4.302  17.380  0.00  0.00    +0.000 C 
BRANCH  16  17
ATOM     17  O   UNL     1       2.185   3.329  17.089  0.00  0.00    +0.000 OA
ATOM     18  H   UNL     1       1.893   3.304  16.159  0.00  0.00    +0.000 HD
ENDBRANCH  16  17
ENDBRANCH   9  16
ENDBRANCH   1  12
BRANCH   6  19
ATOM     19  C   UNL     1      -1.194  12.202  22.289  0.00  0.00    +0.000 A 
ATOM     20  C   UNL     1      -2.455  12.026  22.872  0.00  0.00    +0.000 A 
ATOM     21  C   UNL     1      -2.994  13.013  23.703  0.00  0.00    +0.000 A 
ATOM     22  C   UNL     1      -2.300  14.209  23.934  0.00  0.00    +0.000 A 
ATOM     23  C   UNL     1      -1.053  14.396  23.318  0.00  0.00    +0.000 A 
ATOM     24  C   UNL     1      -0.501  13.398  22.511  0.00  0.00    +0.000 A 
BRANCH  22  25
ATOM     25  C   UNL     1      -2.871  15.290  24.822  0.00  0.00    +0.000 C 
ATOM     26  F   UNL     1      -2.358  16.526  24.573  0.00  0.00    +0.000 F 
ATOM     27  F   UNL     1      -4.220  15.411  24.690  0.00  0.00    +0.000 F 
ATOM     28  F   UNL     1      -2.643  15.048  26.143  0.00  0.00    +0.000 F 
ENDBRANCH  22  25
ENDBRANCH   6  19
TORSDOF 5
ENDMDL
MODEL 8
REMARK VINA RESULT:      -7.2      3.678      4.349
REMARK  Name = 
REMARK  5 active torsions:
REMARK  status: ('A' for Active; 'I' for Inactive)
REMARK    1  A    between atoms: C_2  and  O_3
REMARK    2  A    between atoms: C_2  and  C_4
REMARK    3  A    between atoms: C_7  and  C_8
REMARK    4  A    between atoms: N_13  and  C_14
REMARK    5  A    between atoms: C_17  and  C_18
REMARK                            x       y       z     vdW  Elec       q    Type
REMARK                         _______ _______ _______ _____ _____    ______ ____
ROOT
ATOM      1  C   UNL     1       1.297   8.119  21.285  0.00  0.00    +0.000 C 
ATOM      2  C   UNL     1       0.561   9.196  20.996  0.00  0.00    +0.000 C 
ATOM      3  S   UNL     1      -0.041   9.670  19.461  0.00  0.00    +0.000 S 
ATOM      4  C   UNL     1      -0.853  11.095  20.108  0.00  0.00    +0.000 C 
ATOM      5  S   UNL     1      -1.615  12.183  19.091  0.00  0.00    +0.000 S 
ATOM      6  N   UNL     1      -0.664  11.153  21.482  0.00  0.00    +0.000 N 
ATOM      7  C   UNL     1       0.135  10.165  22.044  0.00  0.00    +0.000 C 
ATOM      8  O   UNL     1       0.446  10.035  23.222  0.00  0.00    +0.000 OA
ENDROOT
BRANCH   1  12
ATOM      9  C   UNL     1       2.652   5.286  18.396  0.00  0.00    +0.000 A 
ATOM     10  C   UNL     1       2.837   6.656  18.182  0.00  0.00    +0.000 A 
ATOM     11  C   UNL     1       2.395   7.580  19.132  0.00  0.00    +0.000 A 
ATOM     12  C   UNL     1       1.771   7.138  20.304  0.00  0.00    +0.000 A 
ATOM     13  C   UNL     1       1.604   5.767  20.528  0.00  0.00    +0.000 A 
ATOM     14  C   UNL     1       2.050   4.839  19.580  0.00  0.00    +0.000 A 
BRANCH   9  16
ATOM     15  O   UNL     1       4.207   4.492  16.782  0.00  0.00    +0.000 OA
ATOM     16  C   UNL     1       3.145   4.343  17.362  0.00  0.00    +0.000 C 
BRANCH  16  17
ATOM     17  O   UNL     1       2.287   3.337  17.092  0.00  0.00    +0.000 OA
ATOM     18  H   UNL     1       2.476   2.845  16.273  0.00  0.00    +0.000 HD
ENDBRANCH  16  17
ENDBRANCH   9  16
ENDBRANCH   1  12
BRANCH   6  19
ATOM     19  C   UNL     1      -1.233  12.154  22.318  0.00  0.00    +0.000 A 
ATOM     20  C   UNL     1      -0.529  13.336  22.582  0.00  0.00    +0.000 A 
ATOM     21  C   UNL     1      -1.092  14.329  23.389  0.00  0.00    +0.000 A 
ATOM     22  C   UNL     1      -2.351  14.143  23.978  0.00  0.00    +0.000 A 
ATOM     23  C   UNL     1      -3.037  12.941  23.740  0.00  0.00    +0.000 A 
ATOM     24  C   UNL     1      -2.486  11.960  22.910  0.00  0.00    +0.000 A 
BRANCH  22  25
ATOM     25  C   UNL     1      -2.972  15.201  24.858  0.00  0.00    +0.000 C 
ATOM     26  F   UNL     1      -4.288  15.429  24.591  0.00  0.00    +0.000 F 
ATOM     27  F   UNL     1      -2.910  14.878  26.180  0.00  0.00    +0.000 F 
ATOM     28  F   UNL     1      -2.350  16.406  24.736  0.00  0.00    +0.000 F 
ENDBRANCH  22  25
ENDBRANCH   6  19
TORSDOF 5
ENDMDL
MODEL 9
REMARK VINA RESULT:      -7.1      3.647      4.223
REMARK  Name = 
REMARK  5 active torsions:
REMARK  status: ('A' for Active; 'I' for Inactive)
REMARK    1  A    between atoms: C_2  and  O_3
REMARK    2  A    between atoms: C_2  and  C_4
REMARK    3  A    between atoms: C_7  and  C_8
REMARK    4  A    between atoms: N_13  and  C_14
REMARK    5  A    between atoms: C_17  and  C_18
REMARK                            x       y       z     vdW  Elec       q    Type
REMARK                         _______ _______ _______ _____ _____    ______ ____
ROOT
ATOM      1  C   UNL     1       1.203   8.077  21.343  0.00  0.00    +0.000 C 
ATOM      2  C   UNL     1       0.528   9.190  21.037  0.00  0.00    +0.000 C 
ATOM      3  S   UNL     1      -0.003   9.698  19.487  0.00  0.00    +0.000 S 
ATOM      4  C   UNL     1      -0.766  11.157  20.117  0.00  0.00    +0.000 C 
ATOM      5  S   UNL     1      -1.444  12.284  19.083  0.00  0.00    +0.000 S 
ATOM      6  N   UNL     1      -0.618  11.200  21.496  0.00  0.00    +0.000 N 
ATOM      7  C   UNL     1       0.115  10.172  22.077  0.00  0.00    +0.000 C 
ATOM      8  O   UNL     1       0.383  10.023  23.264  0.00  0.00    +0.000 OA
ENDROOT
BRANCH   1  12
ATOM      9  C   UNL     1       2.511   5.196  18.481  0.00  0.00    +0.000 A 
ATOM     10  C   UNL     1       2.726   6.559  18.258  0.00  0.00    +0.000 A 
ATOM     11  C   UNL     1       2.299   7.499  19.199  0.00  0.00    +0.000 A 
ATOM     12  C   UNL     1       1.661   7.079  20.371  0.00  0.00    +0.000 A 
ATOM     13  C   UNL     1       1.464   5.714  20.604  0.00  0.00    +0.000 A 
ATOM     14  C   UNL     1       1.895   4.770  19.666  0.00  0.00    +0.000 A 
BRANCH   9  16
ATOM     15  O   UNL     1       2.344   3.260  17.109  0.00  0.00    +0.000 OA
ATOM     16  C   UNL     1       2.989   4.235  17.457  0.00  0.00    +0.000 C 
BRANCH  16  17
ATOM     17  O   UNL     1       4.222   4.515  16.984  0.00  0.00    +0.000 OA
ATOM     18  H   UNL     1       4.536   3.923  16.276  0.00  0.00    +0.000 HD
ENDBRANCH  16  17
ENDBRANCH   9  16
ENDBRANCH   1  12
BRANCH   6  19
ATOM     19  C   UNL     1      -1.165  12.223  22.320  0.00  0.00    +0.000 A 
ATOM     20  C   UNL     1      -0.449  13.405  22.545  0.00  0.00    +0.000 A 
ATOM     21  C   UNL     1      -0.991  14.420  23.340  0.00  0.00    +0.000 A 
ATOM     22  C   UNL     1      -2.240  14.256  23.955  0.00  0.00    +0.000 A 
ATOM     23  C   UNL     1      -2.937  13.054  23.757  0.00  0.00    +0.000 A 
ATOM     24  C   UNL     1      -2.409  12.051  22.939  0.00  0.00    +0.000 A 
BRANCH  22  25
ATOM     25  C   UNL     1      -2.838  15.338  24.823  0.00  0.00    +0.000 C 
ATOM     26  F   UNL     1      -2.375  15.326  26.104  0.00  0.00    +0.000 F 
ATOM     27  F   UNL     1      -2.581  16.587  24.345  0.00  0.00    +0.000 F 
ATOM     28  F   UNL     1      -4.192  15.240  24.912  0.00  0.00    +0.000 F 
ENDBRANCH  22  25
ENDBRANCH   6  19
TORSDOF 5
ENDMDL
