MODEL 1
REMARK VINA RESULT:      -8.3      0.000      0.000
REMARK  Name = 
REMARK  11 active torsions:
REMARK  status: ('A' for Active; 'I' for Inactive)
REMARK    1  A    between atoms: C_1  and  O_2
REMARK    2  A    between atoms: O_2  and  C_3
REMARK    3  A    between atoms: C_6  and  N_7
REMARK    4  A    between atoms: C_9  and  C_10
REMARK    5  A    between atoms: C_12  and  C_13
REMARK    6  A    between atoms: N_15  and  C_16
REMARK    7  A    between atoms: C_16  and  C_17
REMARK    8  A    between atoms: C_16  and  C_18
REMARK    9  A    between atoms: C_22  and  O_23
REMARK   10  A    between atoms: O_23  and  C_24
REMARK   11  A    between atoms: C_27  and  C_28
REMARK                            x       y       z     vdW  Elec       q    Type
REMARK                         _______ _______ _______ _____ _____    ______ ____
ROOT
ATOM      1  N   UNL     1       1.466  10.856  18.922  0.00  0.00    +0.000 N 
ATOM      2  N   UNL     1       1.972  10.212  17.836  0.00  0.00    +0.000 NA
ATOM      3  C   UNL     1       2.123   8.939  18.219  0.00  0.00    +0.000 A 
ATOM      4  C   UNL     1       2.726   7.983  17.256  0.00  0.00    +0.000 C 
ATOM      5  C   UNL     1       1.645   8.711  19.541  0.00  0.00    +0.000 A 
ATOM      6  C   UNL     1       1.475   7.646  20.457  0.00  0.00    +0.000 A 
ATOM      7  C   UNL     1       0.935   7.938  21.723  0.00  0.00    +0.000 A 
ATOM      8  C   UNL     1       0.584   9.242  22.034  0.00  0.00    +0.000 A 
ATOM      9  C   UNL     1      -0.022   9.595  23.362  0.00  0.00    +0.000 C 
ATOM     10  N   UNL     1       0.725  10.269  21.185  0.00  0.00    +0.000 NA
ATOM     11  C   UNL     1       1.247   9.972  19.975  0.00  0.00    +0.000 A 
ENDROOT
BRANCH   1  15
ATOM     12  C   UNL     1       0.733  15.033  18.786  0.00  0.00    +0.000 A 
ATOM     13  C   UNL     1      -0.326  14.123  18.729  0.00  0.00    +0.000 A 
ATOM     14  C   UNL     1      -0.089  12.751  18.777  0.00  0.00    +0.000 A 
ATOM     15  C   UNL     1       1.223  12.266  18.875  0.00  0.00    +0.000 A 
ATOM     16  C   UNL     1       2.278  13.180  18.916  0.00  0.00    +0.000 A 
ATOM     17  C   UNL     1       2.039  14.552  18.865  0.00  0.00    +0.000 A 
BRANCH  12  19
ATOM     18  C   UNL     1       1.499  17.252  18.534  0.00  0.00    +0.000 C 
ATOM     19  O   UNL     1       0.404  16.360  18.726  0.00  0.00    +0.000 OA
ENDBRANCH  12  19
ENDBRANCH   1  15
BRANCH   6  20
ATOM     20  C   UNL     1       1.901   6.260  20.129  0.00  0.00    +0.000 C 
ATOM     21  O   UNL     1       1.356   5.302  20.659  0.00  0.00    +0.000 OA
ATOM     22  N   UNL     1       2.911   6.126  19.192  0.00  0.00    +0.000 N 
ATOM     23  H   UNL     1       3.505   6.925  19.024  0.00  0.00    +0.000 HD
BRANCH  22  24
ATOM     24  C   UNL     1       3.459   4.806  18.873  0.00  0.00    +0.000 C 
ATOM     25  C   UNL     1       2.679   4.156  17.731  0.00  0.00    +0.000 C 
BRANCH  24  26
ATOM     26  C   UNL     1       4.934   4.920  18.538  0.00  0.00    +0.000 A 
ATOM     27  C   UNL     1       5.840   5.437  19.473  0.00  0.00    +0.000 A 
ATOM     28  C   UNL     1       7.177   5.633  19.125  0.00  0.00    +0.000 A 
ATOM     29  C   UNL     1       7.612   5.335  17.833  0.00  0.00    +0.000 A 
ATOM     30  C   UNL     1       6.730   4.796  16.895  0.00  0.00    +0.000 A 
ATOM     31  C   UNL     1       5.407   4.559  17.265  0.00  0.00    +0.000 A 
BRANCH  30  32
ATOM     32  O   UNL     1       7.255   4.566  15.652  0.00  0.00    +0.000 OA
ATOM     33  C   UNL     1       6.354   4.075  14.667  0.00  0.00    +0.000 C 
ENDBRANCH  30  32
ENDBRANCH  24  26
ENDBRANCH  22  24
ENDBRANCH   6  20
TORSDOF 6
ENDMDL
MODEL 2
REMARK VINA RESULT:      -8.2      0.946      1.620
REMARK  Name = 
REMARK  11 active torsions:
REMARK  status: ('A' for Active; 'I' for Inactive)
REMARK    1  A    between atoms: C_1  and  O_2
REMARK    2  A    between atoms: O_2  and  C_3
REMARK    3  A    between atoms: C_6  and  N_7
REMARK    4  A    between atoms: C_9  and  C_10
REMARK    5  A    between atoms: C_12  and  C_13
REMARK    6  A    between atoms: N_15  and  C_16
REMARK    7  A    between atoms: C_16  and  C_17
REMARK    8  A    between atoms: C_16  and  C_18
REMARK    9  A    between atoms: C_22  and  O_23
REMARK   10  A    between atoms: O_23  and  C_24
REMARK   11  A    between atoms: C_27  and  C_28
REMARK                            x       y       z     vdW  Elec       q    Type
REMARK                         _______ _______ _______ _____ _____    ______ ____
ROOT
ATOM      1  N   UNL     1       1.585  10.470  18.790  0.00  0.00    +0.000 N 
ATOM      2  N   UNL     1       2.256   9.838  17.790  0.00  0.00    +0.000 NA
ATOM      3  C   UNL     1       2.425   8.582  18.218  0.00  0.00    +0.000 A 
ATOM      4  C   UNL     1       3.193   7.645  17.359  0.00  0.00    +0.000 C 
ATOM      5  C   UNL     1       1.797   8.349  19.475  0.00  0.00    +0.000 A 
ATOM      6  C   UNL     1       1.571   7.291  20.386  0.00  0.00    +0.000 A 
ATOM      7  C   UNL     1       0.862   7.573  21.568  0.00  0.00    +0.000 A 
ATOM      8  C   UNL     1       0.405   8.861  21.803  0.00  0.00    +0.000 A 
ATOM      9  C   UNL     1      -0.380   9.201  23.038  0.00  0.00    +0.000 C 
ATOM     10  N   UNL     1       0.598   9.880  20.955  0.00  0.00    +0.000 NA
ATOM     11  C   UNL     1       1.282   9.593  19.827  0.00  0.00    +0.000 A 
ENDROOT
BRANCH   1  15
ATOM     12  C   UNL     1       0.655  14.597  18.469  0.00  0.00    +0.000 A 
ATOM     13  C   UNL     1      -0.362  13.640  18.500  0.00  0.00    +0.000 A 
ATOM     14  C   UNL     1      -0.061  12.284  18.609  0.00  0.00    +0.000 A 
ATOM     15  C   UNL     1       1.275  11.864  18.679  0.00  0.00    +0.000 A 
ATOM     16  C   UNL     1       2.288  12.824  18.632  0.00  0.00    +0.000 A 
ATOM     17  C   UNL     1       1.983  14.179  18.521  0.00  0.00    +0.000 A 
BRANCH  12  19
ATOM     18  C   UNL     1       0.816  16.794  19.319  0.00  0.00    +0.000 C 
ATOM     19  O   UNL     1       0.263  15.904  18.354  0.00  0.00    +0.000 OA
ENDBRANCH  12  19
ENDBRANCH   1  15
BRANCH   6  20
ATOM     20  C   UNL     1       2.107   5.926  20.147  0.00  0.00    +0.000 C 
ATOM     21  O   UNL     1       2.515   5.247  21.078  0.00  0.00    +0.000 OA
ATOM     22  N   UNL     1       2.092   5.474  18.837  0.00  0.00    +0.000 N 
ATOM     23  H   UNL     1       2.030   6.164  18.103  0.00  0.00    +0.000 HD
BRANCH  22  24
ATOM     24  C   UNL     1       2.682   4.180  18.490  0.00  0.00    +0.000 C 
ATOM     25  C   UNL     1       1.739   3.375  17.597  0.00  0.00    +0.000 C 
BRANCH  24  26
ATOM     26  C   UNL     1       4.031   4.382  17.828  0.00  0.00    +0.000 A 
ATOM     27  C   UNL     1       4.169   4.266  16.438  0.00  0.00    +0.000 A 
ATOM     28  C   UNL     1       5.429   4.352  15.846  0.00  0.00    +0.000 A 
ATOM     29  C   UNL     1       6.563   4.532  16.639  0.00  0.00    +0.000 A 
ATOM     30  C   UNL     1       6.443   4.674  18.022  0.00  0.00    +0.000 A 
ATOM     31  C   UNL     1       5.177   4.633  18.602  0.00  0.00    +0.000 A 
BRANCH  30  32
ATOM     32  O   UNL     1       7.620   4.818  18.706  0.00  0.00    +0.000 OA
ATOM     33  C   UNL     1       7.964   6.141  19.101  0.00  0.00    +0.000 C 
ENDBRANCH  30  32
ENDBRANCH  24  26
ENDBRANCH  22  24
ENDBRANCH   6  20
TORSDOF 6
ENDMDL
MODEL 3
REMARK VINA RESULT:      -8.2      0.636      1.062
REMARK  Name = 
REMARK  11 active torsions:
REMARK  status: ('A' for Active; 'I' for Inactive)
REMARK    1  A    between atoms: C_1  and  O_2
REMARK    2  A    between atoms: O_2  and  C_3
REMARK    3  A    between atoms: C_6  and  N_7
REMARK    4  A    between atoms: C_9  and  C_10
REMARK    5  A    between atoms: C_12  and  C_13
REMARK    6  A    between atoms: N_15  and  C_16
REMARK    7  A    between atoms: C_16  and  C_17
REMARK    8  A    between atoms: C_16  and  C_18
REMARK    9  A    between atoms: C_22  and  O_23
REMARK   10  A    between atoms: O_23  and  C_24
REMARK   11  A    between atoms: C_27  and  C_28
REMARK                            x       y       z     vdW  Elec       q    Type
REMARK                         _______ _______ _______ _____ _____    ______ ____
ROOT
ATOM      1  N   UNL     1       1.506  10.565  18.809  0.00  0.00    +0.000 N 
ATOM      2  N   UNL     1       2.175   9.946  17.798  0.00  0.00    +0.000 NA
ATOM      3  C   UNL     1       2.366   8.690  18.219  0.00  0.00    +0.000 A 
ATOM      4  C   UNL     1       3.137   7.768  17.348  0.00  0.00    +0.000 C 
ATOM      5  C   UNL     1       1.757   8.444  19.483  0.00  0.00    +0.000 A 
ATOM      6  C   UNL     1       1.555   7.379  20.392  0.00  0.00    +0.000 A 
ATOM      7  C   UNL     1       0.856   7.647  21.584  0.00  0.00    +0.000 A 
ATOM      8  C   UNL     1       0.385   8.927  21.829  0.00  0.00    +0.000 A 
ATOM      9  C   UNL     1      -0.390   9.251  23.074  0.00  0.00    +0.000 C 
ATOM     10  N   UNL     1       0.553   9.952  20.983  0.00  0.00    +0.000 NA
ATOM     11  C   UNL     1       1.228   9.679  19.846  0.00  0.00    +0.000 A 
ENDROOT
BRANCH   1  15
ATOM     12  C   UNL     1       0.540  14.685  18.504  0.00  0.00    +0.000 A 
ATOM     13  C   UNL     1       1.870  14.274  18.628  0.00  0.00    +0.000 A 
ATOM     14  C   UNL     1       2.191  12.922  18.724  0.00  0.00    +0.000 A 
ATOM     15  C   UNL     1       1.176  11.954  18.708  0.00  0.00    +0.000 A 
ATOM     16  C   UNL     1      -0.152  12.372  18.599  0.00  0.00    +0.000 A 
ATOM     17  C   UNL     1      -0.471  13.725  18.505  0.00  0.00    +0.000 A 
BRANCH  12  19
ATOM     18  C   UNL     1      -0.498  16.582  19.451  0.00  0.00    +0.000 C 
ATOM     19  O   UNL     1       0.321  16.033  18.422  0.00  0.00    +0.000 OA
ENDBRANCH  12  19
ENDBRANCH   1  15
BRANCH   6  20
ATOM     20  C   UNL     1       2.107   6.022  20.140  0.00  0.00    +0.000 C 
ATOM     21  O   UNL     1       2.284   5.242  21.066  0.00  0.00    +0.000 OA
ATOM     22  N   UNL     1       2.379   5.698  18.822  0.00  0.00    +0.000 N 
ATOM     23  H   UNL     1       2.496   6.456  18.166  0.00  0.00    +0.000 HD
BRANCH  22  24
ATOM     24  C   UNL     1       3.009   4.420  18.486  0.00  0.00    +0.000 C 
ATOM     25  C   UNL     1       2.322   3.776  17.282  0.00  0.00    +0.000 C 
BRANCH  24  26
ATOM     26  C   UNL     1       4.492   4.618  18.233  0.00  0.00    +0.000 A 
ATOM     27  C   UNL     1       5.314   5.184  19.216  0.00  0.00    +0.000 A 
ATOM     28  C   UNL     1       6.654   5.457  18.941  0.00  0.00    +0.000 A 
ATOM     29  C   UNL     1       7.176   5.188  17.676  0.00  0.00    +0.000 A 
ATOM     30  C   UNL     1       6.380   4.601  16.692  0.00  0.00    +0.000 A 
ATOM     31  C   UNL     1       5.054   4.289  16.988  0.00  0.00    +0.000 A 
BRANCH  30  32
ATOM     32  O   UNL     1       6.984   4.405  15.480  0.00  0.00    +0.000 OA
ATOM     33  C   UNL     1       6.138   4.003  14.409  0.00  0.00    +0.000 C 
ENDBRANCH  30  32
ENDBRANCH  24  26
ENDBRANCH  22  24
ENDBRANCH   6  20
TORSDOF 6
ENDMDL
MODEL 4
REMARK VINA RESULT:      -8.1      0.871      1.462
REMARK  Name = 
REMARK  11 active torsions:
REMARK  status: ('A' for Active; 'I' for Inactive)
REMARK    1  A    between atoms: C_1  and  O_2
REMARK    2  A    between atoms: O_2  and  C_3
REMARK    3  A    between atoms: C_6  and  N_7
REMARK    4  A    between atoms: C_9  and  C_10
REMARK    5  A    between atoms: C_12  and  C_13
REMARK    6  A    between atoms: N_15  and  C_16
REMARK    7  A    between atoms: C_16  and  C_17
REMARK    8  A    between atoms: C_16  and  C_18
REMARK    9  A    between atoms: C_22  and  O_23
REMARK   10  A    between atoms: O_23  and  C_24
REMARK   11  A    between atoms: C_27  and  C_28
REMARK                            x       y       z     vdW  Elec       q    Type
REMARK                         _______ _______ _______ _____ _____    ______ ____
ROOT
ATOM      1  N   UNL     1       1.385  10.769  18.853  0.00  0.00    +0.000 N 
ATOM      2  N   UNL     1       1.924  10.129  17.780  0.00  0.00    +0.000 NA
ATOM      3  C   UNL     1       2.139   8.874  18.190  0.00  0.00    +0.000 A 
ATOM      4  C   UNL     1       2.791   7.930  17.246  0.00  0.00    +0.000 C 
ATOM      5  C   UNL     1       1.671   8.649  19.516  0.00  0.00    +0.000 A 
ATOM      6  C   UNL     1       1.555   7.595  20.453  0.00  0.00    +0.000 A 
ATOM      7  C   UNL     1       0.999   7.885  21.712  0.00  0.00    +0.000 A 
ATOM      8  C   UNL     1       0.581   9.176  21.996  0.00  0.00    +0.000 A 
ATOM      9  C   UNL     1      -0.044   9.524  23.317  0.00  0.00    +0.000 C 
ATOM     10  N   UNL     1       0.671  10.191  21.127  0.00  0.00    +0.000 NA
ATOM     11  C   UNL     1       1.209   9.896  19.924  0.00  0.00    +0.000 A 
ENDROOT
BRANCH   1  15
ATOM     12  C   UNL     1       0.441  14.899  18.630  0.00  0.00    +0.000 A 
ATOM     13  C   UNL     1      -0.564  13.933  18.526  0.00  0.00    +0.000 A 
ATOM     14  C   UNL     1      -0.258  12.577  18.602  0.00  0.00    +0.000 A 
ATOM     15  C   UNL     1       1.070  12.163  18.776  0.00  0.00    +0.000 A 
ATOM     16  C   UNL     1       2.072  13.133  18.865  0.00  0.00    +0.000 A 
ATOM     17  C   UNL     1       1.763  14.489  18.785  0.00  0.00    +0.000 A 
BRANCH  12  19
ATOM     18  C   UNL     1       1.076  17.133  18.209  0.00  0.00    +0.000 C 
ATOM     19  O   UNL     1       0.045  16.206  18.538  0.00  0.00    +0.000 OA
ENDBRANCH  12  19
ENDBRANCH   1  15
BRANCH   6  20
ATOM     20  C   UNL     1       2.050   6.226  20.154  0.00  0.00    +0.000 C 
ATOM     21  O   UNL     1       1.373   5.247  20.432  0.00  0.00    +0.000 OA
ATOM     22  N   UNL     1       3.285   6.135  19.535  0.00  0.00    +0.000 N 
ATOM     23  H   UNL     1       3.906   6.928  19.604  0.00  0.00    +0.000 HD
BRANCH  22  24
ATOM     24  C   UNL     1       3.896   4.828  19.284  0.00  0.00    +0.000 C 
ATOM     25  C   UNL     1       2.825   3.751  19.118  0.00  0.00    +0.000 C 
BRANCH  24  26
ATOM     26  C   UNL     1       4.800   4.899  18.067  0.00  0.00    +0.000 A 
ATOM     27  C   UNL     1       4.698   3.946  17.046  0.00  0.00    +0.000 A 
ATOM     28  C   UNL     1       5.598   3.956  15.980  0.00  0.00    +0.000 A 
ATOM     29  C   UNL     1       6.620   4.905  15.939  0.00  0.00    +0.000 A 
ATOM     30  C   UNL     1       6.723   5.878  16.935  0.00  0.00    +0.000 A 
ATOM     31  C   UNL     1       5.792   5.889  17.972  0.00  0.00    +0.000 A 
BRANCH  30  32
ATOM     32  O   UNL     1       7.778   6.742  16.812  0.00  0.00    +0.000 OA
ATOM     33  C   UNL     1       7.648   7.996  17.471  0.00  0.00    +0.000 C 
ENDBRANCH  30  32
ENDBRANCH  24  26
ENDBRANCH  22  24
ENDBRANCH   6  20
TORSDOF 6
ENDMDL
MODEL 5
REMARK VINA RESULT:      -8.1      1.032      1.860
REMARK  Name = 
REMARK  11 active torsions:
REMARK  status: ('A' for Active; 'I' for Inactive)
REMARK    1  A    between atoms: C_1  and  O_2
REMARK    2  A    between atoms: O_2  and  C_3
REMARK    3  A    between atoms: C_6  and  N_7
REMARK    4  A    between atoms: C_9  and  C_10
REMARK    5  A    between atoms: C_12  and  C_13
REMARK    6  A    between atoms: N_15  and  C_16
REMARK    7  A    between atoms: C_16  and  C_17
REMARK    8  A    between atoms: C_16  and  C_18
REMARK    9  A    between atoms: C_22  and  O_23
REMARK   10  A    between atoms: O_23  and  C_24
REMARK   11  A    between atoms: C_27  and  C_28
REMARK                            x       y       z     vdW  Elec       q    Type
REMARK                         _______ _______ _______ _____ _____    ______ ____
ROOT
ATOM      1  N   UNL     1       1.459  10.844  18.950  0.00  0.00    +0.000 N 
ATOM      2  N   UNL     1       2.088  10.174  17.947  0.00  0.00    +0.000 NA
ATOM      3  C   UNL     1       2.200   8.914  18.381  0.00  0.00    +0.000 A 
ATOM      4  C   UNL     1       2.913   7.936  17.519  0.00  0.00    +0.000 C 
ATOM      5  C   UNL     1       1.577   8.718  19.646  0.00  0.00    +0.000 A 
ATOM      6  C   UNL     1       1.310   7.677  20.566  0.00  0.00    +0.000 A 
ATOM      7  C   UNL     1       0.628   8.000  21.754  0.00  0.00    +0.000 A 
ATOM      8  C   UNL     1       0.237   9.309  21.986  0.00  0.00    +0.000 A 
ATOM      9  C   UNL     1      -0.517   9.694  23.227  0.00  0.00    +0.000 C 
ATOM     10  N   UNL     1       0.469  10.313  21.130  0.00  0.00    +0.000 NA
ATOM     11  C   UNL     1       1.126   9.987  19.996  0.00  0.00    +0.000 A 
ENDROOT
BRANCH   1  15
ATOM     12  C   UNL     1       0.750  15.012  18.603  0.00  0.00    +0.000 A 
ATOM     13  C   UNL     1       2.053  14.519  18.707  0.00  0.00    +0.000 A 
ATOM     14  C   UNL     1       2.290  13.151  18.818  0.00  0.00    +0.000 A 
ATOM     15  C   UNL     1       1.215  12.250  18.835  0.00  0.00    +0.000 A 
ATOM     16  C   UNL     1      -0.086  12.750  18.745  0.00  0.00    +0.000 A 
ATOM     17  C   UNL     1      -0.319  14.119  18.638  0.00  0.00    +0.000 A 
BRANCH  12  19
ATOM     18  C   UNL     1       0.853  17.096  19.707  0.00  0.00    +0.000 C 
ATOM     19  O   UNL     1       0.615  16.371  18.504  0.00  0.00    +0.000 OA
ENDBRANCH  12  19
ENDBRANCH   1  15
BRANCH   6  20
ATOM     20  C   UNL     1       1.776   6.286  20.329  0.00  0.00    +0.000 C 
ATOM     21  O   UNL     1       2.134   5.584  21.263  0.00  0.00    +0.000 OA
ATOM     22  N   UNL     1       1.757   5.841  19.018  0.00  0.00    +0.000 N 
ATOM     23  H   UNL     1       1.743   6.536  18.286  0.00  0.00    +0.000 HD
BRANCH  22  24
ATOM     24  C   UNL     1       2.283   4.519  18.675  0.00  0.00    +0.000 C 
ATOM     25  C   UNL     1       1.443   3.868  17.577  0.00  0.00    +0.000 C 
BRANCH  24  26
ATOM     26  C   UNL     1       3.740   4.626  18.263  0.00  0.00    +0.000 A 
ATOM     27  C   UNL     1       4.146   4.257  16.974  0.00  0.00    +0.000 A 
ATOM     28  C   UNL     1       5.499   4.262  16.634  0.00  0.00    +0.000 A 
ATOM     29  C   UNL     1       6.457   4.613  17.586  0.00  0.00    +0.000 A 
ATOM     30  C   UNL     1       6.070   5.007  18.868  0.00  0.00    +0.000 A 
ATOM     31  C   UNL     1       4.713   5.045  19.186  0.00  0.00    +0.000 A 
BRANCH  30  32
ATOM     32  O   UNL     1       7.091   5.305  19.730  0.00  0.00    +0.000 OA
ATOM     33  C   UNL     1       8.119   6.149  19.225  0.00  0.00    +0.000 C 
ENDBRANCH  30  32
ENDBRANCH  24  26
ENDBRANCH  22  24
ENDBRANCH   6  20
TORSDOF 6
ENDMDL
MODEL 6
REMARK VINA RESULT:      -8.0      2.753      8.676
REMARK  Name = 
REMARK  11 active torsions:
REMARK  status: ('A' for Active; 'I' for Inactive)
REMARK    1  A    between atoms: C_1  and  O_2
REMARK    2  A    between atoms: O_2  and  C_3
REMARK    3  A    between atoms: C_6  and  N_7
REMARK    4  A    between atoms: C_9  and  C_10
REMARK    5  A    between atoms: C_12  and  C_13
REMARK    6  A    between atoms: N_15  and  C_16
REMARK    7  A    between atoms: C_16  and  C_17
REMARK    8  A    between atoms: C_16  and  C_18
REMARK    9  A    between atoms: C_22  and  O_23
REMARK   10  A    between atoms: O_23  and  C_24
REMARK   11  A    between atoms: C_27  and  C_28
REMARK                            x       y       z     vdW  Elec       q    Type
REMARK                         _______ _______ _______ _____ _____    ______ ____
ROOT
ATOM      1  N   UNL     1       3.430   7.022  17.620  0.00  0.00    +0.000 N 
ATOM      2  N   UNL     1       3.258   8.320  17.252  0.00  0.00    +0.000 NA
ATOM      3  C   UNL     1       2.448   8.845  18.178  0.00  0.00    +0.000 A 
ATOM      4  C   UNL     1       2.018  10.257  18.014  0.00  0.00    +0.000 C 
ATOM      5  C   UNL     1       2.137   7.919  19.214  0.00  0.00    +0.000 A 
ATOM      6  C   UNL     1       1.425   7.867  20.435  0.00  0.00    +0.000 A 
ATOM      7  C   UNL     1       1.399   6.649  21.138  0.00  0.00    +0.000 A 
ATOM      8  C   UNL     1       2.067   5.548  20.626  0.00  0.00    +0.000 A 
ATOM      9  C   UNL     1       2.090   4.235  21.356  0.00  0.00    +0.000 C 
ATOM     10  N   UNL     1       2.756   5.569  19.477  0.00  0.00    +0.000 NA
ATOM     11  C   UNL     1       2.768   6.745  18.813  0.00  0.00    +0.000 A 
ENDROOT
BRANCH   1  15
ATOM     12  C   UNL     1       5.753   4.405  15.221  0.00  0.00    +0.000 A 
ATOM     13  C   UNL     1       4.851   3.896  16.159  0.00  0.00    +0.000 A 
ATOM     14  C   UNL     1       4.083   4.752  16.945  0.00  0.00    +0.000 A 
ATOM     15  C   UNL     1       4.217   6.142  16.810  0.00  0.00    +0.000 A 
ATOM     16  C   UNL     1       5.132   6.644  15.882  0.00  0.00    +0.000 A 
ATOM     17  C   UNL     1       5.900   5.785  15.099  0.00  0.00    +0.000 A 
BRANCH  12  19
ATOM     18  C   UNL     1       6.232   3.501  13.093  0.00  0.00    +0.000 C 
ATOM     19  O   UNL     1       6.468   3.488  14.498  0.00  0.00    +0.000 OA
ENDBRANCH  12  19
ENDBRANCH   1  15
BRANCH   6  20
ATOM     20  C   UNL     1       0.673   9.041  20.950  0.00  0.00    +0.000 C 
ATOM     21  O   UNL     1       0.641   9.281  22.149  0.00  0.00    +0.000 OA
ATOM     22  N   UNL     1       0.046   9.839  20.007  0.00  0.00    +0.000 N 
ATOM     23  H   UNL     1      -0.140   9.437  19.101  0.00  0.00    +0.000 HD
BRANCH  22  24
ATOM     24  C   UNL     1      -0.793  10.964  20.425  0.00  0.00    +0.000 C 
ATOM     25  C   UNL     1       0.042  12.234  20.586  0.00  0.00    +0.000 C 
BRANCH  24  26
ATOM     26  C   UNL     1      -1.923  11.169  19.434  0.00  0.00    +0.000 A 
ATOM     27  C   UNL     1      -2.975  12.047  19.723  0.00  0.00    +0.000 A 
ATOM     28  C   UNL     1      -4.061  12.156  18.855  0.00  0.00    +0.000 A 
ATOM     29  C   UNL     1      -4.115  11.370  17.702  0.00  0.00    +0.000 A 
ATOM     30  C   UNL     1      -3.064  10.508  17.385  0.00  0.00    +0.000 A 
ATOM     31  C   UNL     1      -1.961  10.439  18.234  0.00  0.00    +0.000 A 
BRANCH  30  32
ATOM     32  O   UNL     1      -3.231   9.766  16.246  0.00  0.00    +0.000 OA
ATOM     33  C   UNL     1      -2.923  10.414  15.018  0.00  0.00    +0.000 C 
ENDBRANCH  30  32
ENDBRANCH  24  26
ENDBRANCH  22  24
ENDBRANCH   6  20
TORSDOF 6
ENDMDL
MODEL 7
REMARK VINA RESULT:      -7.8      4.040     10.363
REMARK  Name = 
REMARK  11 active torsions:
REMARK  status: ('A' for Active; 'I' for Inactive)
REMARK    1  A    between atoms: C_1  and  O_2
REMARK    2  A    between atoms: O_2  and  C_3
REMARK    3  A    between atoms: C_6  and  N_7
REMARK    4  A    between atoms: C_9  and  C_10
REMARK    5  A    between atoms: C_12  and  C_13
REMARK    6  A    between atoms: N_15  and  C_16
REMARK    7  A    between atoms: C_16  and  C_17
REMARK    8  A    between atoms: C_16  and  C_18
REMARK    9  A    between atoms: C_22  and  O_23
REMARK   10  A    between atoms: O_23  and  C_24
REMARK   11  A    between atoms: C_27  and  C_28
REMARK                            x       y       z     vdW  Elec       q    Type
REMARK                         _______ _______ _______ _____ _____    ______ ____
ROOT
ATOM      1  N   UNL     1       0.790  10.098  20.449  0.00  0.00    +0.000 N 
ATOM      2  N   UNL     1      -0.084   9.835  21.458  0.00  0.00    +0.000 NA
ATOM      3  C   UNL     1      -0.427  11.031  21.949  0.00  0.00    +0.000 A 
ATOM      4  C   UNL     1      -1.337  11.073  23.122  0.00  0.00    +0.000 C 
ATOM      5  C   UNL     1       0.159  12.105  21.219  0.00  0.00    +0.000 A 
ATOM      6  C   UNL     1       0.153  13.519  21.192  0.00  0.00    +0.000 A 
ATOM      7  C   UNL     1       0.949  14.168  20.231  0.00  0.00    +0.000 A 
ATOM      8  C   UNL     1       1.703  13.416  19.344  0.00  0.00    +0.000 A 
ATOM      9  C   UNL     1       2.545  14.067  18.284  0.00  0.00    +0.000 C 
ATOM     10  N   UNL     1       1.722  12.077  19.341  0.00  0.00    +0.000 NA
ATOM     11  C   UNL     1       0.955  11.469  20.271  0.00  0.00    +0.000 A 
ENDROOT
BRANCH   1  15
ATOM     12  C   UNL     1       2.589   6.904  18.314  0.00  0.00    +0.000 A 
ATOM     13  C   UNL     1       2.351   6.796  19.686  0.00  0.00    +0.000 A 
ATOM     14  C   UNL     1       1.756   7.841  20.390  0.00  0.00    +0.000 A 
ATOM     15  C   UNL     1       1.399   9.023  19.726  0.00  0.00    +0.000 A 
ATOM     16  C   UNL     1       1.654   9.131  18.357  0.00  0.00    +0.000 A 
ATOM     17  C   UNL     1       2.251   8.085  17.656  0.00  0.00    +0.000 A 
BRANCH  12  19
ATOM     18  C   UNL     1       2.644   4.558  18.060  0.00  0.00    +0.000 C 
ATOM     19  O   UNL     1       3.182   5.829  17.709  0.00  0.00    +0.000 OA
ENDBRANCH  12  19
ENDBRANCH   1  15
BRANCH   6  20
ATOM     20  C   UNL     1      -0.623  14.315  22.179  0.00  0.00    +0.000 C 
ATOM     21  O   UNL     1      -0.073  14.792  23.161  0.00  0.00    +0.000 OA
ATOM     22  N   UNL     1      -1.969  14.497  21.909  0.00  0.00    +0.000 N 
ATOM     23  H   UNL     1      -2.412  13.852  21.272  0.00  0.00    +0.000 HD
BRANCH  22  24
ATOM     24  C   UNL     1      -2.832  15.189  22.868  0.00  0.00    +0.000 C 
ATOM     25  C   UNL     1      -3.445  16.441  22.242  0.00  0.00    +0.000 C 
BRANCH  24  26
ATOM     26  C   UNL     1      -3.905  14.247  23.379  0.00  0.00    +0.000 A 
ATOM     27  C   UNL     1      -3.682  13.460  24.517  0.00  0.00    +0.000 A 
ATOM     28  C   UNL     1      -4.632  12.523  24.923  0.00  0.00    +0.000 A 
ATOM     29  C   UNL     1      -5.802  12.349  24.183  0.00  0.00    +0.000 A 
ATOM     30  C   UNL     1      -6.053  13.140  23.061  0.00  0.00    +0.000 A 
ATOM     31  C   UNL     1      -5.121  14.106  22.688  0.00  0.00    +0.000 A 
BRANCH  30  32
ATOM     32  O   UNL     1      -7.217  12.868  22.394  0.00  0.00    +0.000 OA
ATOM     33  C   UNL     1      -7.146  12.865  20.973  0.00  0.00    +0.000 C 
ENDBRANCH  30  32
ENDBRANCH  24  26
ENDBRANCH  22  24
ENDBRANCH   6  20
TORSDOF 6
ENDMDL
MODEL 8
REMARK VINA RESULT:      -7.8      2.960      4.533
REMARK  Name = 
REMARK  11 active torsions:
REMARK  status: ('A' for Active; 'I' for Inactive)
REMARK    1  A    between atoms: C_1  and  O_2
REMARK    2  A    between atoms: O_2  and  C_3
REMARK    3  A    between atoms: C_6  and  N_7
REMARK    4  A    between atoms: C_9  and  C_10
REMARK    5  A    between atoms: C_12  and  C_13
REMARK    6  A    between atoms: N_15  and  C_16
REMARK    7  A    between atoms: C_16  and  C_17
REMARK    8  A    between atoms: C_16  and  C_18
REMARK    9  A    between atoms: C_22  and  O_23
REMARK   10  A    between atoms: O_23  and  C_24
REMARK   11  A    between atoms: C_27  and  C_28
REMARK                            x       y       z     vdW  Elec       q    Type
REMARK                         _______ _______ _______ _____ _____    ______ ____
ROOT
ATOM      1  N   UNL     1       1.138  13.499  20.753  0.00  0.00    +0.000 N 
ATOM      2  N   UNL     1       1.723  13.659  19.535  0.00  0.00    +0.000 NA
ATOM      3  C   UNL     1       1.800  12.428  19.016  0.00  0.00    +0.000 A 
ATOM      4  C   UNL     1       2.460  12.263  17.697  0.00  0.00    +0.000 C 
ATOM      5  C   UNL     1       1.195  11.448  19.855  0.00  0.00    +0.000 A 
ATOM      6  C   UNL     1       0.910  10.063  19.859  0.00  0.00    +0.000 A 
ATOM      7  C   UNL     1       0.264   9.522  20.986  0.00  0.00    +0.000 A 
ATOM      8  C   UNL     1      -0.076  10.349  22.045  0.00  0.00    +0.000 A 
ATOM      9  C   UNL     1      -0.790   9.820  23.255  0.00  0.00    +0.000 C 
ATOM     10  N   UNL     1       0.174  11.665  22.064  0.00  0.00    +0.000 NA
ATOM     11  C   UNL     1       0.796  12.168  20.977  0.00  0.00    +0.000 A 
ENDROOT
BRANCH   1  15
ATOM     12  C   UNL     1       0.570  16.850  23.292  0.00  0.00    +0.000 A 
ATOM     13  C   UNL     1       1.858  16.417  22.964  0.00  0.00    +0.000 A 
ATOM     14  C   UNL     1       2.048  15.320  22.127  0.00  0.00    +0.000 A 
ATOM     15  C   UNL     1       0.943  14.628  21.611  0.00  0.00    +0.000 A 
ATOM     16  C   UNL     1      -0.341  15.056  21.955  0.00  0.00    +0.000 A 
ATOM     17  C   UNL     1      -0.528  16.153  22.794  0.00  0.00    +0.000 A 
BRANCH  12  19
ATOM     18  C   UNL     1      -0.787  18.126  24.742  0.00  0.00    +0.000 C 
ATOM     19  O   UNL     1       0.482  17.933  24.125  0.00  0.00    +0.000 OA
ENDBRANCH  12  19
ENDBRANCH   1  15
BRANCH   6  20
ATOM     20  C   UNL     1       1.322   9.177  18.739  0.00  0.00    +0.000 C 
ATOM     21  O   UNL     1       0.957   9.411  17.596  0.00  0.00    +0.000 OA
ATOM     22  N   UNL     1       2.144   8.110  19.062  0.00  0.00    +0.000 N 
ATOM     23  H   UNL     1       2.161   7.804  20.024  0.00  0.00    +0.000 HD
BRANCH  22  24
ATOM     24  C   UNL     1       2.527   7.132  18.043  0.00  0.00    +0.000 C 
ATOM     25  C   UNL     1       3.987   7.321  17.630  0.00  0.00    +0.000 C 
BRANCH  24  26
ATOM     26  C   UNL     1       2.275   5.724  18.548  0.00  0.00    +0.000 A 
ATOM     27  C   UNL     1       1.787   4.733  17.687  0.00  0.00    +0.000 A 
ATOM     28  C   UNL     1       1.461   3.469  18.180  0.00  0.00    +0.000 A 
ATOM     29  C   UNL     1       1.600   3.194  19.541  0.00  0.00    +0.000 A 
ATOM     30  C   UNL     1       2.108   4.160  20.410  0.00  0.00    +0.000 A 
ATOM     31  C   UNL     1       2.474   5.405  19.902  0.00  0.00    +0.000 A 
BRANCH  30  32
ATOM     32  O   UNL     1       2.176   3.794  21.728  0.00  0.00    +0.000 OA
ATOM     33  C   UNL     1       1.547   2.567  22.076  0.00  0.00    +0.000 C 
ENDBRANCH  30  32
ENDBRANCH  24  26
ENDBRANCH  22  24
ENDBRANCH   6  20
TORSDOF 6
ENDMDL
MODEL 9
REMARK VINA RESULT:      -7.7      3.982     10.310
REMARK  Name = 
REMARK  11 active torsions:
REMARK  status: ('A' for Active; 'I' for Inactive)
REMARK    1  A    between atoms: C_1  and  O_2
REMARK    2  A    between atoms: O_2  and  C_3
REMARK    3  A    between atoms: C_6  and  N_7
REMARK    4  A    between atoms: C_9  and  C_10
REMARK    5  A    between atoms: C_12  and  C_13
REMARK    6  A    between atoms: N_15  and  C_16
REMARK    7  A    between atoms: C_16  and  C_17
REMARK    8  A    between atoms: C_16  and  C_18
REMARK    9  A    between atoms: C_22  and  O_23
REMARK   10  A    between atoms: O_23  and  C_24
REMARK   11  A    between atoms: C_27  and  C_28
REMARK                            x       y       z     vdW  Elec       q    Type
REMARK                         _______ _______ _______ _____ _____    ______ ____
ROOT
ATOM      1  N   UNL     1       0.764   9.835  20.548  0.00  0.00    +0.000 N 
ATOM      2  N   UNL     1      -0.106   9.620  21.571  0.00  0.00    +0.000 NA
ATOM      3  C   UNL     1      -0.481  10.838  21.978  0.00  0.00    +0.000 A 
ATOM      4  C   UNL     1      -1.395  10.937  23.144  0.00  0.00    +0.000 C 
ATOM      5  C   UNL     1       0.079  11.873  21.177  0.00  0.00    +0.000 A 
ATOM      6  C   UNL     1       0.037  13.281  21.053  0.00  0.00    +0.000 A 
ATOM      7  C   UNL     1       0.819  13.883  20.050  0.00  0.00    +0.000 A 
ATOM      8  C   UNL     1       1.595  13.092  19.218  0.00  0.00    +0.000 A 
ATOM      9  C   UNL     1       2.424  13.689  18.117  0.00  0.00    +0.000 C 
ATOM     10  N   UNL     1       1.649  11.756  19.307  0.00  0.00    +0.000 NA
ATOM     11  C   UNL     1       0.894  11.194  20.276  0.00  0.00    +0.000 A 
ENDROOT
BRANCH   1  15
ATOM     12  C   UNL     1       2.663   6.566  18.623  0.00  0.00    +0.000 A 
ATOM     13  C   UNL     1       2.457   7.770  17.943  0.00  0.00    +0.000 A 
ATOM     14  C   UNL     1       1.837   8.846  18.573  0.00  0.00    +0.000 A 
ATOM     15  C   UNL     1       1.402   8.729  19.901  0.00  0.00    +0.000 A 
ATOM     16  C   UNL     1       1.597   7.519  20.570  0.00  0.00    +0.000 A 
ATOM     17  C   UNL     1       2.215   6.443  19.936  0.00  0.00    +0.000 A 
BRANCH  12  19
ATOM     18  C   UNL     1       4.534   5.139  18.434  0.00  0.00    +0.000 C 
ATOM     19  O   UNL     1       3.274   5.563  17.920  0.00  0.00    +0.000 OA
ENDBRANCH  12  19
ENDBRANCH   1  15
BRANCH   6  20
ATOM     20  C   UNL     1      -0.762  14.123  21.981  0.00  0.00    +0.000 C 
ATOM     21  O   UNL     1      -0.300  14.466  23.061  0.00  0.00    +0.000 OA
ATOM     22  N   UNL     1      -2.020  14.504  21.547  0.00  0.00    +0.000 N 
ATOM     23  H   UNL     1      -2.447  13.961  20.811  0.00  0.00    +0.000 HD
BRANCH  22  24
ATOM     24  C   UNL     1      -2.915  15.257  22.428  0.00  0.00    +0.000 C 
ATOM     25  C   UNL     1      -3.732  16.274  21.632  0.00  0.00    +0.000 C 
BRANCH  24  26
ATOM     26  C   UNL     1      -3.814  14.306  23.195  0.00  0.00    +0.000 A 
ATOM     27  C   UNL     1      -3.444  13.841  24.464  0.00  0.00    +0.000 A 
ATOM     28  C   UNL     1      -4.225  12.889  25.120  0.00  0.00    +0.000 A 
ATOM     29  C   UNL     1      -5.368  12.379  24.504  0.00  0.00    +0.000 A 
ATOM     30  C   UNL     1      -5.766  12.848  23.252  0.00  0.00    +0.000 A 
ATOM     31  C   UNL     1      -5.006  13.832  22.622  0.00  0.00    +0.000 A 
BRANCH  30  32
ATOM     32  O   UNL     1      -6.886  12.260  22.728  0.00  0.00    +0.000 OA
ATOM     33  C   UNL     1      -7.350  12.778  21.486  0.00  0.00    +0.000 C 
ENDBRANCH  30  32
ENDBRANCH  24  26
ENDBRANCH  22  24
ENDBRANCH   6  20
TORSDOF 6
ENDMDL
