MODEL 1
REMARK VINA RESULT:      -8.1      0.000      0.000
REMARK  Name = 
REMARK  7 active torsions:
REMARK  status: ('A' for Active; 'I' for Inactive)
REMARK    1  A    between atoms: C_1  and  C_2
REMARK    2  A    between atoms: C_6  and  O_7
REMARK    3  A    between atoms: O_7  and  C_8
REMARK    4  A    between atoms: C_8  and  C_9
REMARK    5  A    between atoms: C_14  and  C_15
REMARK    6  A    between atoms: N_17  and  C_18
REMARK    7  A    between atoms: C_18  and  N_19
REMARK                            x       y       z     vdW  Elec       q    Type
REMARK                         _______ _______ _______ _____ _____    ______ ____
ROOT
ATOM      1  C   UNL     1       3.829   4.147  19.278  0.00  0.00    +0.000 A 
ATOM      2  C   UNL     1       3.927   2.728  19.155  0.00  0.00    +0.000 A 
ATOM      3  C   UNL     1       2.899   1.961  18.602  0.00  0.00    +0.000 A 
ATOM      4  C   UNL     1       1.739   2.582  18.199  0.00  0.00    +0.000 A 
ATOM      5  C   UNL     1       1.607   3.968  18.364  0.00  0.00    +0.000 A 
ATOM      6  C   UNL     1       2.637   4.796  18.895  0.00  0.00    +0.000 A 
ENDROOT
BRANCH   6   7
ATOM      7  C   UNL     1       2.331   6.286  18.950  0.00  0.00    +0.000 A 
ATOM      8  N   UNL     1       2.306   7.290  18.099  0.00  0.00    +0.000 NA
ATOM      9  N   UNL     1       1.875   8.382  18.898  0.00  0.00    +0.000 N 
ATOM     10  C   UNL     1       1.712   7.935  20.192  0.00  0.00    +0.000 A 
ATOM     11  S   UNL     1       1.259   8.680  21.597  0.00  0.00    +0.000 S 
ATOM     12  O   UNL     1       2.004   6.623  20.226  0.00  0.00    +0.000 OA
BRANCH   9  13
ATOM     13  C   UNL     1       1.694   9.811  18.595  0.00  0.00    +0.000 C 
BRANCH  13  14
ATOM     14  N   UNL     1       0.518  10.543  18.960  0.00  0.00    +0.000 NA
ATOM     15  C   UNL     1      -0.833  10.127  18.654  0.00  0.00    +0.000 C 
ATOM     16  C   UNL     1      -1.549  11.193  17.802  0.00  0.00    +0.000 C 
ATOM     17  O   UNL     1      -1.366  12.538  18.293  0.00  0.00    +0.000 OA
ATOM     18  C   UNL     1       0.021  12.837  18.533  0.00  0.00    +0.000 C 
ATOM     19  C   UNL     1       0.598  11.859  19.549  0.00  0.00    +0.000 C 
ENDBRANCH  13  14
ENDBRANCH   9  13
ENDBRANCH   6   7
BRANCH   1  20
ATOM     20  C   UNL     1       5.118   4.850  19.615  0.00  0.00    +0.000 C 
BRANCH  20  21
ATOM     21  O   UNL     1       6.235   4.577  18.754  0.00  0.00    +0.000 OA
BRANCH  21  27
ATOM     22  C   UNL     1       6.120   3.678  13.839  0.00  0.00    +0.000 C 
ATOM     23  C   UNL     1       5.976   4.597  15.018  0.00  0.00    +0.000 A 
ATOM     24  C   UNL     1       5.437   5.871  14.849  0.00  0.00    +0.000 A 
ATOM     25  C   UNL     1       5.219   6.696  15.951  0.00  0.00    +0.000 A 
ATOM     26  C   UNL     1       5.511   6.240  17.242  0.00  0.00    +0.000 A 
ATOM     27  C   UNL     1       6.038   4.960  17.440  0.00  0.00    +0.000 A 
ATOM     28  C   UNL     1       6.297   4.161  16.313  0.00  0.00    +0.000 A 
ENDBRANCH  21  27
ENDBRANCH  20  21
ENDBRANCH   1  20
TORSDOF 6
ENDMDL
MODEL 2
REMARK VINA RESULT:      -8.0      1.733      2.682
REMARK  Name = 
REMARK  7 active torsions:
REMARK  status: ('A' for Active; 'I' for Inactive)
REMARK    1  A    between atoms: C_1  and  C_2
REMARK    2  A    between atoms: C_6  and  O_7
REMARK    3  A    between atoms: O_7  and  C_8
REMARK    4  A    between atoms: C_8  and  C_9
REMARK    5  A    between atoms: C_14  and  C_15
REMARK    6  A    between atoms: N_17  and  C_18
REMARK    7  A    between atoms: C_18  and  N_19
REMARK                            x       y       z     vdW  Elec       q    Type
REMARK                         _______ _______ _______ _____ _____    ______ ____
ROOT
ATOM      1  C   UNL     1       3.105   5.061  18.846  0.00  0.00    +0.000 A 
ATOM      2  C   UNL     1       3.375   3.662  18.931  0.00  0.00    +0.000 A 
ATOM      3  C   UNL     1       2.790   2.853  19.906  0.00  0.00    +0.000 A 
ATOM      4  C   UNL     1       1.958   3.422  20.842  0.00  0.00    +0.000 A 
ATOM      5  C   UNL     1       1.726   4.805  20.805  0.00  0.00    +0.000 A 
ATOM      6  C   UNL     1       2.275   5.666  19.814  0.00  0.00    +0.000 A 
ENDROOT
BRANCH   6   7
ATOM      7  C   UNL     1       1.869   7.130  19.904  0.00  0.00    +0.000 A 
ATOM      8  N   UNL     1       1.990   8.206  19.155  0.00  0.00    +0.000 NA
ATOM      9  N   UNL     1       1.303   9.200  19.901  0.00  0.00    +0.000 N 
ATOM     10  C   UNL     1       0.853   8.630  21.072  0.00  0.00    +0.000 A 
ATOM     11  S   UNL     1       0.017   9.224  22.370  0.00  0.00    +0.000 S 
ATOM     12  O   UNL     1       1.212   7.335  21.078  0.00  0.00    +0.000 OA
BRANCH   9  13
ATOM     13  C   UNL     1       1.110  10.641  19.673  0.00  0.00    +0.000 C 
BRANCH  13  14
ATOM     14  N   UNL     1       0.052  11.169  18.864  0.00  0.00    +0.000 NA
ATOM     15  C   UNL     1      -0.472  12.513  18.976  0.00  0.00    +0.000 C 
ATOM     16  C   UNL     1      -1.977  12.483  19.304  0.00  0.00    +0.000 C 
ATOM     17  O   UNL     1      -2.722  11.547  18.498  0.00  0.00    +0.000 OA
ATOM     18  C   UNL     1      -2.114  10.243  18.490  0.00  0.00    +0.000 C 
ATOM     19  C   UNL     1      -0.692  10.333  17.952  0.00  0.00    +0.000 C 
ENDBRANCH  13  14
ENDBRANCH   9  13
ENDBRANCH   6   7
BRANCH   1  20
ATOM     20  C   UNL     1       3.571   5.728  17.579  0.00  0.00    +0.000 C 
BRANCH  20  21
ATOM     21  O   UNL     1       4.777   5.211  16.995  0.00  0.00    +0.000 OA
BRANCH  21  27
ATOM     22  C   UNL     1       7.961   9.012  17.626  0.00  0.00    +0.000 C 
ATOM     23  C   UNL     1       7.546   7.586  17.845  0.00  0.00    +0.000 A 
ATOM     24  C   UNL     1       8.236   6.789  18.758  0.00  0.00    +0.000 A 
ATOM     25  C   UNL     1       7.803   5.494  19.031  0.00  0.00    +0.000 A 
ATOM     26  C   UNL     1       6.653   4.989  18.413  0.00  0.00    +0.000 A 
ATOM     27  C   UNL     1       5.934   5.773  17.505  0.00  0.00    +0.000 A 
ATOM     28  C   UNL     1       6.413   7.059  17.205  0.00  0.00    +0.000 A 
ENDBRANCH  21  27
ENDBRANCH  20  21
ENDBRANCH   1  20
TORSDOF 6
ENDMDL
MODEL 3
REMARK VINA RESULT:      -8.0      2.267      8.496
REMARK  Name = 
REMARK  7 active torsions:
REMARK  status: ('A' for Active; 'I' for Inactive)
REMARK    1  A    between atoms: C_1  and  C_2
REMARK    2  A    between atoms: C_6  and  O_7
REMARK    3  A    between atoms: O_7  and  C_8
REMARK    4  A    between atoms: C_8  and  C_9
REMARK    5  A    between atoms: C_14  and  C_15
REMARK    6  A    between atoms: N_17  and  C_18
REMARK    7  A    between atoms: C_18  and  N_19
REMARK                            x       y       z     vdW  Elec       q    Type
REMARK                         _______ _______ _______ _____ _____    ______ ____
ROOT
ATOM      1  C   UNL     1       0.142   9.914  20.003  0.00  0.00    +0.000 A 
ATOM      2  C   UNL     1      -0.571  10.730  20.932  0.00  0.00    +0.000 A 
ATOM      3  C   UNL     1      -0.413  10.592  22.312  0.00  0.00    +0.000 A 
ATOM      4  C   UNL     1       0.424   9.614  22.798  0.00  0.00    +0.000 A 
ATOM      5  C   UNL     1       1.090   8.769  21.899  0.00  0.00    +0.000 A 
ATOM      6  C   UNL     1       0.984   8.889  20.484  0.00  0.00    +0.000 A 
ENDROOT
BRANCH   6   7
ATOM      7  C   UNL     1       1.822   7.916  19.668  0.00  0.00    +0.000 A 
ATOM      8  N   UNL     1       2.557   7.966  18.577  0.00  0.00    +0.000 NA
ATOM      9  N   UNL     1       3.070   6.645  18.470  0.00  0.00    +0.000 N 
ATOM     10  C   UNL     1       2.557   5.896  19.507  0.00  0.00    +0.000 A 
ATOM     11  S   UNL     1       2.729   4.311  19.948  0.00  0.00    +0.000 S 
ATOM     12  O   UNL     1       1.771   6.689  20.254  0.00  0.00    +0.000 OA
BRANCH   9  13
ATOM     13  C   UNL     1       3.908   5.997  17.449  0.00  0.00    +0.000 C 
BRANCH  13  14
ATOM     14  N   UNL     1       5.083   5.241  17.770  0.00  0.00    +0.000 NA
ATOM     15  C   UNL     1       6.072   5.640  18.747  0.00  0.00    +0.000 C 
ATOM     16  C   UNL     1       7.458   5.780  18.090  0.00  0.00    +0.000 C 
ATOM     17  O   UNL     1       7.794   4.679  17.219  0.00  0.00    +0.000 OA
ATOM     18  C   UNL     1       6.743   4.399  16.278  0.00  0.00    +0.000 C 
ATOM     19  C   UNL     1       5.455   4.065  17.019  0.00  0.00    +0.000 C 
ENDBRANCH  13  14
ENDBRANCH   9  13
ENDBRANCH   6   7
BRANCH   1  20
ATOM     20  C   UNL     1       0.089  10.378  18.571  0.00  0.00    +0.000 C 
BRANCH  20  21
ATOM     21  O   UNL     1      -0.672   9.562  17.666  0.00  0.00    +0.000 OA
BRANCH  21  27
ATOM     22  C   UNL     1      -4.823  12.129  18.741  0.00  0.00    +0.000 C 
ATOM     23  C   UNL     1      -3.976  11.321  17.802  0.00  0.00    +0.000 A 
ATOM     24  C   UNL     1      -4.326  11.219  16.456  0.00  0.00    +0.000 A 
ATOM     25  C   UNL     1      -3.499  10.544  15.562  0.00  0.00    +0.000 A 
ATOM     26  C   UNL     1      -2.291   9.987  16.000  0.00  0.00    +0.000 A 
ATOM     27  C   UNL     1      -1.910  10.088  17.341  0.00  0.00    +0.000 A 
ATOM     28  C   UNL     1      -2.780  10.730  18.239  0.00  0.00    +0.000 A 
ENDBRANCH  21  27
ENDBRANCH  20  21
ENDBRANCH   1  20
TORSDOF 6
ENDMDL
MODEL 4
REMARK VINA RESULT:      -7.9      1.490      2.335
REMARK  Name = 
REMARK  7 active torsions:
REMARK  status: ('A' for Active; 'I' for Inactive)
REMARK    1  A    between atoms: C_1  and  C_2
REMARK    2  A    between atoms: C_6  and  O_7
REMARK    3  A    between atoms: O_7  and  C_8
REMARK    4  A    between atoms: C_8  and  C_9
REMARK    5  A    between atoms: C_14  and  C_15
REMARK    6  A    between atoms: N_17  and  C_18
REMARK    7  A    between atoms: C_18  and  N_19
REMARK                            x       y       z     vdW  Elec       q    Type
REMARK                         _______ _______ _______ _____ _____    ______ ____
ROOT
ATOM      1  C   UNL     1       3.515   4.450  17.655  0.00  0.00    +0.000 A 
ATOM      2  C   UNL     1       3.629   3.028  17.605  0.00  0.00    +0.000 A 
ATOM      3  C   UNL     1       2.738   2.190  18.277  0.00  0.00    +0.000 A 
ATOM      4  C   UNL     1       1.742   2.745  19.046  0.00  0.00    +0.000 A 
ATOM      5  C   UNL     1       1.649   4.141  19.149  0.00  0.00    +0.000 A 
ATOM      6  C   UNL     1       2.515   5.037  18.460  0.00  0.00    +0.000 A 
ENDROOT
BRANCH   6   7
ATOM      7  C   UNL     1       2.230   6.519  18.653  0.00  0.00    +0.000 A 
ATOM      8  N   UNL     1       2.176   7.591  17.891  0.00  0.00    +0.000 NA
ATOM      9  N   UNL     1       1.795   8.616  18.798  0.00  0.00    +0.000 N 
ATOM     10  C   UNL     1       1.689   8.063  20.056  0.00  0.00    +0.000 A 
ATOM     11  S   UNL     1       1.311   8.692  21.538  0.00  0.00    +0.000 S 
ATOM     12  O   UNL     1       1.966   6.751  19.967  0.00  0.00    +0.000 OA
BRANCH   9  13
ATOM     13  C   UNL     1       1.617  10.066  18.624  0.00  0.00    +0.000 C 
BRANCH  13  14
ATOM     14  N   UNL     1       0.412  10.753  18.984  0.00  0.00    +0.000 NA
ATOM     15  C   UNL     1      -0.922  10.270  18.699  0.00  0.00    +0.000 C 
ATOM     16  C   UNL     1      -1.691  11.284  17.831  0.00  0.00    +0.000 C 
ATOM     17  O   UNL     1      -1.565  12.646  18.291  0.00  0.00    +0.000 OA
ATOM     18  C   UNL     1      -0.191  13.012  18.512  0.00  0.00    +0.000 C 
ATOM     19  C   UNL     1       0.437  12.084  19.543  0.00  0.00    +0.000 C 
ENDBRANCH  13  14
ENDBRANCH   9  13
ENDBRANCH   6   7
BRANCH   1  20
ATOM     20  C   UNL     1       4.357   5.196  16.654  0.00  0.00    +0.000 C 
BRANCH  20  21
ATOM     21  O   UNL     1       5.725   4.775  16.533  0.00  0.00    +0.000 OA
BRANCH  21  27
ATOM     22  C   UNL     1       7.991   9.069  17.718  0.00  0.00    +0.000 C 
ATOM     23  C   UNL     1       7.773   7.595  17.903  0.00  0.00    +0.000 A 
ATOM     24  C   UNL     1       8.339   6.936  18.995  0.00  0.00    +0.000 A 
ATOM     25  C   UNL     1       8.069   5.588  19.221  0.00  0.00    +0.000 A 
ATOM     26  C   UNL     1       7.204   4.889  18.371  0.00  0.00    +0.000 A 
ATOM     27  C   UNL     1       6.613   5.530  17.278  0.00  0.00    +0.000 A 
ATOM     28  C   UNL     1       6.934   6.877  17.037  0.00  0.00    +0.000 A 
ENDBRANCH  21  27
ENDBRANCH  20  21
ENDBRANCH   1  20
TORSDOF 6
ENDMDL
MODEL 5
REMARK VINA RESULT:      -7.9      2.208      8.452
REMARK  Name = 
REMARK  7 active torsions:
REMARK  status: ('A' for Active; 'I' for Inactive)
REMARK    1  A    between atoms: C_1  and  C_2
REMARK    2  A    between atoms: C_6  and  O_7
REMARK    3  A    between atoms: O_7  and  C_8
REMARK    4  A    between atoms: C_8  and  C_9
REMARK    5  A    between atoms: C_14  and  C_15
REMARK    6  A    between atoms: N_17  and  C_18
REMARK    7  A    between atoms: C_18  and  N_19
REMARK                            x       y       z     vdW  Elec       q    Type
REMARK                         _______ _______ _______ _____ _____    ______ ____
ROOT
ATOM      1  C   UNL     1       0.069   9.960  20.249  0.00  0.00    +0.000 A 
ATOM      2  C   UNL     1      -0.632  10.746  21.213  0.00  0.00    +0.000 A 
ATOM      3  C   UNL     1      -0.455  10.563  22.586  0.00  0.00    +0.000 A 
ATOM      4  C   UNL     1       0.387   9.570  23.029  0.00  0.00    +0.000 A 
ATOM      5  C   UNL     1       1.041   8.754  22.095  0.00  0.00    +0.000 A 
ATOM      6  C   UNL     1       0.916   8.920  20.686  0.00  0.00    +0.000 A 
ENDROOT
BRANCH   6   7
ATOM      7  C   UNL     1       1.742   7.973  19.828  0.00  0.00    +0.000 A 
ATOM      8  N   UNL     1       2.412   8.043  18.697  0.00  0.00    +0.000 NA
ATOM      9  N   UNL     1       2.967   6.741  18.567  0.00  0.00    +0.000 N 
ATOM     10  C   UNL     1       2.542   5.981  19.635  0.00  0.00    +0.000 A 
ATOM     11  S   UNL     1       2.798   4.407  20.073  0.00  0.00    +0.000 S 
ATOM     12  O   UNL     1       1.770   6.749  20.422  0.00  0.00    +0.000 OA
BRANCH   9  13
ATOM     13  C   UNL     1       3.770   6.117  17.503  0.00  0.00    +0.000 C 
BRANCH  13  14
ATOM     14  N   UNL     1       4.994   5.418  17.758  0.00  0.00    +0.000 NA
ATOM     15  C   UNL     1       6.113   5.968  18.494  0.00  0.00    +0.000 C 
ATOM     16  C   UNL     1       7.379   5.991  17.617  0.00  0.00    +0.000 C 
ATOM     17  O   UNL     1       7.602   4.760  16.896  0.00  0.00    +0.000 OA
ATOM     18  C   UNL     1       6.425   4.335  16.186  0.00  0.00    +0.000 C 
ATOM     19  C   UNL     1       5.271   4.133  17.161  0.00  0.00    +0.000 C 
ENDBRANCH  13  14
ENDBRANCH   9  13
ENDBRANCH   6   7
BRANCH   1  20
ATOM     20  C   UNL     1      -0.003  10.469  18.833  0.00  0.00    +0.000 C 
BRANCH  20  21
ATOM     21  O   UNL     1      -0.737  11.687  18.632  0.00  0.00    +0.000 OA
BRANCH  21  27
ATOM     22  C   UNL     1      -3.468  10.243  14.702  0.00  0.00    +0.000 C 
ATOM     23  C   UNL     1      -3.338  10.843  16.073  0.00  0.00    +0.000 A 
ATOM     24  C   UNL     1      -4.477  11.090  16.838  0.00  0.00    +0.000 A 
ATOM     25  C   UNL     1      -4.361  11.564  18.143  0.00  0.00    +0.000 A 
ATOM     26  C   UNL     1      -3.096  11.769  18.708  0.00  0.00    +0.000 A 
ATOM     27  C   UNL     1      -1.938  11.515  17.967  0.00  0.00    +0.000 A 
ATOM     28  C   UNL     1      -2.076  11.084  16.637  0.00  0.00    +0.000 A 
ENDBRANCH  21  27
ENDBRANCH  20  21
ENDBRANCH   1  20
TORSDOF 6
ENDMDL
MODEL 6
REMARK VINA RESULT:      -7.8      2.261      8.472
REMARK  Name = 
REMARK  7 active torsions:
REMARK  status: ('A' for Active; 'I' for Inactive)
REMARK    1  A    between atoms: C_1  and  C_2
REMARK    2  A    between atoms: C_6  and  O_7
REMARK    3  A    between atoms: O_7  and  C_8
REMARK    4  A    between atoms: C_8  and  C_9
REMARK    5  A    between atoms: C_14  and  C_15
REMARK    6  A    between atoms: N_17  and  C_18
REMARK    7  A    between atoms: C_18  and  N_19
REMARK                            x       y       z     vdW  Elec       q    Type
REMARK                         _______ _______ _______ _____ _____    ______ ____
ROOT
ATOM      1  C   UNL     1      -0.013   9.952  20.379  0.00  0.00    +0.000 A 
ATOM      2  C   UNL     1      -0.727  10.819  21.260  0.00  0.00    +0.000 A 
ATOM      3  C   UNL     1      -0.645  10.694  22.648  0.00  0.00    +0.000 A 
ATOM      4  C   UNL     1       0.113   9.680  23.189  0.00  0.00    +0.000 A 
ATOM      5  C   UNL     1       0.776   8.788  22.335  0.00  0.00    +0.000 A 
ATOM      6  C   UNL     1       0.747   8.892  20.915  0.00  0.00    +0.000 A 
ENDROOT
BRANCH   6   7
ATOM      7  C   UNL     1       1.572   7.863  20.155  0.00  0.00    +0.000 A 
ATOM      8  N   UNL     1       2.311   7.843  19.066  0.00  0.00    +0.000 NA
ATOM      9  N   UNL     1       2.802   6.510  19.031  0.00  0.00    +0.000 N 
ATOM     10  C   UNL     1       2.273   5.825  20.104  0.00  0.00    +0.000 A 
ATOM     11  S   UNL     1       2.417   4.264  20.629  0.00  0.00    +0.000 S 
ATOM     12  O   UNL     1       1.498   6.670  20.805  0.00  0.00    +0.000 OA
BRANCH   9  13
ATOM     13  C   UNL     1       3.632   5.794  18.049  0.00  0.00    +0.000 C 
BRANCH  13  14
ATOM     14  N   UNL     1       5.035   6.037  17.890  0.00  0.00    +0.000 NA
ATOM     15  C   UNL     1       5.630   6.666  16.731  0.00  0.00    +0.000 C 
ATOM     16  C   UNL     1       6.653   5.723  16.068  0.00  0.00    +0.000 C 
ATOM     17  O   UNL     1       7.545   5.090  17.009  0.00  0.00    +0.000 OA
ATOM     18  C   UNL     1       6.831   4.481  18.099  0.00  0.00    +0.000 C 
ATOM     19  C   UNL     1       6.004   5.529  18.832  0.00  0.00    +0.000 C 
ENDBRANCH  13  14
ENDBRANCH   9  13
ENDBRANCH   6   7
BRANCH   1  20
ATOM     20  C   UNL     1       0.030  10.395  18.941  0.00  0.00    +0.000 C 
BRANCH  20  21
ATOM     21  O   UNL     1      -0.802  11.515  18.595  0.00  0.00    +0.000 OA
BRANCH  21  27
ATOM     22  C   UNL     1      -5.581  12.150  17.276  0.00  0.00    +0.000 C 
ATOM     23  C   UNL     1      -4.274  11.415  17.194  0.00  0.00    +0.000 A 
ATOM     24  C   UNL     1      -4.082  10.437  16.219  0.00  0.00    +0.000 A 
ATOM     25  C   UNL     1      -2.844   9.813  16.081  0.00  0.00    +0.000 A 
ATOM     26  C   UNL     1      -1.771  10.184  16.901  0.00  0.00    +0.000 A 
ATOM     27  C   UNL     1      -1.934  11.172  17.877  0.00  0.00    +0.000 A 
ATOM     28  C   UNL     1      -3.202  11.756  18.034  0.00  0.00    +0.000 A 
ENDBRANCH  21  27
ENDBRANCH  20  21
ENDBRANCH   1  20
TORSDOF 6
ENDMDL
MODEL 7
REMARK VINA RESULT:      -7.8      3.129      7.580
REMARK  Name = 
REMARK  7 active torsions:
REMARK  status: ('A' for Active; 'I' for Inactive)
REMARK    1  A    between atoms: C_1  and  C_2
REMARK    2  A    between atoms: C_6  and  O_7
REMARK    3  A    between atoms: O_7  and  C_8
REMARK    4  A    between atoms: C_8  and  C_9
REMARK    5  A    between atoms: C_14  and  C_15
REMARK    6  A    between atoms: N_17  and  C_18
REMARK    7  A    between atoms: C_18  and  N_19
REMARK                            x       y       z     vdW  Elec       q    Type
REMARK                         _______ _______ _______ _____ _____    ______ ____
ROOT
ATOM      1  C   UNL     1       2.167   4.677  19.619  0.00  0.00    +0.000 A 
ATOM      2  C   UNL     1       1.154   4.313  20.558  0.00  0.00    +0.000 A 
ATOM      3  C   UNL     1       1.300   3.225  21.420  0.00  0.00    +0.000 A 
ATOM      4  C   UNL     1       2.436   2.452  21.341  0.00  0.00    +0.000 A 
ATOM      5  C   UNL     1       3.415   2.764  20.387  0.00  0.00    +0.000 A 
ATOM      6  C   UNL     1       3.325   3.879  19.507  0.00  0.00    +0.000 A 
ENDROOT
BRANCH   6   7
ATOM      7  C   UNL     1       4.510   4.089  18.575  0.00  0.00    +0.000 A 
ATOM      8  N   UNL     1       4.826   3.766  17.339  0.00  0.00    +0.000 NA
ATOM      9  N   UNL     1       6.100   4.368  17.161  0.00  0.00    +0.000 N 
ATOM     10  C   UNL     1       6.460   4.979  18.342  0.00  0.00    +0.000 A 
ATOM     11  S   UNL     1       7.800   5.825  18.815  0.00  0.00    +0.000 S 
ATOM     12  O   UNL     1       5.467   4.801  19.230  0.00  0.00    +0.000 OA
BRANCH   9  13
ATOM     13  C   UNL     1       7.049   4.345  16.036  0.00  0.00    +0.000 C 
BRANCH  13  14
ATOM     14  N   UNL     1       6.674   4.674  14.692  0.00  0.00    +0.000 NA
ATOM     15  C   UNL     1       5.658   3.978  13.933  0.00  0.00    +0.000 C 
ATOM     16  C   UNL     1       6.257   3.384  12.644  0.00  0.00    +0.000 C 
ATOM     17  O   UNL     1       7.105   4.305  11.926  0.00  0.00    +0.000 OA
ATOM     18  C   UNL     1       8.088   4.909  12.786  0.00  0.00    +0.000 C 
ATOM     19  C   UNL     1       7.400   5.655  13.922  0.00  0.00    +0.000 C 
ENDBRANCH  13  14
ENDBRANCH   9  13
ENDBRANCH   6   7
BRANCH   1  20
ATOM     20  C   UNL     1       1.990   6.028  18.978  0.00  0.00    +0.000 C 
BRANCH  20  21
ATOM     21  O   UNL     1       2.568   7.143  19.675  0.00  0.00    +0.000 OA
BRANCH  21  27
ATOM     22  C   UNL     1      -0.383  11.046  18.654  0.00  0.00    +0.000 C 
ATOM     23  C   UNL     1       0.195  10.040  19.607  0.00  0.00    +0.000 A 
ATOM     24  C   UNL     1      -0.324   9.920  20.896  0.00  0.00    +0.000 A 
ATOM     25  C   UNL     1       0.147   8.931  21.756  0.00  0.00    +0.000 A 
ATOM     26  C   UNL     1       1.126   8.028  21.323  0.00  0.00    +0.000 A 
ATOM     27  C   UNL     1       1.652   8.117  20.031  0.00  0.00    +0.000 A 
ATOM     28  C   UNL     1       1.200   9.151  19.194  0.00  0.00    +0.000 A 
ENDBRANCH  21  27
ENDBRANCH  20  21
ENDBRANCH   1  20
TORSDOF 6
ENDMDL
MODEL 8
REMARK VINA RESULT:      -7.8      1.231      1.323
REMARK  Name = 
REMARK  7 active torsions:
REMARK  status: ('A' for Active; 'I' for Inactive)
REMARK    1  A    between atoms: C_1  and  C_2
REMARK    2  A    between atoms: C_6  and  O_7
REMARK    3  A    between atoms: O_7  and  C_8
REMARK    4  A    between atoms: C_8  and  C_9
REMARK    5  A    between atoms: C_14  and  C_15
REMARK    6  A    between atoms: N_17  and  C_18
REMARK    7  A    between atoms: C_18  and  N_19
REMARK                            x       y       z     vdW  Elec       q    Type
REMARK                         _______ _______ _______ _____ _____    ______ ____
ROOT
ATOM      1  C   UNL     1       3.499   3.823  19.517  0.00  0.00    +0.000 A 
ATOM      2  C   UNL     1       3.516   2.432  19.196  0.00  0.00    +0.000 A 
ATOM      3  C   UNL     1       2.377   1.762  18.747  0.00  0.00    +0.000 A 
ATOM      4  C   UNL     1       1.188   2.448  18.648  0.00  0.00    +0.000 A 
ATOM      5  C   UNL     1       1.143   3.802  19.012  0.00  0.00    +0.000 A 
ATOM      6  C   UNL     1       2.283   4.536  19.446  0.00  0.00    +0.000 A 
ENDROOT
BRANCH   6   7
ATOM      7  C   UNL     1       2.051   6.009  19.748  0.00  0.00    +0.000 A 
ATOM      8  N   UNL     1       1.685   6.728  20.788  0.00  0.00    +0.000 NA
ATOM      9  N   UNL     1       1.744   8.060  20.300  0.00  0.00    +0.000 N 
ATOM     10  C   UNL     1       2.113   8.019  18.973  0.00  0.00    +0.000 A 
ATOM     11  S   UNL     1       2.341   9.190  17.827  0.00  0.00    +0.000 S 
ATOM     12  O   UNL     1       2.299   6.735  18.624  0.00  0.00    +0.000 OA
BRANCH   9  13
ATOM     13  C   UNL     1       1.400   9.350  20.920  0.00  0.00    +0.000 C 
BRANCH  13  14
ATOM     14  N   UNL     1       0.303  10.159  20.479  0.00  0.00    +0.000 NA
ATOM     15  C   UNL     1      -0.876   9.648  19.814  0.00  0.00    +0.000 C 
ATOM     16  C   UNL     1      -1.037  10.293  18.424  0.00  0.00    +0.000 C 
ATOM     17  O   UNL     1      -0.849  11.724  18.430  0.00  0.00    +0.000 OA
ATOM     18  C   UNL     1       0.369  12.102  19.097  0.00  0.00    +0.000 C 
ATOM     19  C   UNL     1       0.355  11.601  20.535  0.00  0.00    +0.000 C 
ENDBRANCH  13  14
ENDBRANCH   9  13
ENDBRANCH   6   7
BRANCH   1  20
ATOM     20  C   UNL     1       4.853   4.455  19.699  0.00  0.00    +0.000 C 
BRANCH  20  21
ATOM     21  O   UNL     1       5.874   4.049  18.774  0.00  0.00    +0.000 OA
BRANCH  21  27
ATOM     22  C   UNL     1       5.928   3.919  13.778  0.00  0.00    +0.000 C 
ATOM     23  C   UNL     1       5.799   4.657  15.079  0.00  0.00    +0.000 A 
ATOM     24  C   UNL     1       5.371   5.984  15.091  0.00  0.00    +0.000 A 
ATOM     25  C   UNL     1       5.166   6.647  16.298  0.00  0.00    +0.000 A 
ATOM     26  C   UNL     1       5.358   5.978  17.513  0.00  0.00    +0.000 A 
ATOM     27  C   UNL     1       5.773   4.643  17.529  0.00  0.00    +0.000 A 
ATOM     28  C   UNL     1       6.022   4.004  16.302  0.00  0.00    +0.000 A 
ENDBRANCH  21  27
ENDBRANCH  20  21
ENDBRANCH   1  20
TORSDOF 6
ENDMDL
MODEL 9
REMARK VINA RESULT:      -7.7      2.431      8.385
REMARK  Name = 
REMARK  7 active torsions:
REMARK  status: ('A' for Active; 'I' for Inactive)
REMARK    1  A    between atoms: C_1  and  C_2
REMARK    2  A    between atoms: C_6  and  O_7
REMARK    3  A    between atoms: O_7  and  C_8
REMARK    4  A    between atoms: C_8  and  C_9
REMARK    5  A    between atoms: C_14  and  C_15
REMARK    6  A    between atoms: N_17  and  C_18
REMARK    7  A    between atoms: C_18  and  N_19
REMARK                            x       y       z     vdW  Elec       q    Type
REMARK                         _______ _______ _______ _____ _____    ______ ____
ROOT
ATOM      1  C   UNL     1      -0.319  10.115  20.525  0.00  0.00    +0.000 A 
ATOM      2  C   UNL     1      -1.071  11.007  21.348  0.00  0.00    +0.000 A 
ATOM      3  C   UNL     1      -1.025  10.944  22.742  0.00  0.00    +0.000 A 
ATOM      4  C   UNL     1      -0.266   9.969  23.347  0.00  0.00    +0.000 A 
ATOM      5  C   UNL     1       0.436   9.051  22.552  0.00  0.00    +0.000 A 
ATOM      6  C   UNL     1       0.444   9.092  21.128  0.00  0.00    +0.000 A 
ENDROOT
BRANCH   6   7
ATOM      7  C   UNL     1       1.305   8.045  20.437  0.00  0.00    +0.000 A 
ATOM      8  N   UNL     1       2.048   7.981  19.352  0.00  0.00    +0.000 NA
ATOM      9  N   UNL     1       2.585   6.667  19.403  0.00  0.00    +0.000 N 
ATOM     10  C   UNL     1       2.077   6.035  20.518  0.00  0.00    +0.000 A 
ATOM     11  S   UNL     1       2.274   4.516  21.143  0.00  0.00    +0.000 S 
ATOM     12  O   UNL     1       1.271   6.895  21.162  0.00  0.00    +0.000 OA
BRANCH   9  13
ATOM     13  C   UNL     1       3.442   5.918  18.470  0.00  0.00    +0.000 C 
BRANCH  13  14
ATOM     14  N   UNL     1       2.988   4.770  17.743  0.00  0.00    +0.000 NA
ATOM     15  C   UNL     1       1.597   4.406  17.574  0.00  0.00    +0.000 C 
ATOM     16  C   UNL     1       1.330   3.004  18.152  0.00  0.00    +0.000 C 
ATOM     17  O   UNL     1       2.321   2.027  17.770  0.00  0.00    +0.000 OA
ATOM     18  C   UNL     1       3.659   2.497  18.013  0.00  0.00    +0.000 C 
ATOM     19  C   UNL     1       3.909   3.782  17.234  0.00  0.00    +0.000 C 
ENDBRANCH  13  14
ENDBRANCH   9  13
ENDBRANCH   6   7
BRANCH   1  20
ATOM     20  C   UNL     1      -0.244  10.495  19.070  0.00  0.00    +0.000 C 
BRANCH  20  21
ATOM     21  O   UNL     1      -0.904  11.715  18.697  0.00  0.00    +0.000 OA
BRANCH  21  27
ATOM     22  C   UNL     1      -3.336  10.167  14.614  0.00  0.00    +0.000 C 
ATOM     23  C   UNL     1      -3.308  10.803  15.973  0.00  0.00    +0.000 A 
ATOM     24  C   UNL     1      -4.501  11.070  16.644  0.00  0.00    +0.000 A 
ATOM     25  C   UNL     1      -4.481  11.579  17.941  0.00  0.00    +0.000 A 
ATOM     26  C   UNL     1      -3.262  11.799  18.594  0.00  0.00    +0.000 A 
ATOM     27  C   UNL     1      -2.052  11.525  17.949  0.00  0.00    +0.000 A 
ATOM     28  C   UNL     1      -2.091  11.059  16.624  0.00  0.00    +0.000 A 
ENDBRANCH  21  27
ENDBRANCH  20  21
ENDBRANCH   1  20
TORSDOF 6
ENDMDL
