MODEL 1
REMARK VINA RESULT:      -8.7      0.000      0.000
REMARK  Name = 
REMARK  9 active torsions:
REMARK  status: ('A' for Active; 'I' for Inactive)
REMARK    1  A    between atoms: C_2  and  O_3
REMARK    2  A    between atoms: C_2  and  C_4
REMARK    3  A    between atoms: C_4  and  C_5
REMARK    4  A    between atoms: C_5  and  C_6
REMARK    5  A    between atoms: C_5  and  N_13
REMARK    6  A    between atoms: C_6  and  C_7
REMARK    7  A    between atoms: C_14  and  C_16
REMARK    8  A    between atoms: N_20  and  S_21
REMARK    9  A    between atoms: S_21  and  C_24
REMARK                            x       y       z     vdW  Elec       q    Type
REMARK                         _______ _______ _______ _____ _____    ______ ____
ROOT
ATOM      1  N   UNL     1       3.930   4.813  19.470  0.00  0.00    +0.000 N 
ATOM      2  C   UNL     1       4.935   3.879  19.226  0.00  0.00    +0.000 C 
ATOM      3  O   UNL     1       4.778   2.695  19.513  0.00  0.00    +0.000 OA
ATOM      4  H   UNL     1       3.978   5.661  18.914  0.00  0.00    +0.000 HD
ENDROOT
BRANCH   2   5
ATOM      5  C   UNL     1       6.301   4.424  18.740  0.00  0.00    +0.000 C 
ATOM      6  C   UNL     1       6.803   5.637  19.537  0.00  0.00    +0.000 C 
ATOM      7  C   UNL     1       7.928   6.204  18.707  0.00  0.00    +0.000 C 
ATOM      8  C   UNL     1       7.441   6.017  17.290  0.00  0.00    +0.000 C 
ATOM      9  N   UNL     1       6.550   4.816  17.297  0.00  0.00    +0.000 NA
BRANCH   9  10
ATOM     10  S   UNL     1       5.236   4.896  16.209  0.00  0.00    +0.000 S 
ATOM     11  O   UNL     1       4.309   3.813  16.445  0.00  0.00    +0.000 OA
ATOM     12  O   UNL     1       4.818   6.278  16.140  0.00  0.00    +0.000 OA
BRANCH  10  13
ATOM     13  C   UNL     1       6.043   4.483  14.663  0.00  0.00    +0.000 A 
ATOM     14  C   UNL     1       7.151   5.241  14.274  0.00  0.00    +0.000 A 
ATOM     15  C   UNL     1       7.638   5.109  12.977  0.00  0.00    +0.000 A 
ATOM     16 CL   UNL     1       8.905   6.139  12.436  0.00  0.00    +0.000 Cl
ATOM     17  C   UNL     1       7.067   4.196  12.093  0.00  0.00    +0.000 A 
ATOM     18  C   UNL     1       6.013   3.389  12.524  0.00  0.00    +0.000 A 
ATOM     19 CL   UNL     1       5.316   2.256  11.432  0.00  0.00    +0.000 Cl
ATOM     20  C   UNL     1       5.488   3.526  13.808  0.00  0.00    +0.000 A 
ENDBRANCH  10  13
ENDBRANCH   9  10
ENDBRANCH   2   5
BRANCH   1  21
ATOM     21  C   UNL     1       2.545   4.452  19.847  0.00  0.00    +0.000 C 
BRANCH  21  22
ATOM     22  C   UNL     1       1.682   4.122  18.607  0.00  0.00    +0.000 C 
BRANCH  22  24
ATOM     23  O   UNL     1       0.337   2.144  18.883  0.00  0.00    +0.000 OA
ATOM     24  C   UNL     1       1.353   2.667  18.443  0.00  0.00    +0.000 C 
BRANCH  24  25
ATOM     25  O   UNL     1       2.343   1.960  17.854  0.00  0.00    +0.000 OA
ATOM     26  H   UNL     1       3.179   1.915  18.355  0.00  0.00    +0.000 HD
ENDBRANCH  24  25
ENDBRANCH  22  24
ENDBRANCH  21  22
BRANCH  21  27
ATOM     27  C   UNL     1       1.788   5.501  20.722  0.00  0.00    +0.000 C 
BRANCH  27  28
ATOM     28  C   UNL     1       1.689   6.909  20.171  0.00  0.00    +0.000 A 
ATOM     29  C   UNL     1       1.161   7.972  20.917  0.00  0.00    +0.000 A 
ATOM     30  C   UNL     1       1.021   9.243  20.356  0.00  0.00    +0.000 A 
ATOM     31  C   UNL     1       1.472   9.486  19.063  0.00  0.00    +0.000 A 
ATOM     32  C   UNL     1       2.066   8.460  18.334  0.00  0.00    +0.000 A 
ATOM     33  C   UNL     1       2.166   7.179  18.881  0.00  0.00    +0.000 A 
ENDBRANCH  27  28
ENDBRANCH  21  27
ENDBRANCH   1  21
TORSDOF 9
ENDMDL
MODEL 2
REMARK VINA RESULT:      -8.5      3.715      7.946
REMARK  Name = 
REMARK  9 active torsions:
REMARK  status: ('A' for Active; 'I' for Inactive)
REMARK    1  A    between atoms: C_2  and  O_3
REMARK    2  A    between atoms: C_2  and  C_4
REMARK    3  A    between atoms: C_4  and  C_5
REMARK    4  A    between atoms: C_5  and  C_6
REMARK    5  A    between atoms: C_5  and  N_13
REMARK    6  A    between atoms: C_6  and  C_7
REMARK    7  A    between atoms: C_14  and  C_16
REMARK    8  A    between atoms: N_20  and  S_21
REMARK    9  A    between atoms: S_21  and  C_24
REMARK                            x       y       z     vdW  Elec       q    Type
REMARK                         _______ _______ _______ _____ _____    ______ ____
ROOT
ATOM      1  N   UNL     1       5.367   4.827  18.396  0.00  0.00    +0.000 N 
ATOM      2  C   UNL     1       4.227   4.029  18.482  0.00  0.00    +0.000 C 
ATOM      3  O   UNL     1       3.913   3.278  17.561  0.00  0.00    +0.000 OA
ATOM      4  H   UNL     1       5.749   5.140  19.283  0.00  0.00    +0.000 HD
ENDROOT
BRANCH   2   5
ATOM      5  C   UNL     1       3.299   4.256  19.700  0.00  0.00    +0.000 C 
ATOM      6  C   UNL     1       2.233   3.166  19.877  0.00  0.00    +0.000 C 
ATOM      7  C   UNL     1       1.253   3.742  20.869  0.00  0.00    +0.000 C 
ATOM      8  C   UNL     1       1.197   5.204  20.491  0.00  0.00    +0.000 C 
ATOM      9  N   UNL     1       2.529   5.546  19.904  0.00  0.00    +0.000 NA
BRANCH   9  10
ATOM     10  S   UNL     1       2.479   6.702  18.648  0.00  0.00    +0.000 S 
ATOM     11  O   UNL     1       3.806   7.188  18.346  0.00  0.00    +0.000 OA
ATOM     12  O   UNL     1       1.586   6.195  17.632  0.00  0.00    +0.000 OA
BRANCH  10  13
ATOM     13  C   UNL     1       1.664   8.070  19.471  0.00  0.00    +0.000 A 
ATOM     14  C   UNL     1       1.377   9.214  18.721  0.00  0.00    +0.000 A 
ATOM     15  C   UNL     1       0.979  10.372  19.382  0.00  0.00    +0.000 A 
ATOM     16 CL   UNL     1       0.765  11.828  18.491  0.00  0.00    +0.000 Cl
ATOM     17  C   UNL     1       0.813  10.380  20.766  0.00  0.00    +0.000 A 
ATOM     18  C   UNL     1       1.026   9.206  21.490  0.00  0.00    +0.000 A 
ATOM     19 CL   UNL     1       0.812   9.216  23.197  0.00  0.00    +0.000 Cl
ATOM     20  C   UNL     1       1.456   8.043  20.853  0.00  0.00    +0.000 A 
ENDBRANCH  10  13
ENDBRANCH   9  10
ENDBRANCH   2   5
BRANCH   1  21
ATOM     21  C   UNL     1       6.402   4.674  17.349  0.00  0.00    +0.000 C 
BRANCH  21  22
ATOM     22  C   UNL     1       7.828   4.830  17.928  0.00  0.00    +0.000 C 
BRANCH  22  24
ATOM     23  O   UNL     1       8.249   7.063  18.722  0.00  0.00    +0.000 OA
ATOM     24  C   UNL     1       7.966   5.899  18.972  0.00  0.00    +0.000 C 
BRANCH  24  25
ATOM     25  O   UNL     1       7.856   5.429  20.234  0.00  0.00    +0.000 OA
ATOM     26  H   UNL     1       8.669   5.042  20.609  0.00  0.00    +0.000 HD
ENDBRANCH  24  25
ENDBRANCH  22  24
ENDBRANCH  21  22
BRANCH  21  27
ATOM     27  C   UNL     1       6.256   5.615  16.112  0.00  0.00    +0.000 C 
BRANCH  27  28
ATOM     28  C   UNL     1       6.432   4.983  14.746  0.00  0.00    +0.000 A 
ATOM     29  C   UNL     1       7.520   5.282  13.914  0.00  0.00    +0.000 A 
ATOM     30  C   UNL     1       7.616   4.734  12.634  0.00  0.00    +0.000 A 
ATOM     31  C   UNL     1       6.662   3.823  12.193  0.00  0.00    +0.000 A 
ATOM     32  C   UNL     1       5.614   3.459  13.034  0.00  0.00    +0.000 A 
ATOM     33  C   UNL     1       5.496   4.040  14.298  0.00  0.00    +0.000 A 
ENDBRANCH  27  28
ENDBRANCH  21  27
ENDBRANCH   1  21
TORSDOF 9
ENDMDL
MODEL 3
REMARK VINA RESULT:      -8.5      3.779      7.971
REMARK  Name = 
REMARK  9 active torsions:
REMARK  status: ('A' for Active; 'I' for Inactive)
REMARK    1  A    between atoms: C_2  and  O_3
REMARK    2  A    between atoms: C_2  and  C_4
REMARK    3  A    between atoms: C_4  and  C_5
REMARK    4  A    between atoms: C_5  and  C_6
REMARK    5  A    between atoms: C_5  and  N_13
REMARK    6  A    between atoms: C_6  and  C_7
REMARK    7  A    between atoms: C_14  and  C_16
REMARK    8  A    between atoms: N_20  and  S_21
REMARK    9  A    between atoms: S_21  and  C_24
REMARK                            x       y       z     vdW  Elec       q    Type
REMARK                         _______ _______ _______ _____ _____    ______ ____
ROOT
ATOM      1  N   UNL     1       5.361   4.948  18.334  0.00  0.00    +0.000 N 
ATOM      2  C   UNL     1       4.226   4.149  18.462  0.00  0.00    +0.000 C 
ATOM      3  O   UNL     1       3.909   3.358  17.577  0.00  0.00    +0.000 OA
ATOM      4  H   UNL     1       5.747   5.300  19.204  0.00  0.00    +0.000 HD
ENDROOT
BRANCH   2   5
ATOM      5  C   UNL     1       3.305   4.423  19.677  0.00  0.00    +0.000 C 
ATOM      6  C   UNL     1       2.239   3.342  19.902  0.00  0.00    +0.000 C 
ATOM      7  C   UNL     1       1.266   3.958  20.878  0.00  0.00    +0.000 C 
ATOM      8  C   UNL     1       1.210   5.403  20.445  0.00  0.00    +0.000 C 
ATOM      9  N   UNL     1       2.539   5.721  19.837  0.00  0.00    +0.000 NA
BRANCH   9  10
ATOM     10  S   UNL     1       2.482   6.829  18.538  0.00  0.00    +0.000 S 
ATOM     11  O   UNL     1       3.811   7.282  18.194  0.00  0.00    +0.000 OA
ATOM     12  O   UNL     1       1.563   6.297  17.559  0.00  0.00    +0.000 OA
BRANCH  10  13
ATOM     13  C   UNL     1       1.704   8.240  19.323  0.00  0.00    +0.000 A 
ATOM     14  C   UNL     1       1.647   8.270  20.719  0.00  0.00    +0.000 A 
ATOM     15  C   UNL     1       0.838   9.215  21.341  0.00  0.00    +0.000 A 
ATOM     16 CL   UNL     1       0.641   9.173  23.050  0.00  0.00    +0.000 Cl
ATOM     17  C   UNL     1       0.135  10.156  20.590  0.00  0.00    +0.000 A 
ATOM     18  C   UNL     1       0.267  10.162  19.201  0.00  0.00    +0.000 A 
ATOM     19 CL   UNL     1      -0.594  11.330  18.276  0.00  0.00    +0.000 Cl
ATOM     20  C   UNL     1       1.047   9.205  18.553  0.00  0.00    +0.000 A 
ENDBRANCH  10  13
ENDBRANCH   9  10
ENDBRANCH   2   5
BRANCH   1  21
ATOM     21  C   UNL     1       6.389   4.755  17.287  0.00  0.00    +0.000 C 
BRANCH  21  22
ATOM     22  C   UNL     1       7.819   4.901  17.856  0.00  0.00    +0.000 C 
BRANCH  22  24
ATOM     23  O   UNL     1       7.488   5.384  20.191  0.00  0.00    +0.000 OA
ATOM     24  C   UNL     1       7.916   5.736  19.099  0.00  0.00    +0.000 C 
BRANCH  24  25
ATOM     25  O   UNL     1       8.425   6.967  18.876  0.00  0.00    +0.000 OA
ATOM     26  H   UNL     1       9.367   7.078  19.105  0.00  0.00    +0.000 HD
ENDBRANCH  24  25
ENDBRANCH  22  24
ENDBRANCH  21  22
BRANCH  21  27
ATOM     27  C   UNL     1       6.252   5.670  16.029  0.00  0.00    +0.000 C 
BRANCH  27  28
ATOM     28  C   UNL     1       6.432   5.008  14.677  0.00  0.00    +0.000 A 
ATOM     29  C   UNL     1       7.514   5.302  13.836  0.00  0.00    +0.000 A 
ATOM     30  C   UNL     1       7.614   4.726  12.568  0.00  0.00    +0.000 A 
ATOM     31  C   UNL     1       6.671   3.792  12.152  0.00  0.00    +0.000 A 
ATOM     32  C   UNL     1       5.630   3.434  13.004  0.00  0.00    +0.000 A 
ATOM     33  C   UNL     1       5.508   4.042  14.254  0.00  0.00    +0.000 A 
ENDBRANCH  27  28
ENDBRANCH  21  27
ENDBRANCH   1  21
TORSDOF 9
ENDMDL
MODEL 4
REMARK VINA RESULT:      -8.2      0.390      1.666
REMARK  Name = 
REMARK  9 active torsions:
REMARK  status: ('A' for Active; 'I' for Inactive)
REMARK    1  A    between atoms: C_2  and  O_3
REMARK    2  A    between atoms: C_2  and  C_4
REMARK    3  A    between atoms: C_4  and  C_5
REMARK    4  A    between atoms: C_5  and  C_6
REMARK    5  A    between atoms: C_5  and  N_13
REMARK    6  A    between atoms: C_6  and  C_7
REMARK    7  A    between atoms: C_14  and  C_16
REMARK    8  A    between atoms: N_20  and  S_21
REMARK    9  A    between atoms: S_21  and  C_24
REMARK                            x       y       z     vdW  Elec       q    Type
REMARK                         _______ _______ _______ _____ _____    ______ ____
ROOT
ATOM      1  N   UNL     1       3.991   5.049  19.480  0.00  0.00    +0.000 N 
ATOM      2  C   UNL     1       4.986   4.082  19.340  0.00  0.00    +0.000 C 
ATOM      3  O   UNL     1       4.832   2.950  19.793  0.00  0.00    +0.000 OA
ATOM      4  H   UNL     1       4.026   5.811  18.810  0.00  0.00    +0.000 HD
ENDROOT
BRANCH   2   5
ATOM      5  C   UNL     1       6.338   4.543  18.744  0.00  0.00    +0.000 C 
ATOM      6  C   UNL     1       6.946   5.760  19.456  0.00  0.00    +0.000 C 
ATOM      7  C   UNL     1       8.037   6.242  18.531  0.00  0.00    +0.000 C 
ATOM      8  C   UNL     1       7.448   6.025  17.158  0.00  0.00    +0.000 C 
ATOM      9  N   UNL     1       6.507   4.868  17.273  0.00  0.00    +0.000 NA
BRANCH   9  10
ATOM     10  S   UNL     1       5.127   4.969  16.270  0.00  0.00    +0.000 S 
ATOM     11  O   UNL     1       4.289   3.803  16.434  0.00  0.00    +0.000 OA
ATOM     12  O   UNL     1       4.615   6.316  16.378  0.00  0.00    +0.000 OA
BRANCH  10  13
ATOM     13  C   UNL     1       5.865   4.783  14.648  0.00  0.00    +0.000 A 
ATOM     14  C   UNL     1       5.338   3.812  13.791  0.00  0.00    +0.000 A 
ATOM     15  C   UNL     1       6.041   3.476  12.638  0.00  0.00    +0.000 A 
ATOM     16 CL   UNL     1       5.484   2.182  11.651  0.00  0.00    +0.000 Cl
ATOM     17  C   UNL     1       7.224   4.134  12.309  0.00  0.00    +0.000 A 
ATOM     18  C   UNL     1       7.693   5.158  13.134  0.00  0.00    +0.000 A 
ATOM     19 CL   UNL     1       9.149   5.975  12.721  0.00  0.00    +0.000 Cl
ATOM     20  C   UNL     1       7.023   5.490  14.311  0.00  0.00    +0.000 A 
ENDBRANCH  10  13
ENDBRANCH   9  10
ENDBRANCH   2   5
BRANCH   1  21
ATOM     21  C   UNL     1       2.617   4.756  19.944  0.00  0.00    +0.000 C 
BRANCH  21  22
ATOM     22  C   UNL     1       1.711   4.284  18.783  0.00  0.00    +0.000 C 
BRANCH  22  24
ATOM     23  O   UNL     1       1.250   2.046  19.542  0.00  0.00    +0.000 OA
ATOM     24  C   UNL     1       1.602   2.795  18.639  0.00  0.00    +0.000 C 
BRANCH  24  25
ATOM     25  O   UNL     1       2.036   2.342  17.443  0.00  0.00    +0.000 OA
ATOM     26  H   UNL     1       2.991   2.453  17.275  0.00  0.00    +0.000 HD
ENDBRANCH  24  25
ENDBRANCH  22  24
ENDBRANCH  21  22
BRANCH  21  27
ATOM     27  C   UNL     1       1.898   5.914  20.704  0.00  0.00    +0.000 C 
BRANCH  27  28
ATOM     28  C   UNL     1       1.767   7.235  19.973  0.00  0.00    +0.000 A 
ATOM     29  C   UNL     1       1.125   8.346  20.540  0.00  0.00    +0.000 A 
ATOM     30  C   UNL     1       0.961   9.527  19.814  0.00  0.00    +0.000 A 
ATOM     31  C   UNL     1       1.497   9.638  18.535  0.00  0.00    +0.000 A 
ATOM     32  C   UNL     1       2.201   8.570  17.986  0.00  0.00    +0.000 A 
ATOM     33  C   UNL     1       2.328   7.375  18.696  0.00  0.00    +0.000 A 
ENDBRANCH  27  28
ENDBRANCH  21  27
ENDBRANCH   1  21
TORSDOF 9
ENDMDL
MODEL 5
REMARK VINA RESULT:      -8.1      0.616      1.122
REMARK  Name = 
REMARK  9 active torsions:
REMARK  status: ('A' for Active; 'I' for Inactive)
REMARK    1  A    between atoms: C_2  and  O_3
REMARK    2  A    between atoms: C_2  and  C_4
REMARK    3  A    between atoms: C_4  and  C_5
REMARK    4  A    between atoms: C_5  and  C_6
REMARK    5  A    between atoms: C_5  and  N_13
REMARK    6  A    between atoms: C_6  and  C_7
REMARK    7  A    between atoms: C_14  and  C_16
REMARK    8  A    between atoms: N_20  and  S_21
REMARK    9  A    between atoms: S_21  and  C_24
REMARK                            x       y       z     vdW  Elec       q    Type
REMARK                         _______ _______ _______ _____ _____    ______ ____
ROOT
ATOM      1  N   UNL     1       3.918   5.253  19.765  0.00  0.00    +0.000 N 
ATOM      2  C   UNL     1       4.719   4.167  19.413  0.00  0.00    +0.000 C 
ATOM      3  O   UNL     1       4.359   3.016  19.647  0.00  0.00    +0.000 OA
ATOM      4  H   UNL     1       4.095   6.110  19.251  0.00  0.00    +0.000 HD
ENDROOT
BRANCH   2   5
ATOM      5  C   UNL     1       6.136   4.483  18.875  0.00  0.00    +0.000 C 
ATOM      6  C   UNL     1       6.794   5.700  19.539  0.00  0.00    +0.000 C 
ATOM      7  C   UNL     1       7.972   6.032  18.656  0.00  0.00    +0.000 C 
ATOM      8  C   UNL     1       7.449   5.758  17.266  0.00  0.00    +0.000 C 
ATOM      9  N   UNL     1       6.416   4.686  17.399  0.00  0.00    +0.000 NA
BRANCH   9  10
ATOM     10  S   UNL     1       5.110   4.814  16.305  0.00  0.00    +0.000 S 
ATOM     11  O   UNL     1       4.166   3.739  16.507  0.00  0.00    +0.000 OA
ATOM     12  O   UNL     1       4.713   6.203  16.271  0.00  0.00    +0.000 OA
BRANCH  10  13
ATOM     13  C   UNL     1       5.921   4.429  14.754  0.00  0.00    +0.000 A 
ATOM     14  C   UNL     1       7.077   5.141  14.420  0.00  0.00    +0.000 A 
ATOM     15  C   UNL     1       7.579   5.043  13.126  0.00  0.00    +0.000 A 
ATOM     16 CL   UNL     1       8.912   6.024  12.656  0.00  0.00    +0.000 Cl
ATOM     17  C   UNL     1       6.974   4.208  12.189  0.00  0.00    +0.000 A 
ATOM     18  C   UNL     1       5.868   3.443  12.564  0.00  0.00    +0.000 A 
ATOM     19 CL   UNL     1       5.128   2.405  11.407  0.00  0.00    +0.000 Cl
ATOM     20  C   UNL     1       5.328   3.548  13.845  0.00  0.00    +0.000 A 
ENDBRANCH  10  13
ENDBRANCH   9  10
ENDBRANCH   2   5
BRANCH   1  21
ATOM     21  C   UNL     1       2.510   5.128  20.205  0.00  0.00    +0.000 C 
BRANCH  21  22
ATOM     22  C   UNL     1       1.612   4.543  19.090  0.00  0.00    +0.000 C 
BRANCH  22  24
ATOM     23  O   UNL     1       0.896   2.767  20.549  0.00  0.00    +0.000 OA
ATOM     24  C   UNL     1       1.002   3.211  19.413  0.00  0.00    +0.000 C 
BRANCH  24  25
ATOM     25  O   UNL     1       0.675   2.495  18.315  0.00  0.00    +0.000 OA
ATOM     26  H   UNL     1      -0.224   2.115  18.315  0.00  0.00    +0.000 HD
ENDBRANCH  24  25
ENDBRANCH  22  24
ENDBRANCH  21  22
BRANCH  21  27
ATOM     27  C   UNL     1       1.853   6.437  20.746  0.00  0.00    +0.000 C 
BRANCH  27  28
ATOM     28  C   UNL     1       1.797   7.618  19.798  0.00  0.00    +0.000 A 
ATOM     29  C   UNL     1       2.404   7.595  18.534  0.00  0.00    +0.000 A 
ATOM     30  C   UNL     1       2.392   8.723  17.712  0.00  0.00    +0.000 A 
ATOM     31  C   UNL     1       1.712   9.868  18.112  0.00  0.00    +0.000 A 
ATOM     32  C   UNL     1       1.041   9.883  19.332  0.00  0.00    +0.000 A 
ATOM     33  C   UNL     1       1.090   8.769  20.171  0.00  0.00    +0.000 A 
ENDBRANCH  27  28
ENDBRANCH  21  27
ENDBRANCH   1  21
TORSDOF 9
ENDMDL
MODEL 6
REMARK VINA RESULT:      -7.9      0.625      1.977
REMARK  Name = 
REMARK  9 active torsions:
REMARK  status: ('A' for Active; 'I' for Inactive)
REMARK    1  A    between atoms: C_2  and  O_3
REMARK    2  A    between atoms: C_2  and  C_4
REMARK    3  A    between atoms: C_4  and  C_5
REMARK    4  A    between atoms: C_5  and  C_6
REMARK    5  A    between atoms: C_5  and  N_13
REMARK    6  A    between atoms: C_6  and  C_7
REMARK    7  A    between atoms: C_14  and  C_16
REMARK    8  A    between atoms: N_20  and  S_21
REMARK    9  A    between atoms: S_21  and  C_24
REMARK                            x       y       z     vdW  Elec       q    Type
REMARK                         _______ _______ _______ _____ _____    ______ ____
ROOT
ATOM      1  N   UNL     1       4.022   5.128  19.669  0.00  0.00    +0.000 N 
ATOM      2  C   UNL     1       4.950   4.115  19.428  0.00  0.00    +0.000 C 
ATOM      3  O   UNL     1       4.756   2.973  19.837  0.00  0.00    +0.000 OA
ATOM      4  H   UNL     1       4.065   5.918  19.035  0.00  0.00    +0.000 HD
ENDROOT
BRANCH   2   5
ATOM      5  C   UNL     1       6.292   4.529  18.777  0.00  0.00    +0.000 C 
ATOM      6  C   UNL     1       6.903   5.804  19.375  0.00  0.00    +0.000 C 
ATOM      7  C   UNL     1       7.980   6.210  18.399  0.00  0.00    +0.000 C 
ATOM      8  C   UNL     1       7.374   5.875  17.057  0.00  0.00    +0.000 C 
ATOM      9  N   UNL     1       6.441   4.729  17.282  0.00  0.00    +0.000 NA
BRANCH   9  10
ATOM     10  S   UNL     1       5.048   4.738  16.293  0.00  0.00    +0.000 S 
ATOM     11  O   UNL     1       4.306   3.507  16.441  0.00  0.00    +0.000 OA
ATOM     12  O   UNL     1       4.433   6.039  16.429  0.00  0.00    +0.000 OA
BRANCH  10  13
ATOM     13  C   UNL     1       5.783   4.640  14.661  0.00  0.00    +0.000 A 
ATOM     14  C   UNL     1       5.270   3.700  13.763  0.00  0.00    +0.000 A 
ATOM     15  C   UNL     1       5.974   3.430  12.593  0.00  0.00    +0.000 A 
ATOM     16 CL   UNL     1       5.436   2.172  11.549  0.00  0.00    +0.000 Cl
ATOM     17  C   UNL     1       7.144   4.124  12.291  0.00  0.00    +0.000 A 
ATOM     18  C   UNL     1       7.597   5.116  13.161  0.00  0.00    +0.000 A 
ATOM     19 CL   UNL     1       9.038   5.978  12.781  0.00  0.00    +0.000 Cl
ATOM     20  C   UNL     1       6.927   5.382  14.354  0.00  0.00    +0.000 A 
ENDBRANCH  10  13
ENDBRANCH   9  10
ENDBRANCH   2   5
BRANCH   1  21
ATOM     21  C   UNL     1       2.660   4.888  20.197  0.00  0.00    +0.000 C 
BRANCH  21  22
ATOM     22  C   UNL     1       1.754   4.204  19.148  0.00  0.00    +0.000 C 
BRANCH  22  24
ATOM     23  O   UNL     1       1.076   2.594  20.806  0.00  0.00    +0.000 OA
ATOM     24  C   UNL     1       0.998   3.012  19.657  0.00  0.00    +0.000 C 
BRANCH  24  25
ATOM     25  O   UNL     1       0.300   2.372  18.693  0.00  0.00    +0.000 OA
ATOM     26  H   UNL     1      -0.576   2.752  18.489  0.00  0.00    +0.000 HD
ENDBRANCH  24  25
ENDBRANCH  22  24
ENDBRANCH  21  22
BRANCH  21  27
ATOM     27  C   UNL     1       1.922   6.144  20.758  0.00  0.00    +0.000 C 
BRANCH  27  28
ATOM     28  C   UNL     1       1.850   7.357  19.851  0.00  0.00    +0.000 A 
ATOM     29  C   UNL     1       2.392   7.361  18.559  0.00  0.00    +0.000 A 
ATOM     30  C   UNL     1       2.369   8.516  17.775  0.00  0.00    +0.000 A 
ATOM     31  C   UNL     1       1.740   9.664  18.245  0.00  0.00    +0.000 A 
ATOM     32  C   UNL     1       1.132   9.655  19.497  0.00  0.00    +0.000 A 
ATOM     33  C   UNL     1       1.193   8.512  20.297  0.00  0.00    +0.000 A 
ENDBRANCH  27  28
ENDBRANCH  21  27
ENDBRANCH   1  21
TORSDOF 9
ENDMDL
MODEL 7
REMARK VINA RESULT:      -7.8      2.979      4.878
REMARK  Name = 
REMARK  9 active torsions:
REMARK  status: ('A' for Active; 'I' for Inactive)
REMARK    1  A    between atoms: C_2  and  O_3
REMARK    2  A    between atoms: C_2  and  C_4
REMARK    3  A    between atoms: C_4  and  C_5
REMARK    4  A    between atoms: C_5  and  C_6
REMARK    5  A    between atoms: C_5  and  N_13
REMARK    6  A    between atoms: C_6  and  C_7
REMARK    7  A    between atoms: C_14  and  C_16
REMARK    8  A    between atoms: N_20  and  S_21
REMARK    9  A    between atoms: S_21  and  C_24
REMARK                            x       y       z     vdW  Elec       q    Type
REMARK                         _______ _______ _______ _____ _____    ______ ____
ROOT
ATOM      1  N   UNL     1       1.632   6.592  19.734  0.00  0.00    +0.000 N 
ATOM      2  C   UNL     1       2.310   6.072  18.632  0.00  0.00    +0.000 C 
ATOM      3  O   UNL     1       2.946   6.807  17.880  0.00  0.00    +0.000 OA
ATOM      4  H   UNL     1       1.435   5.930  20.477  0.00  0.00    +0.000 HD
ENDROOT
BRANCH   2   5
ATOM      5  C   UNL     1       2.088   4.574  18.311  0.00  0.00    +0.000 C 
ATOM      6  C   UNL     1       0.859   3.968  19.002  0.00  0.00    +0.000 C 
ATOM      7  C   UNL     1       1.024   2.476  18.845  0.00  0.00    +0.000 C 
ATOM      8  C   UNL     1       2.513   2.275  19.001  0.00  0.00    +0.000 C 
ATOM      9  N   UNL     1       3.168   3.531  18.523  0.00  0.00    +0.000 NA
BRANCH   9  10
ATOM     10  S   UNL     1       4.594   3.956  19.363  0.00  0.00    +0.000 S 
ATOM     11  O   UNL     1       4.365   5.103  20.213  0.00  0.00    +0.000 OA
ATOM     12  O   UNL     1       5.186   2.731  19.852  0.00  0.00    +0.000 OA
BRANCH  10  13
ATOM     13  C   UNL     1       5.613   4.571  18.024  0.00  0.00    +0.000 A 
ATOM     14  C   UNL     1       6.404   5.699  18.261  0.00  0.00    +0.000 A 
ATOM     15  C   UNL     1       7.005   6.341  17.183  0.00  0.00    +0.000 A 
ATOM     16 CL   UNL     1       7.858   7.813  17.438  0.00  0.00    +0.000 Cl
ATOM     17  C   UNL     1       6.870   5.838  15.891  0.00  0.00    +0.000 A 
ATOM     18  C   UNL     1       6.144   4.664  15.683  0.00  0.00    +0.000 A 
ATOM     19 CL   UNL     1       5.987   4.040  14.087  0.00  0.00    +0.000 Cl
ATOM     20  C   UNL     1       5.507   4.022  16.743  0.00  0.00    +0.000 A 
ENDBRANCH  10  13
ENDBRANCH   9  10
ENDBRANCH   2   5
BRANCH   1  21
ATOM     21  C   UNL     1       1.807   7.976  20.230  0.00  0.00    +0.000 C 
BRANCH  21  22
ATOM     22  C   UNL     1       0.675   8.380  21.203  0.00  0.00    +0.000 C 
BRANCH  22  24
ATOM     23  O   UNL     1       0.385   9.982  22.978  0.00  0.00    +0.000 OA
ATOM     24  C   UNL     1       1.120   9.216  22.367  0.00  0.00    +0.000 C 
BRANCH  24  25
ATOM     25  O   UNL     1       2.446   9.125  22.612  0.00  0.00    +0.000 OA
ATOM     26  H   UNL     1       2.798   8.217  22.680  0.00  0.00    +0.000 HD
ENDBRANCH  24  25
ENDBRANCH  22  24
ENDBRANCH  21  22
BRANCH  21  27
ATOM     27  C   UNL     1       1.942   9.076  19.130  0.00  0.00    +0.000 C 
BRANCH  27  28
ATOM     28  C   UNL     1       0.708   9.907  18.838  0.00  0.00    +0.000 A 
ATOM     29  C   UNL     1       0.500  11.169  19.413  0.00  0.00    +0.000 A 
ATOM     30  C   UNL     1      -0.678  11.879  19.177  0.00  0.00    +0.000 A 
ATOM     31  C   UNL     1      -1.636  11.370  18.306  0.00  0.00    +0.000 A 
ATOM     32  C   UNL     1      -1.412  10.152  17.670  0.00  0.00    +0.000 A 
ATOM     33  C   UNL     1      -0.253   9.423  17.940  0.00  0.00    +0.000 A 
ENDBRANCH  27  28
ENDBRANCH  21  27
ENDBRANCH   1  21
TORSDOF 9
ENDMDL
MODEL 8
REMARK VINA RESULT:      -7.7      2.596      4.609
REMARK  Name = 
REMARK  9 active torsions:
REMARK  status: ('A' for Active; 'I' for Inactive)
REMARK    1  A    between atoms: C_2  and  O_3
REMARK    2  A    between atoms: C_2  and  C_4
REMARK    3  A    between atoms: C_4  and  C_5
REMARK    4  A    between atoms: C_5  and  C_6
REMARK    5  A    between atoms: C_5  and  N_13
REMARK    6  A    between atoms: C_6  and  C_7
REMARK    7  A    between atoms: C_14  and  C_16
REMARK    8  A    between atoms: N_20  and  S_21
REMARK    9  A    between atoms: S_21  and  C_24
REMARK                            x       y       z     vdW  Elec       q    Type
REMARK                         _______ _______ _______ _____ _____    ______ ____
ROOT
ATOM      1  N   UNL     1       1.947   6.717  18.538  0.00  0.00    +0.000 N 
ATOM      2  C   UNL     1       2.767   5.915  17.746  0.00  0.00    +0.000 C 
ATOM      3  O   UNL     1       3.610   6.414  17.005  0.00  0.00    +0.000 OA
ATOM      4  H   UNL     1       1.541   6.261  19.349  0.00  0.00    +0.000 HD
ENDROOT
BRANCH   2   5
ATOM      5  C   UNL     1       2.456   4.398  17.720  0.00  0.00    +0.000 C 
ATOM      6  C   UNL     1       1.059   4.044  18.250  0.00  0.00    +0.000 C 
ATOM      7  C   UNL     1       1.095   2.550  18.460  0.00  0.00    +0.000 C 
ATOM      8  C   UNL     1       2.496   2.305  18.968  0.00  0.00    +0.000 C 
ATOM      9  N   UNL     1       3.359   3.374  18.378  0.00  0.00    +0.000 NA
BRANCH   9  10
ATOM     10  S   UNL     1       4.632   3.901  19.388  0.00  0.00    +0.000 S 
ATOM     11  O   UNL     1       4.228   5.052  20.163  0.00  0.00    +0.000 OA
ATOM     12  O   UNL     1       5.219   2.725  19.989  0.00  0.00    +0.000 OA
BRANCH  10  13
ATOM     13  C   UNL     1       5.788   4.543  18.178  0.00  0.00    +0.000 A 
ATOM     14  C   UNL     1       6.505   5.699  18.501  0.00  0.00    +0.000 A 
ATOM     15  C   UNL     1       7.213   6.355  17.499  0.00  0.00    +0.000 A 
ATOM     16 CL   UNL     1       7.978   7.858  17.843  0.00  0.00    +0.000 Cl
ATOM     17  C   UNL     1       7.257   5.841  16.204  0.00  0.00    +0.000 A 
ATOM     18  C   UNL     1       6.602   4.641  15.920  0.00  0.00    +0.000 A 
ATOM     19 CL   UNL     1       6.664   4.003  14.323  0.00  0.00    +0.000 Cl
ATOM     20  C   UNL     1       5.859   3.984  16.899  0.00  0.00    +0.000 A 
ENDBRANCH  10  13
ENDBRANCH   9  10
ENDBRANCH   2   5
BRANCH   1  21
ATOM     21  C   UNL     1       2.166   8.166  18.746  0.00  0.00    +0.000 C 
BRANCH  21  22
ATOM     22  C   UNL     1       1.947   8.571  20.222  0.00  0.00    +0.000 C 
BRANCH  22  24
ATOM     23  O   UNL     1      -0.002   7.876  21.453  0.00  0.00    +0.000 OA
ATOM     24  C   UNL     1       1.111   7.612  21.017  0.00  0.00    +0.000 C 
BRANCH  24  25
ATOM     25  O   UNL     1       1.752   6.457  21.301  0.00  0.00    +0.000 OA
ATOM     26  H   UNL     1       2.390   6.155  20.627  0.00  0.00    +0.000 HD
ENDBRANCH  24  25
ENDBRANCH  22  24
ENDBRANCH  21  22
BRANCH  21  27
ATOM     27  C   UNL     1       1.325   9.115  17.834  0.00  0.00    +0.000 C 
BRANCH  27  28
ATOM     28  C   UNL     1       0.667  10.304  18.505  0.00  0.00    +0.000 A 
ATOM     29  C   UNL     1      -0.666  10.277  18.940  0.00  0.00    +0.000 A 
ATOM     30  C   UNL     1      -1.263  11.411  19.492  0.00  0.00    +0.000 A 
ATOM     31  C   UNL     1      -0.516  12.569  19.683  0.00  0.00    +0.000 A 
ATOM     32  C   UNL     1       0.829  12.589  19.324  0.00  0.00    +0.000 A 
ATOM     33  C   UNL     1       1.414  11.468  18.733  0.00  0.00    +0.000 A 
ENDBRANCH  27  28
ENDBRANCH  21  27
ENDBRANCH   1  21
TORSDOF 9
ENDMDL
MODEL 9
REMARK VINA RESULT:      -7.7      3.585      7.837
REMARK  Name = 
REMARK  9 active torsions:
REMARK  status: ('A' for Active; 'I' for Inactive)
REMARK    1  A    between atoms: C_2  and  O_3
REMARK    2  A    between atoms: C_2  and  C_4
REMARK    3  A    between atoms: C_4  and  C_5
REMARK    4  A    between atoms: C_5  and  C_6
REMARK    5  A    between atoms: C_5  and  N_13
REMARK    6  A    between atoms: C_6  and  C_7
REMARK    7  A    between atoms: C_14  and  C_16
REMARK    8  A    between atoms: N_20  and  S_21
REMARK    9  A    between atoms: S_21  and  C_24
REMARK                            x       y       z     vdW  Elec       q    Type
REMARK                         _______ _______ _______ _____ _____    ______ ____
ROOT
ATOM      1  N   UNL     1       4.346   4.185  17.788  0.00  0.00    +0.000 N 
ATOM      2  C   UNL     1       4.503   3.741  19.100  0.00  0.00    +0.000 C 
ATOM      3  O   UNL     1       5.489   3.086  19.430  0.00  0.00    +0.000 OA
ATOM      4  H   UNL     1       3.727   4.980  17.668  0.00  0.00    +0.000 HD
ENDROOT
BRANCH   2   5
ATOM      5  C   UNL     1       3.314   3.964  20.066  0.00  0.00    +0.000 C 
ATOM      6  C   UNL     1       2.236   2.874  19.986  0.00  0.00    +0.000 C 
ATOM      7  C   UNL     1       1.051   3.448  20.721  0.00  0.00    +0.000 C 
ATOM      8  C   UNL     1       1.085   4.910  20.343  0.00  0.00    +0.000 C 
ATOM      9  N   UNL     1       2.517   5.254  20.087  0.00  0.00    +0.000 NA
BRANCH   9  10
ATOM     10  S   UNL     1       2.762   6.413  18.856  0.00  0.00    +0.000 S 
ATOM     11  O   UNL     1       4.142   6.844  18.827  0.00  0.00    +0.000 OA
ATOM     12  O   UNL     1       2.068   5.944  17.679  0.00  0.00    +0.000 OA
BRANCH  10  13
ATOM     13  C   UNL     1       1.857   7.813  19.515  0.00  0.00    +0.000 A 
ATOM     14  C   UNL     1       1.628   8.905  18.674  0.00  0.00    +0.000 A 
ATOM     15  C   UNL     1       1.155  10.093  19.223  0.00  0.00    +0.000 A 
ATOM     16 CL   UNL     1       1.009  11.490  18.230  0.00  0.00    +0.000 Cl
ATOM     17  C   UNL     1       0.859  10.179  20.582  0.00  0.00    +0.000 A 
ATOM     18  C   UNL     1       1.017   9.054  21.392  0.00  0.00    +0.000 A 
ATOM     19 CL   UNL     1       0.643   9.161  23.069  0.00  0.00    +0.000 Cl
ATOM     20  C   UNL     1       1.520   7.863  20.871  0.00  0.00    +0.000 A 
ENDBRANCH  10  13
ENDBRANCH   9  10
ENDBRANCH   2   5
BRANCH   1  21
ATOM     21  C   UNL     1       5.417   4.133  16.768  0.00  0.00    +0.000 C 
BRANCH  21  22
ATOM     22  C   UNL     1       6.808   4.411  17.384  0.00  0.00    +0.000 C 
BRANCH  22  24
ATOM     23  O   UNL     1       7.644   6.591  16.795  0.00  0.00    +0.000 OA
ATOM     24  C   UNL     1       7.108   5.862  17.621  0.00  0.00    +0.000 C 
BRANCH  24  25
ATOM     25  O   UNL     1       6.829   6.266  18.879  0.00  0.00    +0.000 OA
ATOM     26  H   UNL     1       7.565   6.189  19.516  0.00  0.00    +0.000 HD
ENDBRANCH  24  25
ENDBRANCH  22  24
ENDBRANCH  21  22
BRANCH  21  27
ATOM     27  C   UNL     1       5.219   5.065  15.531  0.00  0.00    +0.000 C 
BRANCH  27  28
ATOM     28  C   UNL     1       5.814   4.597  14.218  0.00  0.00    +0.000 A 
ATOM     29  C   UNL     1       5.152   3.695  13.373  0.00  0.00    +0.000 A 
ATOM     30  C   UNL     1       5.758   3.231  12.204  0.00  0.00    +0.000 A 
ATOM     31  C   UNL     1       7.005   3.716  11.826  0.00  0.00    +0.000 A 
ATOM     32  C   UNL     1       7.645   4.668  12.617  0.00  0.00    +0.000 A 
ATOM     33  C   UNL     1       7.057   5.099  13.807  0.00  0.00    +0.000 A 
ENDBRANCH  27  28
ENDBRANCH  21  27
ENDBRANCH   1  21
TORSDOF 9
ENDMDL
