MODEL 1
REMARK VINA RESULT:      -8.2      0.000      0.000
REMARK  Name = 
REMARK  11 active torsions:
REMARK  status: ('A' for Active; 'I' for Inactive)
REMARK    1  A    between atoms: C_2  and  O_3
REMARK    2  A    between atoms: C_2  and  O_10
REMARK    3  A    between atoms: O_3  and  C_4
REMARK    4  A    between atoms: O_10  and  C_11
REMARK    5  A    between atoms: C_14  and  C_15
REMARK    6  A    between atoms: C_18  and  O_19
REMARK    7  A    between atoms: N_23  and  C_24
REMARK    8  A    between atoms: C_24  and  O_25
REMARK    9  A    between atoms: O_25  and  C_26
REMARK   10  A    between atoms: C_26  and  C_27
REMARK   11  A    between atoms: C_27  and  O_28
REMARK                            x       y       z     vdW  Elec       q    Type
REMARK                         _______ _______ _______ _____ _____    ______ ____
ROOT
ATOM      1  C   UNL     1       1.126   9.360  19.101  0.00  0.00    +0.000 A 
ATOM      2  C   UNL     1       0.631  10.382  18.310  0.00  0.00    +0.000 A 
ATOM      3  N   UNL     1      -0.258  11.084  19.124  0.00  0.00    +0.000 N 
ATOM      4  C   UNL     1      -1.036  12.244  18.905  0.00  0.00    +0.000 A 
ATOM      5  C   UNL     1      -1.762  12.693  19.942  0.00  0.00    +0.000 A 
ATOM      6  N   UNL     1      -2.614  13.782  20.135  0.00  0.00    +0.000 NA
ATOM      7  C   UNL     1      -3.010  13.656  21.384  0.00  0.00    +0.000 A 
ATOM      8  N   UNL     1      -2.516  12.570  22.054  0.00  0.00    +0.000 N 
ATOM      9  C   UNL     1      -1.689  11.891  21.212  0.00  0.00    +0.000 A 
ATOM     10  N   UNL     1      -1.006  10.825  21.420  0.00  0.00    +0.000 NA
ATOM     11  C   UNL     1      -0.261  10.421  20.359  0.00  0.00    +0.000 A 
ATOM     12  N   UNL     1       0.550   9.401  20.342  0.00  0.00    +0.000 NA
ENDROOT
BRANCH   1  16
ATOM     13  C   UNL     1       3.790   6.080  18.466  0.00  0.00    +0.000 A 
ATOM     14  C   UNL     1       3.688   7.071  17.477  0.00  0.00    +0.000 A 
ATOM     15  C   UNL     1       2.845   8.184  17.659  0.00  0.00    +0.000 A 
ATOM     16  C   UNL     1       2.095   8.301  18.830  0.00  0.00    +0.000 A 
ATOM     17  C   UNL     1       2.243   7.298  19.817  0.00  0.00    +0.000 A 
ATOM     18  C   UNL     1       3.072   6.188  19.644  0.00  0.00    +0.000 A 
BRANCH  13  19
ATOM     19  O   UNL     1       4.551   4.921  18.128  0.00  0.00    +0.000 OA
BRANCH  19  21
ATOM     20  O   UNL     1       5.074   3.812  16.178  0.00  0.00    +0.000 OA
ATOM     21  C   UNL     1       4.368   3.890  17.177  0.00  0.00    +0.000 C 
BRANCH  21  22
ATOM     22  O   UNL     1       3.373   2.991  17.552  0.00  0.00    +0.000 OA
BRANCH  22  23
ATOM     23  C   UNL     1       2.788   2.962  18.845  0.00  0.00    +0.000 A 
ATOM     24  C   UNL     1       1.409   3.181  18.883  0.00  0.00    +0.000 A 
ATOM     25  C   UNL     1       0.713   3.067  20.090  0.00  0.00    +0.000 A 
ATOM     26  C   UNL     1       1.401   2.736  21.262  0.00  0.00    +0.000 A 
ATOM     27  C   UNL     1       2.781   2.536  21.225  0.00  0.00    +0.000 A 
ATOM     28  C   UNL     1       3.481   2.647  20.017  0.00  0.00    +0.000 A 
ENDBRANCH  22  23
ENDBRANCH  21  22
ENDBRANCH  19  21
ENDBRANCH  13  19
ENDBRANCH   1  16
BRANCH   4  29
ATOM     29  O   UNL     1      -1.053  12.908  17.686  0.00  0.00    +0.000 OA
ATOM     30  H   UNL     1      -0.266  12.677  17.172  0.00  0.00    +0.000 HD
ENDBRANCH   4  29
BRANCH   8  31
ATOM     31  C   UNL     1      -2.732  12.196  23.420  0.00  0.00    +0.000 C 
BRANCH  31  32
ATOM     32  O   UNL     1      -3.685  13.038  24.068  0.00  0.00    +0.000 OA
BRANCH  32  33
ATOM     33  C   UNL     1      -4.749  12.287  24.674  0.00  0.00    +0.000 C 
BRANCH  33  34
ATOM     34  C   UNL     1      -6.062  12.801  24.097  0.00  0.00    +0.000 C 
BRANCH  34  35
ATOM     35  O   UNL     1      -7.024  11.748  24.084  0.00  0.00    +0.000 OA
ATOM     36  H   UNL     1      -6.935  11.310  24.953  0.00  0.00    +0.000 HD
ENDBRANCH  34  35
ENDBRANCH  33  34
ENDBRANCH  32  33
ENDBRANCH  31  32
ENDBRANCH   8  31
TORSDOF 11
ENDMDL
MODEL 2
REMARK VINA RESULT:      -8.1      1.718      2.500
REMARK  Name = 
REMARK  11 active torsions:
REMARK  status: ('A' for Active; 'I' for Inactive)
REMARK    1  A    between atoms: C_2  and  O_3
REMARK    2  A    between atoms: C_2  and  O_10
REMARK    3  A    between atoms: O_3  and  C_4
REMARK    4  A    between atoms: O_10  and  C_11
REMARK    5  A    between atoms: C_14  and  C_15
REMARK    6  A    between atoms: C_18  and  O_19
REMARK    7  A    between atoms: N_23  and  C_24
REMARK    8  A    between atoms: C_24  and  O_25
REMARK    9  A    between atoms: O_25  and  C_26
REMARK   10  A    between atoms: C_26  and  C_27
REMARK   11  A    between atoms: C_27  and  O_28
REMARK                            x       y       z     vdW  Elec       q    Type
REMARK                         _______ _______ _______ _____ _____    ______ ____
ROOT
ATOM      1  C   UNL     1       0.660  10.405  20.614  0.00  0.00    +0.000 A 
ATOM      2  C   UNL     1       1.067  11.720  20.742  0.00  0.00    +0.000 A 
ATOM      3  N   UNL     1       0.111  12.329  21.555  0.00  0.00    +0.000 N 
ATOM      4  C   UNL     1      -0.003  13.637  22.077  0.00  0.00    +0.000 A 
ATOM      5  C   UNL     1      -1.047  13.882  22.885  0.00  0.00    +0.000 A 
ATOM      6  N   UNL     1      -1.488  14.998  23.597  0.00  0.00    +0.000 NA
ATOM      7  C   UNL     1      -2.581  14.579  24.199  0.00  0.00    +0.000 A 
ATOM      8  N   UNL     1      -2.933  13.281  23.947  0.00  0.00    +0.000 N 
ATOM      9  C   UNL     1      -1.998  12.740  23.118  0.00  0.00    +0.000 A 
ATOM     10  N   UNL     1      -1.922  11.553  22.636  0.00  0.00    +0.000 NA
ATOM     11  C   UNL     1      -0.836  11.337  21.850  0.00  0.00    +0.000 A 
ATOM     12  N   UNL     1      -0.515  10.205  21.289  0.00  0.00    +0.000 NA
ENDROOT
BRANCH   1  16
ATOM     13  C   UNL     1       2.496   7.278  18.353  0.00  0.00    +0.000 A 
ATOM     14  C   UNL     1       2.252   7.072  19.720  0.00  0.00    +0.000 A 
ATOM     15  C   UNL     1       1.622   8.064  20.495  0.00  0.00    +0.000 A 
ATOM     16  C   UNL     1       1.243   9.269  19.903  0.00  0.00    +0.000 A 
ATOM     17  C   UNL     1       1.480   9.432  18.517  0.00  0.00    +0.000 A 
ATOM     18  C   UNL     1       2.108   8.457  17.741  0.00  0.00    +0.000 A 
BRANCH  13  19
ATOM     19  O   UNL     1       3.270   6.281  17.688  0.00  0.00    +0.000 OA
BRANCH  19  21
ATOM     20  O   UNL     1       5.437   5.942  18.393  0.00  0.00    +0.000 OA
ATOM     21  C   UNL     1       4.348   5.463  18.099  0.00  0.00    +0.000 C 
BRANCH  21  22
ATOM     22  O   UNL     1       3.993   4.118  18.181  0.00  0.00    +0.000 OA
BRANCH  22  23
ATOM     23  C   UNL     1       2.982   3.625  19.045  0.00  0.00    +0.000 A 
ATOM     24  C   UNL     1       3.372   3.428  20.372  0.00  0.00    +0.000 A 
ATOM     25  C   UNL     1       2.429   3.049  21.333  0.00  0.00    +0.000 A 
ATOM     26  C   UNL     1       1.093   2.864  20.962  0.00  0.00    +0.000 A 
ATOM     27  C   UNL     1       0.710   3.043  19.633  0.00  0.00    +0.000 A 
ATOM     28  C   UNL     1       1.651   3.425  18.669  0.00  0.00    +0.000 A 
ENDBRANCH  22  23
ENDBRANCH  21  22
ENDBRANCH  19  21
ENDBRANCH  13  19
ENDBRANCH   1  16
BRANCH   4  29
ATOM     29  O   UNL     1       0.919  14.634  21.789  0.00  0.00    +0.000 OA
ATOM     30  H   UNL     1       1.582  14.303  21.166  0.00  0.00    +0.000 HD
ENDBRANCH   4  29
BRANCH   8  31
ATOM     31  C   UNL     1      -4.036  12.540  24.484  0.00  0.00    +0.000 C 
BRANCH  31  32
ATOM     32  O   UNL     1      -4.997  12.199  23.486  0.00  0.00    +0.000 OA
BRANCH  32  33
ATOM     33  C   UNL     1      -5.898  13.283  23.208  0.00  0.00    +0.000 C 
BRANCH  33  34
ATOM     34  C   UNL     1      -6.823  12.835  22.083  0.00  0.00    +0.000 C 
BRANCH  34  35
ATOM     35  O   UNL     1      -6.217  11.764  21.362  0.00  0.00    +0.000 OA
ATOM     36  H   UNL     1      -6.250  10.998  21.967  0.00  0.00    +0.000 HD
ENDBRANCH  34  35
ENDBRANCH  33  34
ENDBRANCH  32  33
ENDBRANCH  31  32
ENDBRANCH   8  31
TORSDOF 11
ENDMDL
MODEL 3
REMARK VINA RESULT:      -8.1      1.064      1.630
REMARK  Name = 
REMARK  11 active torsions:
REMARK  status: ('A' for Active; 'I' for Inactive)
REMARK    1  A    between atoms: C_2  and  O_3
REMARK    2  A    between atoms: C_2  and  O_10
REMARK    3  A    between atoms: O_3  and  C_4
REMARK    4  A    between atoms: O_10  and  C_11
REMARK    5  A    between atoms: C_14  and  C_15
REMARK    6  A    between atoms: C_18  and  O_19
REMARK    7  A    between atoms: N_23  and  C_24
REMARK    8  A    between atoms: C_24  and  O_25
REMARK    9  A    between atoms: O_25  and  C_26
REMARK   10  A    between atoms: C_26  and  C_27
REMARK   11  A    between atoms: C_27  and  O_28
REMARK                            x       y       z     vdW  Elec       q    Type
REMARK                         _______ _______ _______ _____ _____    ______ ____
ROOT
ATOM      1  C   UNL     1       1.092   9.717  19.356  0.00  0.00    +0.000 A 
ATOM      2  C   UNL     1       0.616  10.673  18.477  0.00  0.00    +0.000 A 
ATOM      3  N   UNL     1       0.012  11.645  19.275  0.00  0.00    +0.000 N 
ATOM      4  C   UNL     1      -0.611  12.876  18.970  0.00  0.00    +0.000 A 
ATOM      5  C   UNL     1      -1.052  13.608  20.006  0.00  0.00    +0.000 A 
ATOM      6  N   UNL     1      -1.679  14.849  20.124  0.00  0.00    +0.000 NA
ATOM      7  C   UNL     1      -1.847  14.997  21.421  0.00  0.00    +0.000 A 
ATOM      8  N   UNL     1      -1.404  13.959  22.196  0.00  0.00    +0.000 N 
ATOM      9  C   UNL     1      -0.862  13.017  21.375  0.00  0.00    +0.000 A 
ATOM     10  N   UNL     1      -0.319  11.892  21.669  0.00  0.00    +0.000 NA
ATOM     11  C   UNL     1       0.143  11.197  20.598  0.00  0.00    +0.000 A 
ATOM     12  N   UNL     1       0.774  10.057  20.643  0.00  0.00    +0.000 NA
ENDROOT
BRANCH   1  16
ATOM     13  C   UNL     1       3.420   6.225  18.552  0.00  0.00    +0.000 A 
ATOM     14  C   UNL     1       2.735   6.316  19.773  0.00  0.00    +0.000 A 
ATOM     15  C   UNL     1       1.933   7.435  20.066  0.00  0.00    +0.000 A 
ATOM     16  C   UNL     1       1.823   8.471  19.137  0.00  0.00    +0.000 A 
ATOM     17  C   UNL     1       2.506   8.334  17.905  0.00  0.00    +0.000 A 
ATOM     18  C   UNL     1       3.308   7.231  17.608  0.00  0.00    +0.000 A 
BRANCH  13  19
ATOM     19  O   UNL     1       4.323   5.130  18.409  0.00  0.00    +0.000 OA
BRANCH  19  21
ATOM     20  O   UNL     1       5.067   4.277  16.403  0.00  0.00    +0.000 OA
ATOM     21  C   UNL     1       4.450   4.101  17.446  0.00  0.00    +0.000 C 
BRANCH  21  22
ATOM     22  O   UNL     1       3.862   2.909  17.863  0.00  0.00    +0.000 OA
BRANCH  22  23
ATOM     23  C   UNL     1       2.931   2.824  18.930  0.00  0.00    +0.000 A 
ATOM     24  C   UNL     1       3.489   2.654  20.199  0.00  0.00    +0.000 A 
ATOM     25  C   UNL     1       2.672   2.667  21.334  0.00  0.00    +0.000 A 
ATOM     26  C   UNL     1       1.292   2.847  21.196  0.00  0.00    +0.000 A 
ATOM     27  C   UNL     1       0.734   2.998  19.926  0.00  0.00    +0.000 A 
ATOM     28  C   UNL     1       1.551   2.988  18.788  0.00  0.00    +0.000 A 
ENDBRANCH  22  23
ENDBRANCH  21  22
ENDBRANCH  19  21
ENDBRANCH  13  19
ENDBRANCH   1  16
BRANCH   4  29
ATOM     29  O   UNL     1      -0.757  13.331  17.666  0.00  0.00    +0.000 OA
ATOM     30  H   UNL     1      -1.337  14.106  17.649  0.00  0.00    +0.000 HD
ENDBRANCH   4  29
BRANCH   8  31
ATOM     31  C   UNL     1      -1.411  13.851  23.624  0.00  0.00    +0.000 C 
BRANCH  31  32
ATOM     32  O   UNL     1      -2.617  14.354  24.199  0.00  0.00    +0.000 OA
BRANCH  32  33
ATOM     33  C   UNL     1      -3.783  13.706  23.668  0.00  0.00    +0.000 C 
BRANCH  33  34
ATOM     34  C   UNL     1      -3.923  12.360  24.369  0.00  0.00    +0.000 C 
BRANCH  34  35
ATOM     35  O   UNL     1      -4.558  12.543  25.633  0.00  0.00    +0.000 OA
ATOM     36  H   UNL     1      -4.266  13.423  25.940  0.00  0.00    +0.000 HD
ENDBRANCH  34  35
ENDBRANCH  33  34
ENDBRANCH  32  33
ENDBRANCH  31  32
ENDBRANCH   8  31
TORSDOF 11
ENDMDL
MODEL 4
REMARK VINA RESULT:      -8.0      2.064      2.687
REMARK  Name = 
REMARK  11 active torsions:
REMARK  status: ('A' for Active; 'I' for Inactive)
REMARK    1  A    between atoms: C_2  and  O_3
REMARK    2  A    between atoms: C_2  and  O_10
REMARK    3  A    between atoms: O_3  and  C_4
REMARK    4  A    between atoms: O_10  and  C_11
REMARK    5  A    between atoms: C_14  and  C_15
REMARK    6  A    between atoms: C_18  and  O_19
REMARK    7  A    between atoms: N_23  and  C_24
REMARK    8  A    between atoms: C_24  and  O_25
REMARK    9  A    between atoms: O_25  and  C_26
REMARK   10  A    between atoms: C_26  and  C_27
REMARK   11  A    between atoms: C_27  and  O_28
REMARK                            x       y       z     vdW  Elec       q    Type
REMARK                         _______ _______ _______ _____ _____    ______ ____
ROOT
ATOM      1  C   UNL     1       1.051   9.265  19.403  0.00  0.00    +0.000 A 
ATOM      2  C   UNL     1       0.989  10.144  20.469  0.00  0.00    +0.000 A 
ATOM      3  N   UNL     1      -0.213  10.834  20.313  0.00  0.00    +0.000 N 
ATOM      4  C   UNL     1      -0.854  11.821  21.096  0.00  0.00    +0.000 A 
ATOM      5  C   UNL     1      -2.056  12.247  20.673  0.00  0.00    +0.000 A 
ATOM      6  N   UNL     1      -2.992  13.161  21.159  0.00  0.00    +0.000 NA
ATOM      7  C   UNL     1      -3.966  13.117  20.276  0.00  0.00    +0.000 A 
ATOM      8  N   UNL     1      -3.770  12.267  19.222  0.00  0.00    +0.000 N 
ATOM      9  C   UNL     1      -2.569  11.647  19.393  0.00  0.00    +0.000 A 
ATOM     10  N   UNL     1      -1.992  10.767  18.659  0.00  0.00    +0.000 NA
ATOM     11  C   UNL     1      -0.795  10.340  19.136  0.00  0.00    +0.000 A 
ATOM     12  N   UNL     1      -0.045   9.419  18.597  0.00  0.00    +0.000 NA
ENDROOT
BRANCH   1  16
ATOM     13  C   UNL     1       3.814   6.155  18.425  0.00  0.00    +0.000 A 
ATOM     14  C   UNL     1       3.640   7.215  17.522  0.00  0.00    +0.000 A 
ATOM     15  C   UNL     1       2.763   8.276  17.818  0.00  0.00    +0.000 A 
ATOM     16  C   UNL     1       2.050   8.270  19.018  0.00  0.00    +0.000 A 
ATOM     17  C   UNL     1       2.271   7.200  19.917  0.00  0.00    +0.000 A 
ATOM     18  C   UNL     1       3.134   6.142  19.631  0.00  0.00    +0.000 A 
BRANCH  13  19
ATOM     19  O   UNL     1       4.606   5.058  17.972  0.00  0.00    +0.000 OA
BRANCH  19  21
ATOM     20  O   UNL     1       4.435   4.053  15.907  0.00  0.00    +0.000 OA
ATOM     21  C   UNL     1       4.337   3.958  17.124  0.00  0.00    +0.000 C 
BRANCH  21  22
ATOM     22  O   UNL     1       4.027   2.802  17.837  0.00  0.00    +0.000 OA
BRANCH  22  23
ATOM     23  C   UNL     1       3.041   2.749  18.856  0.00  0.00    +0.000 A 
ATOM     24  C   UNL     1       3.531   2.621  20.157  0.00  0.00    +0.000 A 
ATOM     25  C   UNL     1       2.655   2.668  21.246  0.00  0.00    +0.000 A 
ATOM     26  C   UNL     1       1.284   2.840  21.030  0.00  0.00    +0.000 A 
ATOM     27  C   UNL     1       0.795   2.949  19.728  0.00  0.00    +0.000 A 
ATOM     28  C   UNL     1       1.670   2.904  18.635  0.00  0.00    +0.000 A 
ENDBRANCH  22  23
ENDBRANCH  21  22
ENDBRANCH  19  21
ENDBRANCH  13  19
ENDBRANCH   1  16
BRANCH   4  29
ATOM     29  O   UNL     1      -0.290  12.329  22.258  0.00  0.00    +0.000 OA
ATOM     30  H   UNL     1      -0.727  11.947  23.033  0.00  0.00    +0.000 HD
ENDBRANCH   4  29
BRANCH   8  31
ATOM     31  C   UNL     1      -4.660  11.977  18.137  0.00  0.00    +0.000 C 
BRANCH  31  32
ATOM     32  O   UNL     1      -5.520  10.874  18.421  0.00  0.00    +0.000 OA
BRANCH  32  33
ATOM     33  C   UNL     1      -6.908  11.231  18.331  0.00  0.00    +0.000 C 
BRANCH  33  34
ATOM     34  C   UNL     1      -7.398  11.534  19.741  0.00  0.00    +0.000 C 
BRANCH  34  35
ATOM     35  O   UNL     1      -7.452  10.327  20.499  0.00  0.00    +0.000 OA
ATOM     36  H   UNL     1      -7.958  10.553  21.303  0.00  0.00    +0.000 HD
ENDBRANCH  34  35
ENDBRANCH  33  34
ENDBRANCH  32  33
ENDBRANCH  31  32
ENDBRANCH   8  31
TORSDOF 11
ENDMDL
MODEL 5
REMARK VINA RESULT:      -8.0      1.248      1.599
REMARK  Name = 
REMARK  11 active torsions:
REMARK  status: ('A' for Active; 'I' for Inactive)
REMARK    1  A    between atoms: C_2  and  O_3
REMARK    2  A    between atoms: C_2  and  O_10
REMARK    3  A    between atoms: O_3  and  C_4
REMARK    4  A    between atoms: O_10  and  C_11
REMARK    5  A    between atoms: C_14  and  C_15
REMARK    6  A    between atoms: C_18  and  O_19
REMARK    7  A    between atoms: N_23  and  C_24
REMARK    8  A    between atoms: C_24  and  O_25
REMARK    9  A    between atoms: O_25  and  C_26
REMARK   10  A    between atoms: C_26  and  C_27
REMARK   11  A    between atoms: C_27  and  O_28
REMARK                            x       y       z     vdW  Elec       q    Type
REMARK                         _______ _______ _______ _____ _____    ______ ____
ROOT
ATOM      1  C   UNL     1       1.097   9.291  19.037  0.00  0.00    +0.000 A 
ATOM      2  C   UNL     1       0.429  10.139  18.172  0.00  0.00    +0.000 A 
ATOM      3  N   UNL     1      -0.373  10.942  18.984  0.00  0.00    +0.000 N 
ATOM      4  C   UNL     1      -1.245  12.016  18.697  0.00  0.00    +0.000 A 
ATOM      5  C   UNL     1      -1.837  12.616  19.743  0.00  0.00    +0.000 A 
ATOM      6  N   UNL     1      -2.717  13.690  19.881  0.00  0.00    +0.000 NA
ATOM      7  C   UNL     1      -2.916  13.773  21.179  0.00  0.00    +0.000 A 
ATOM      8  N   UNL     1      -2.262  12.840  21.937  0.00  0.00    +0.000 N 
ATOM      9  C   UNL     1      -1.527  12.053  21.103  0.00  0.00    +0.000 A 
ATOM     10  N   UNL     1      -0.756  11.066  21.380  0.00  0.00    +0.000 NA
ATOM     11  C   UNL     1      -0.153  10.508  20.299  0.00  0.00    +0.000 A 
ATOM     12  N   UNL     1       0.709   9.530  20.328  0.00  0.00    +0.000 NA
ENDROOT
BRANCH   1  16
ATOM     13  C   UNL     1       3.793   6.021  18.494  0.00  0.00    +0.000 A 
ATOM     14  C   UNL     1       3.735   7.021  17.510  0.00  0.00    +0.000 A 
ATOM     15  C   UNL     1       2.882   8.131  17.664  0.00  0.00    +0.000 A 
ATOM     16  C   UNL     1       2.080   8.236  18.800  0.00  0.00    +0.000 A 
ATOM     17  C   UNL     1       2.185   7.224  19.784  0.00  0.00    +0.000 A 
ATOM     18  C   UNL     1       3.022   6.117  19.639  0.00  0.00    +0.000 A 
BRANCH  13  19
ATOM     19  O   UNL     1       4.571   4.866  18.180  0.00  0.00    +0.000 OA
BRANCH  19  21
ATOM     20  O   UNL     1       4.733   3.950  16.073  0.00  0.00    +0.000 OA
ATOM     21  C   UNL     1       4.407   3.816  17.246  0.00  0.00    +0.000 C 
BRANCH  21  22
ATOM     22  O   UNL     1       3.912   2.655  17.835  0.00  0.00    +0.000 OA
BRANCH  22  23
ATOM     23  C   UNL     1       2.958   2.652  18.885  0.00  0.00    +0.000 A 
ATOM     24  C   UNL     1       3.486   2.523  20.172  0.00  0.00    +0.000 A 
ATOM     25  C   UNL     1       2.648   2.617  21.288  0.00  0.00    +0.000 A 
ATOM     26  C   UNL     1       1.279   2.839  21.114  0.00  0.00    +0.000 A 
ATOM     27  C   UNL     1       0.751   2.949  19.827  0.00  0.00    +0.000 A 
ATOM     28  C   UNL     1       1.588   2.858  18.707  0.00  0.00    +0.000 A 
ENDBRANCH  22  23
ENDBRANCH  21  22
ENDBRANCH  19  21
ENDBRANCH  13  19
ENDBRANCH   1  16
BRANCH   4  29
ATOM     29  O   UNL     1      -1.483  12.454  17.401  0.00  0.00    +0.000 OA
ATOM     30  H   UNL     1      -0.691  12.882  17.046  0.00  0.00    +0.000 HD
ENDBRANCH   4  29
BRANCH   8  31
ATOM     31  C   UNL     1      -2.250  12.705  23.364  0.00  0.00    +0.000 C 
BRANCH  31  32
ATOM     32  O   UNL     1      -2.096  13.960  24.026  0.00  0.00    +0.000 OA
BRANCH  32  33
ATOM     33  C   UNL     1      -3.189  14.243  24.913  0.00  0.00    +0.000 C 
BRANCH  33  34
ATOM     34  C   UNL     1      -3.874  15.508  24.411  0.00  0.00    +0.000 C 
BRANCH  34  35
ATOM     35  O   UNL     1      -3.295  16.649  25.044  0.00  0.00    +0.000 OA
ATOM     36  H   UNL     1      -2.792  16.292  25.801  0.00  0.00    +0.000 HD
ENDBRANCH  34  35
ENDBRANCH  33  34
ENDBRANCH  32  33
ENDBRANCH  31  32
ENDBRANCH   8  31
TORSDOF 11
ENDMDL
MODEL 6
REMARK VINA RESULT:      -8.0      2.619      4.722
REMARK  Name = 
REMARK  11 active torsions:
REMARK  status: ('A' for Active; 'I' for Inactive)
REMARK    1  A    between atoms: C_2  and  O_3
REMARK    2  A    between atoms: C_2  and  O_10
REMARK    3  A    between atoms: O_3  and  C_4
REMARK    4  A    between atoms: O_10  and  C_11
REMARK    5  A    between atoms: C_14  and  C_15
REMARK    6  A    between atoms: C_18  and  O_19
REMARK    7  A    between atoms: N_23  and  C_24
REMARK    8  A    between atoms: C_24  and  O_25
REMARK    9  A    between atoms: O_25  and  C_26
REMARK   10  A    between atoms: C_26  and  C_27
REMARK   11  A    between atoms: C_27  and  O_28
REMARK                            x       y       z     vdW  Elec       q    Type
REMARK                         _______ _______ _______ _____ _____    ______ ____
ROOT
ATOM      1  C   UNL     1       1.647   8.022  19.886  0.00  0.00    +0.000 A 
ATOM      2  C   UNL     1       1.294   8.068  21.223  0.00  0.00    +0.000 A 
ATOM      3  N   UNL     1       0.704   9.319  21.408  0.00  0.00    +0.000 N 
ATOM      4  C   UNL     1       0.109   9.933  22.533  0.00  0.00    +0.000 A 
ATOM      5  C   UNL     1      -0.420  11.154  22.351  0.00  0.00    +0.000 A 
ATOM      6  N   UNL     1      -1.095  12.056  23.174  0.00  0.00    +0.000 NA
ATOM      7  C   UNL     1      -1.350  13.077  22.383  0.00  0.00    +0.000 A 
ATOM      8  N   UNL     1      -0.894  12.958  21.099  0.00  0.00    +0.000 N 
ATOM      9  C   UNL     1      -0.289  11.744  20.973  0.00  0.00    +0.000 A 
ATOM     10  N   UNL     1       0.267  11.209  19.948  0.00  0.00    +0.000 NA
ATOM     11  C   UNL     1       0.761   9.964  20.165  0.00  0.00    +0.000 A 
ATOM     12  N   UNL     1       1.323   9.201  19.269  0.00  0.00    +0.000 NA
ENDROOT
BRANCH   1  16
ATOM     13  C   UNL     1       3.742   5.167  17.494  0.00  0.00    +0.000 A 
ATOM     14  C   UNL     1       2.905   4.705  18.521  0.00  0.00    +0.000 A 
ATOM     15  C   UNL     1       2.172   5.610  19.314  0.00  0.00    +0.000 A 
ATOM     16  C   UNL     1       2.287   6.982  19.083  0.00  0.00    +0.000 A 
ATOM     17  C   UNL     1       3.119   7.411  18.022  0.00  0.00    +0.000 A 
ATOM     18  C   UNL     1       3.853   6.522  17.235  0.00  0.00    +0.000 A 
BRANCH  13  19
ATOM     19  O   UNL     1       4.554   4.188  16.848  0.00  0.00    +0.000 OA
BRANCH  19  21
ATOM     20  O   UNL     1       4.978   4.290  14.587  0.00  0.00    +0.000 OA
ATOM     21  C   UNL     1       5.418   4.235  15.729  0.00  0.00    +0.000 C 
BRANCH  21  22
ATOM     22  O   UNL     1       6.761   4.275  16.095  0.00  0.00    +0.000 OA
BRANCH  22  23
ATOM     23  C   UNL     1       7.291   5.195  17.036  0.00  0.00    +0.000 A 
ATOM     24  C   UNL     1       7.291   6.532  16.632  0.00  0.00    +0.000 A 
ATOM     25  C   UNL     1       7.689   7.535  17.521  0.00  0.00    +0.000 A 
ATOM     26  C   UNL     1       8.090   7.197  18.817  0.00  0.00    +0.000 A 
ATOM     27  C   UNL     1       8.107   5.859  19.213  0.00  0.00    +0.000 A 
ATOM     28  C   UNL     1       7.707   4.852  18.326  0.00  0.00    +0.000 A 
ENDBRANCH  22  23
ENDBRANCH  21  22
ENDBRANCH  19  21
ENDBRANCH  13  19
ENDBRANCH   1  16
BRANCH   4  29
ATOM     29  O   UNL     1       0.052   9.314  23.775  0.00  0.00    +0.000 OA
ATOM     30  H   UNL     1       0.708   8.604  23.821  0.00  0.00    +0.000 HD
ENDBRANCH   4  29
BRANCH   8  31
ATOM     31  C   UNL     1      -1.054  13.876  20.010  0.00  0.00    +0.000 C 
BRANCH  31  32
ATOM     32  O   UNL     1      -1.487  15.164  20.447  0.00  0.00    +0.000 OA
BRANCH  32  33
ATOM     33  C   UNL     1      -0.502  16.180  20.200  0.00  0.00    +0.000 C 
BRANCH  33  34
ATOM     34  C   UNL     1      -0.028  16.022  18.760  0.00  0.00    +0.000 C 
BRANCH  34  35
ATOM     35  O   UNL     1      -0.836  16.824  17.901  0.00  0.00    +0.000 OA
ATOM     36  H   UNL     1      -0.984  17.655  18.391  0.00  0.00    +0.000 HD
ENDBRANCH  34  35
ENDBRANCH  33  34
ENDBRANCH  32  33
ENDBRANCH  31  32
ENDBRANCH   8  31
TORSDOF 11
ENDMDL
MODEL 7
REMARK VINA RESULT:      -7.9      2.564      4.785
REMARK  Name = 
REMARK  11 active torsions:
REMARK  status: ('A' for Active; 'I' for Inactive)
REMARK    1  A    between atoms: C_2  and  O_3
REMARK    2  A    between atoms: C_2  and  O_10
REMARK    3  A    between atoms: O_3  and  C_4
REMARK    4  A    between atoms: O_10  and  C_11
REMARK    5  A    between atoms: C_14  and  C_15
REMARK    6  A    between atoms: C_18  and  O_19
REMARK    7  A    between atoms: N_23  and  C_24
REMARK    8  A    between atoms: C_24  and  O_25
REMARK    9  A    between atoms: O_25  and  C_26
REMARK   10  A    between atoms: C_26  and  C_27
REMARK   11  A    between atoms: C_27  and  O_28
REMARK                            x       y       z     vdW  Elec       q    Type
REMARK                         _______ _______ _______ _____ _____    ______ ____
ROOT
ATOM      1  C   UNL     1       1.727   8.183  19.960  0.00  0.00    +0.000 A 
ATOM      2  C   UNL     1       1.301   8.140  21.275  0.00  0.00    +0.000 A 
ATOM      3  N   UNL     1       0.625   9.341  21.487  0.00  0.00    +0.000 N 
ATOM      4  C   UNL     1      -0.067   9.861  22.604  0.00  0.00    +0.000 A 
ATOM      5  C   UNL     1      -0.661  11.056  22.450  0.00  0.00    +0.000 A 
ATOM      6  N   UNL     1      -1.435  11.873  23.275  0.00  0.00    +0.000 NA
ATOM      7  C   UNL     1      -1.710  12.916  22.521  0.00  0.00    +0.000 A 
ATOM      8  N   UNL     1      -1.179  12.889  21.260  0.00  0.00    +0.000 N 
ATOM      9  C   UNL     1      -0.493  11.722  21.112  0.00  0.00    +0.000 A 
ATOM     10  N   UNL     1       0.149  11.275  20.095  0.00  0.00    +0.000 NA
ATOM     11  C   UNL     1       0.707  10.051  20.280  0.00  0.00    +0.000 A 
ATOM     12  N   UNL     1       1.364   9.370  19.383  0.00  0.00    +0.000 NA
ENDROOT
BRANCH   1  16
ATOM     13  C   UNL     1       3.710   5.177  17.660  0.00  0.00    +0.000 A 
ATOM     14  C   UNL     1       3.764   6.509  17.222  0.00  0.00    +0.000 A 
ATOM     15  C   UNL     1       3.150   7.536  17.966  0.00  0.00    +0.000 A 
ATOM     16  C   UNL     1       2.473   7.225  19.146  0.00  0.00    +0.000 A 
ATOM     17  C   UNL     1       2.462   5.875  19.571  0.00  0.00    +0.000 A 
ATOM     18  C   UNL     1       3.063   4.851  18.838  0.00  0.00    +0.000 A 
BRANCH  13  19
ATOM     19  O   UNL     1       4.230   4.194  16.765  0.00  0.00    +0.000 OA
BRANCH  19  21
ATOM     20  O   UNL     1       4.904   4.425  14.575  0.00  0.00    +0.000 OA
ATOM     21  C   UNL     1       5.210   4.236  15.747  0.00  0.00    +0.000 C 
BRANCH  21  22
ATOM     22  O   UNL     1       6.503   4.107  16.248  0.00  0.00    +0.000 OA
BRANCH  22  23
ATOM     23  C   UNL     1       7.113   5.061  17.102  0.00  0.00    +0.000 A 
ATOM     24  C   UNL     1       7.176   6.362  16.598  0.00  0.00    +0.000 A 
ATOM     25  C   UNL     1       7.657   7.403  17.399  0.00  0.00    +0.000 A 
ATOM     26  C   UNL     1       8.079   7.139  18.705  0.00  0.00    +0.000 A 
ATOM     27  C   UNL     1       8.033   5.835  19.200  0.00  0.00    +0.000 A 
ATOM     28  C   UNL     1       7.549   4.791  18.402  0.00  0.00    +0.000 A 
ENDBRANCH  22  23
ENDBRANCH  21  22
ENDBRANCH  19  21
ENDBRANCH  13  19
ENDBRANCH   1  16
BRANCH   4  29
ATOM     29  O   UNL     1      -0.152   9.177  23.809  0.00  0.00    +0.000 OA
ATOM     30  H   UNL     1      -0.962   8.649  23.834  0.00  0.00    +0.000 HD
ENDBRANCH   4  29
BRANCH   8  31
ATOM     31  C   UNL     1      -1.337  13.851  20.210  0.00  0.00    +0.000 C 
BRANCH  31  32
ATOM     32  O   UNL     1      -0.215  14.726  20.102  0.00  0.00    +0.000 OA
BRANCH  32  33
ATOM     33  C   UNL     1      -0.220  15.465  18.871  0.00  0.00    +0.000 C 
BRANCH  33  34
ATOM     34  C   UNL     1       1.161  16.087  18.702  0.00  0.00    +0.000 C 
BRANCH  34  35
ATOM     35  O   UNL     1       2.154  15.064  18.737  0.00  0.00    +0.000 OA
ATOM     36  H   UNL     1       2.029  14.558  17.911  0.00  0.00    +0.000 HD
ENDBRANCH  34  35
ENDBRANCH  33  34
ENDBRANCH  32  33
ENDBRANCH  31  32
ENDBRANCH   8  31
TORSDOF 11
ENDMDL
MODEL 8
REMARK VINA RESULT:      -7.9      2.179      2.845
REMARK  Name = 
REMARK  11 active torsions:
REMARK  status: ('A' for Active; 'I' for Inactive)
REMARK    1  A    between atoms: C_2  and  O_3
REMARK    2  A    between atoms: C_2  and  O_10
REMARK    3  A    between atoms: O_3  and  C_4
REMARK    4  A    between atoms: O_10  and  C_11
REMARK    5  A    between atoms: C_14  and  C_15
REMARK    6  A    between atoms: C_18  and  O_19
REMARK    7  A    between atoms: N_23  and  C_24
REMARK    8  A    between atoms: C_24  and  O_25
REMARK    9  A    between atoms: O_25  and  C_26
REMARK   10  A    between atoms: C_26  and  C_27
REMARK   11  A    between atoms: C_27  and  O_28
REMARK                            x       y       z     vdW  Elec       q    Type
REMARK                         _______ _______ _______ _____ _____    ______ ____
ROOT
ATOM      1  C   UNL     1       0.444  10.468  19.914  0.00  0.00    +0.000 A 
ATOM      2  C   UNL     1       0.685  11.426  20.881  0.00  0.00    +0.000 A 
ATOM      3  N   UNL     1      -0.508  12.138  21.005  0.00  0.00    +0.000 N 
ATOM      4  C   UNL     1      -0.900  13.200  21.852  0.00  0.00    +0.000 A 
ATOM      5  C   UNL     1      -2.168  13.628  21.743  0.00  0.00    +0.000 A 
ATOM      6  N   UNL     1      -2.926  14.604  22.393  0.00  0.00    +0.000 NA
ATOM      7  C   UNL     1      -4.107  14.523  21.818  0.00  0.00    +0.000 A 
ATOM      8  N   UNL     1      -4.217  13.589  20.824  0.00  0.00    +0.000 N 
ATOM      9  C   UNL     1      -3.020  12.949  20.707  0.00  0.00    +0.000 A 
ATOM     10  N   UNL     1      -2.675  11.999  19.916  0.00  0.00    +0.000 NA
ATOM     11  C   UNL     1      -1.396  11.574  20.079  0.00  0.00    +0.000 A 
ATOM     12  N   UNL     1      -0.831  10.593  19.431  0.00  0.00    +0.000 NA
ENDROOT
BRANCH   1  16
ATOM     13  C   UNL     1       2.765   7.202  18.428  0.00  0.00    +0.000 A 
ATOM     14  C   UNL     1       2.558   8.317  17.601  0.00  0.00    +0.000 A 
ATOM     15  C   UNL     1       1.825   9.428  18.061  0.00  0.00    +0.000 A 
ATOM     16  C   UNL     1       1.290   9.418  19.350  0.00  0.00    +0.000 A 
ATOM     17  C   UNL     1       1.541   8.289  20.166  0.00  0.00    +0.000 A 
ATOM     18  C   UNL     1       2.261   7.181  19.717  0.00  0.00    +0.000 A 
BRANCH  13  19
ATOM     19  O   UNL     1       3.387   6.070  17.823  0.00  0.00    +0.000 OA
BRANCH  19  21
ATOM     20  O   UNL     1       5.673   5.941  18.080  0.00  0.00    +0.000 OA
ATOM     21  C   UNL     1       4.588   5.371  18.089  0.00  0.00    +0.000 C 
BRANCH  21  22
ATOM     22  O   UNL     1       4.365   4.034  18.410  0.00  0.00    +0.000 OA
BRANCH  22  23
ATOM     23  C   UNL     1       3.137   3.546  18.927  0.00  0.00    +0.000 A 
ATOM     24  C   UNL     1       2.967   3.692  20.305  0.00  0.00    +0.000 A 
ATOM     25  C   UNL     1       1.752   3.346  20.904  0.00  0.00    +0.000 A 
ATOM     26  C   UNL     1       0.707   2.848  20.121  0.00  0.00    +0.000 A 
ATOM     27  C   UNL     1       0.885   2.684  18.747  0.00  0.00    +0.000 A 
ATOM     28  C   UNL     1       2.100   3.033  18.143  0.00  0.00    +0.000 A 
ENDBRANCH  22  23
ENDBRANCH  21  22
ENDBRANCH  19  21
ENDBRANCH  13  19
ENDBRANCH   1  16
BRANCH   4  29
ATOM     29  O   UNL     1      -0.032  13.778  22.769  0.00  0.00    +0.000 OA
ATOM     30  H   UNL     1       0.532  14.428  22.327  0.00  0.00    +0.000 HD
ENDBRANCH   4  29
BRANCH   8  31
ATOM     31  C   UNL     1      -5.374  13.245  20.053  0.00  0.00    +0.000 C 
BRANCH  31  32
ATOM     32  O   UNL     1      -5.961  12.014  20.476  0.00  0.00    +0.000 OA
BRANCH  32  33
ATOM     33  C   UNL     1      -7.068  11.628  19.647  0.00  0.00    +0.000 C 
BRANCH  33  34
ATOM     34  C   UNL     1      -6.632  10.415  18.833  0.00  0.00    +0.000 C 
BRANCH  34  35
ATOM     35  O   UNL     1      -7.515   9.325  19.089  0.00  0.00    +0.000 OA
ATOM     36  H   UNL     1      -7.673   8.914  18.218  0.00  0.00    +0.000 HD
ENDBRANCH  34  35
ENDBRANCH  33  34
ENDBRANCH  32  33
ENDBRANCH  31  32
ENDBRANCH   8  31
TORSDOF 11
ENDMDL
MODEL 9
REMARK VINA RESULT:      -7.8      1.377      1.620
REMARK  Name = 
REMARK  11 active torsions:
REMARK  status: ('A' for Active; 'I' for Inactive)
REMARK    1  A    between atoms: C_2  and  O_3
REMARK    2  A    between atoms: C_2  and  O_10
REMARK    3  A    between atoms: O_3  and  C_4
REMARK    4  A    between atoms: O_10  and  C_11
REMARK    5  A    between atoms: C_14  and  C_15
REMARK    6  A    between atoms: C_18  and  O_19
REMARK    7  A    between atoms: N_23  and  C_24
REMARK    8  A    between atoms: C_24  and  O_25
REMARK    9  A    between atoms: O_25  and  C_26
REMARK   10  A    between atoms: C_26  and  C_27
REMARK   11  A    between atoms: C_27  and  O_28
REMARK                            x       y       z     vdW  Elec       q    Type
REMARK                         _______ _______ _______ _____ _____    ______ ____
ROOT
ATOM      1  C   UNL     1       1.042   9.649  19.321  0.00  0.00    +0.000 A 
ATOM      2  C   UNL     1       0.584  10.656  18.491  0.00  0.00    +0.000 A 
ATOM      3  N   UNL     1      -0.089  11.548  19.326  0.00  0.00    +0.000 N 
ATOM      4  C   UNL     1      -0.732  12.783  19.080  0.00  0.00    +0.000 A 
ATOM      5  C   UNL     1      -1.248  13.422  20.142  0.00  0.00    +0.000 A 
ATOM      6  N   UNL     1      -1.917  14.634  20.319  0.00  0.00    +0.000 NA
ATOM      7  C   UNL     1      -2.156  14.679  21.612  0.00  0.00    +0.000 A 
ATOM      8  N   UNL     1      -1.723  13.597  22.330  0.00  0.00    +0.000 N 
ATOM      9  C   UNL     1      -1.112  12.734  21.472  0.00  0.00    +0.000 A 
ATOM     10  N   UNL     1      -0.551  11.605  21.710  0.00  0.00    +0.000 NA
ATOM     11  C   UNL     1      -0.014  11.005  20.617  0.00  0.00    +0.000 A 
ATOM     12  N   UNL     1       0.647   9.882  20.611  0.00  0.00    +0.000 NA
ENDROOT
BRANCH   1  16
ATOM     13  C   UNL     1       3.495   6.284  18.361  0.00  0.00    +0.000 A 
ATOM     14  C   UNL     1       2.849   6.317  19.606  0.00  0.00    +0.000 A 
ATOM     15  C   UNL     1       2.007   7.392  19.951  0.00  0.00    +0.000 A 
ATOM     16  C   UNL     1       1.820   8.442  19.050  0.00  0.00    +0.000 A 
ATOM     17  C   UNL     1       2.466   8.363  17.794  0.00  0.00    +0.000 A 
ATOM     18  C   UNL     1       3.306   7.304  17.445  0.00  0.00    +0.000 A 
BRANCH  13  19
ATOM     19  O   UNL     1       4.441   5.234  18.164  0.00  0.00    +0.000 OA
BRANCH  19  21
ATOM     20  O   UNL     1       4.822   4.144  16.171  0.00  0.00    +0.000 OA
ATOM     21  C   UNL     1       4.451   4.086  17.337  0.00  0.00    +0.000 C 
BRANCH  21  22
ATOM     22  O   UNL     1       4.065   2.936  18.022  0.00  0.00    +0.000 OA
BRANCH  22  23
ATOM     23  C   UNL     1       3.153   2.938  19.108  0.00  0.00    +0.000 A 
ATOM     24  C   UNL     1       1.803   3.008  18.756  0.00  0.00    +0.000 A 
ATOM     25  C   UNL     1       0.814   2.907  19.739  0.00  0.00    +0.000 A 
ATOM     26  C   UNL     1       1.178   2.739  21.079  0.00  0.00    +0.000 A 
ATOM     27  C   UNL     1       2.528   2.688  21.430  0.00  0.00    +0.000 A 
ATOM     28  C   UNL     1       3.521   2.787  20.447  0.00  0.00    +0.000 A 
ENDBRANCH  22  23
ENDBRANCH  21  22
ENDBRANCH  19  21
ENDBRANCH  13  19
ENDBRANCH   1  16
BRANCH   4  29
ATOM     29  O   UNL     1      -0.825  13.331  17.808  0.00  0.00    +0.000 OA
ATOM     30  H   UNL     1      -1.457  14.064  17.808  0.00  0.00    +0.000 HD
ENDBRANCH   4  29
BRANCH   8  31
ATOM     31  C   UNL     1      -1.802  13.381  23.744  0.00  0.00    +0.000 C 
BRANCH  31  32
ATOM     32  O   UNL     1      -2.971  13.964  24.318  0.00  0.00    +0.000 OA
BRANCH  32  33
ATOM     33  C   UNL     1      -2.656  15.040  25.216  0.00  0.00    +0.000 C 
BRANCH  33  34
ATOM     34  C   UNL     1      -3.654  16.162  24.957  0.00  0.00    +0.000 C 
BRANCH  34  35
ATOM     35  O   UNL     1      -4.924  15.607  24.623  0.00  0.00    +0.000 OA
ATOM     36  H   UNL     1      -5.542  16.362  24.627  0.00  0.00    +0.000 HD
ENDBRANCH  34  35
ENDBRANCH  33  34
ENDBRANCH  32  33
ENDBRANCH  31  32
ENDBRANCH   8  31
TORSDOF 11
ENDMDL
