MODEL 1
REMARK VINA RESULT:      -8.6      0.000      0.000
REMARK  Name = 
REMARK  11 active torsions:
REMARK  status: ('A' for Active; 'I' for Inactive)
REMARK    1  A    between atoms: C_1  and  C_2
REMARK    2  A    between atoms: C_5  and  C_6
REMARK    3  A    between atoms: N_8  and  C_9
REMARK    4  A    between atoms: C_9  and  C_10
REMARK    5  A    between atoms: C_10  and  N_11
REMARK    6  A    between atoms: C_15  and  C_16
REMARK    7  A    between atoms: C_16  and  C_17
REMARK    8  A    between atoms: C_16  and  C_18
REMARK    9  A    between atoms: C_21  and  C_22
REMARK   10  A    between atoms: C_22  and  C_23
REMARK   11  A    between atoms: C_26  and  O_27
REMARK                            x       y       z     vdW  Elec       q    Type
REMARK                         _______ _______ _______ _____ _____    ______ ____
ROOT
ATOM      1  N   UNL     1       5.296   5.548  18.228  0.00  0.00    +0.000 N 
ATOM      2  C   UNL     1       4.041   5.581  18.768  0.00  0.00    +0.000 C 
ATOM      3  N   UNL     1       3.559   6.104  19.847  0.00  0.00    +0.000 NA
ATOM      4  C   UNL     1       2.116   5.683  19.781  0.00  0.00    +0.000 C 
ATOM      5  C   UNL     1       2.036   4.500  18.770  0.00  0.00    +0.000 C 
ATOM      6  N   UNL     1       3.223   4.793  18.004  0.00  0.00    +0.000 N 
ATOM      7  C   UNL     1       3.982   3.910  17.143  0.00  0.00    +0.000 C 
ATOM      8  C   UNL     1       5.323   4.696  17.016  0.00  0.00    +0.000 C 
ENDROOT
BRANCH   5   9
ATOM      9  C   UNL     1       2.018   3.093  19.414  0.00  0.00    +0.000 C 
ATOM     10  C   UNL     1       1.629   3.061  20.897  0.00  0.00    +0.000 C 
ATOM     11  C   UNL     1       1.080   2.148  18.649  0.00  0.00    +0.000 C 
ENDBRANCH   5   9
BRANCH   1  12
ATOM     12  C   UNL     1       6.507   5.733  19.008  0.00  0.00    +0.000 C 
BRANCH  12  13
ATOM     13  C   UNL     1       7.698   6.209  18.152  0.00  0.00    +0.000 C 
BRANCH  13  16
ATOM     14  C   UNL     1       8.209   8.626  18.119  0.00  0.00    +0.000 C 
ATOM     15  O   UNL     1       7.536   8.817  17.108  0.00  0.00    +0.000 OA
ATOM     16  N   UNL     1       8.361   7.387  18.700  0.00  0.00    +0.000 N 
ATOM     17  H   UNL     1       9.016   7.251  19.462  0.00  0.00    +0.000 HD
BRANCH  14  22
ATOM     18  C   UNL     1      10.830  13.288  20.364  0.00  0.00    +0.000 C 
ATOM     19  C   UNL     1      10.200  12.057  19.771  0.00  0.00    +0.000 A 
ATOM     20  C   UNL     1       9.612  11.106  20.623  0.00  0.00    +0.000 A 
ATOM     21  C   UNL     1       8.985   9.965  20.109  0.00  0.00    +0.000 A 
ATOM     22  C   UNL     1       8.936   9.766  18.726  0.00  0.00    +0.000 A 
ATOM     23  C   UNL     1       9.526  10.701  17.869  0.00  0.00    +0.000 A 
ATOM     24  C   UNL     1      10.157  11.835  18.387  0.00  0.00    +0.000 A 
ATOM     25 BR   UNL     1      10.925  13.051  17.146  0.00  0.00    +0.000 Br
ENDBRANCH  14  22
ENDBRANCH  13  16
ENDBRANCH  12  13
ENDBRANCH   1  12
BRANCH   8  26
ATOM     26  C   UNL     1       5.361   5.613  15.779  0.00  0.00    +0.000 C 
BRANCH  26  27
ATOM     27  C   UNL     1       5.882   4.943  14.530  0.00  0.00    +0.000 A 
ATOM     28  C   UNL     1       5.069   4.032  13.835  0.00  0.00    +0.000 A 
ATOM     29  C   UNL     1       5.554   3.357  12.714  0.00  0.00    +0.000 A 
ATOM     30  C   UNL     1       6.851   3.602  12.280  0.00  0.00    +0.000 A 
ATOM     31  C   UNL     1       7.660   4.523  12.935  0.00  0.00    +0.000 A 
ATOM     32  C   UNL     1       7.176   5.197  14.059  0.00  0.00    +0.000 A 
BRANCH  30  33
ATOM     33  O   UNL     1       7.375   2.947  11.205  0.00  0.00    +0.000 OA
ATOM     34  H   UNL     1       8.298   2.719  11.402  0.00  0.00    +0.000 HD
ENDBRANCH  30  33
ENDBRANCH  26  27
ENDBRANCH   8  26
TORSDOF 8
ENDMDL
MODEL 2
REMARK VINA RESULT:      -8.2      6.683      9.692
REMARK  Name = 
REMARK  11 active torsions:
REMARK  status: ('A' for Active; 'I' for Inactive)
REMARK    1  A    between atoms: C_1  and  C_2
REMARK    2  A    between atoms: C_5  and  C_6
REMARK    3  A    between atoms: N_8  and  C_9
REMARK    4  A    between atoms: C_9  and  C_10
REMARK    5  A    between atoms: C_10  and  N_11
REMARK    6  A    between atoms: C_15  and  C_16
REMARK    7  A    between atoms: C_16  and  C_17
REMARK    8  A    between atoms: C_16  and  C_18
REMARK    9  A    between atoms: C_21  and  C_22
REMARK   10  A    between atoms: C_22  and  C_23
REMARK   11  A    between atoms: C_26  and  O_27
REMARK                            x       y       z     vdW  Elec       q    Type
REMARK                         _______ _______ _______ _____ _____    ______ ____
ROOT
ATOM      1  N   UNL     1       1.708   8.013  19.625  0.00  0.00    +0.000 N 
ATOM      2  C   UNL     1       2.255   6.792  19.346  0.00  0.00    +0.000 C 
ATOM      3  N   UNL     1       2.398   5.711  20.039  0.00  0.00    +0.000 NA
ATOM      4  C   UNL     1       3.129   4.816  19.076  0.00  0.00    +0.000 C 
ATOM      5  C   UNL     1       3.737   5.737  17.975  0.00  0.00    +0.000 C 
ATOM      6  N   UNL     1       2.831   6.852  18.106  0.00  0.00    +0.000 N 
ATOM      7  C   UNL     1       3.015   8.220  17.666  0.00  0.00    +0.000 C 
ATOM      8  C   UNL     1       1.915   8.950  18.497  0.00  0.00    +0.000 C 
ENDROOT
BRANCH   5   9
ATOM      9  C   UNL     1       5.229   6.094  18.177  0.00  0.00    +0.000 C 
ATOM     10  C   UNL     1       5.973   5.231  19.204  0.00  0.00    +0.000 C 
ATOM     11  C   UNL     1       5.996   6.031  16.848  0.00  0.00    +0.000 C 
ENDBRANCH   5   9
BRANCH   1  12
ATOM     12  C   UNL     1       1.550   8.529  20.973  0.00  0.00    +0.000 C 
BRANCH  12  13
ATOM     13  C   UNL     1       0.098   8.423  21.484  0.00  0.00    +0.000 C 
BRANCH  13  16
ATOM     14  C   UNL     1      -0.519  10.380  22.860  0.00  0.00    +0.000 C 
ATOM     15  O   UNL     1       0.019   9.920  23.865  0.00  0.00    +0.000 OA
ATOM     16  N   UNL     1      -0.545   9.722  21.651  0.00  0.00    +0.000 N 
ATOM     17  H   UNL     1      -1.098  10.080  20.879  0.00  0.00    +0.000 HD
BRANCH  14  22
ATOM     18  C   UNL     1      -3.216  15.515  22.886  0.00  0.00    +0.000 C 
ATOM     19  C   UNL     1      -2.491  14.197  22.927  0.00  0.00    +0.000 A 
ATOM     20  C   UNL     1      -3.199  13.033  23.272  0.00  0.00    +0.000 A 
ATOM     21  C   UNL     1      -2.570  11.783  23.287  0.00  0.00    +0.000 A 
ATOM     22  C   UNL     1      -1.216  11.685  22.950  0.00  0.00    +0.000 A 
ATOM     23  C   UNL     1      -0.500  12.837  22.614  0.00  0.00    +0.000 A 
ATOM     24  C   UNL     1      -1.130  14.084  22.607  0.00  0.00    +0.000 A 
ATOM     25 BR   UNL     1      -0.078  15.593  22.133  0.00  0.00    +0.000 Br
ENDBRANCH  14  22
ENDBRANCH  13  16
ENDBRANCH  12  13
ENDBRANCH   1  12
BRANCH   8  26
ATOM     26  C   UNL     1       0.585   9.091  17.732  0.00  0.00    +0.000 C 
BRANCH  26  27
ATOM     27  C   UNL     1      -0.266  10.255  18.182  0.00  0.00    +0.000 A 
ATOM     28  C   UNL     1       0.346  11.405  18.706  0.00  0.00    +0.000 A 
ATOM     29  C   UNL     1      -0.426  12.466  19.184  0.00  0.00    +0.000 A 
ATOM     30  C   UNL     1      -1.811  12.380  19.127  0.00  0.00    +0.000 A 
ATOM     31  C   UNL     1      -2.435  11.263  18.582  0.00  0.00    +0.000 A 
ATOM     32  C   UNL     1      -1.663  10.200  18.107  0.00  0.00    +0.000 A 
BRANCH  30  33
ATOM     33  O   UNL     1      -2.604  13.381  19.604  0.00  0.00    +0.000 OA
ATOM     34  H   UNL     1      -3.172  13.018  20.303  0.00  0.00    +0.000 HD
ENDBRANCH  30  33
ENDBRANCH  26  27
ENDBRANCH   8  26
TORSDOF 8
ENDMDL
MODEL 3
REMARK VINA RESULT:      -8.1      6.821      9.644
REMARK  Name = 
REMARK  11 active torsions:
REMARK  status: ('A' for Active; 'I' for Inactive)
REMARK    1  A    between atoms: C_1  and  C_2
REMARK    2  A    between atoms: C_5  and  C_6
REMARK    3  A    between atoms: N_8  and  C_9
REMARK    4  A    between atoms: C_9  and  C_10
REMARK    5  A    between atoms: C_10  and  N_11
REMARK    6  A    between atoms: C_15  and  C_16
REMARK    7  A    between atoms: C_16  and  C_17
REMARK    8  A    between atoms: C_16  and  C_18
REMARK    9  A    between atoms: C_21  and  C_22
REMARK   10  A    between atoms: C_22  and  C_23
REMARK   11  A    between atoms: C_26  and  O_27
REMARK                            x       y       z     vdW  Elec       q    Type
REMARK                         _______ _______ _______ _____ _____    ______ ____
ROOT
ATOM      1  N   UNL     1       1.962   7.786  19.534  0.00  0.00    +0.000 N 
ATOM      2  C   UNL     1       2.375   6.518  19.239  0.00  0.00    +0.000 C 
ATOM      3  N   UNL     1       2.428   5.425  19.927  0.00  0.00    +0.000 NA
ATOM      4  C   UNL     1       3.037   4.465  18.943  0.00  0.00    +0.000 C 
ATOM      5  C   UNL     1       3.702   5.323  17.825  0.00  0.00    +0.000 C 
ATOM      6  N   UNL     1       2.918   6.524  17.983  0.00  0.00    +0.000 N 
ATOM      7  C   UNL     1       3.226   7.867  17.538  0.00  0.00    +0.000 C 
ATOM      8  C   UNL     1       2.231   8.702  18.401  0.00  0.00    +0.000 C 
ENDROOT
BRANCH   5   9
ATOM      9  C   UNL     1       5.228   5.527  17.984  0.00  0.00    +0.000 C 
ATOM     10  C   UNL     1       5.795   5.164  19.362  0.00  0.00    +0.000 C 
ATOM     11  C   UNL     1       6.004   4.736  16.920  0.00  0.00    +0.000 C 
ENDBRANCH   5   9
BRANCH   1  12
ATOM     12  C   UNL     1       1.896   8.312  20.887  0.00  0.00    +0.000 C 
BRANCH  12  13
ATOM     13  C   UNL     1       0.475   8.244  21.482  0.00  0.00    +0.000 C 
BRANCH  13  16
ATOM     14  C   UNL     1      -0.297  10.192  22.790  0.00  0.00    +0.000 C 
ATOM     15  O   UNL     1       0.092   9.711  23.852  0.00  0.00    +0.000 OA
ATOM     16  N   UNL     1      -0.168   9.550  21.579  0.00  0.00    +0.000 N 
ATOM     17  H   UNL     1      -0.604   9.927  20.745  0.00  0.00    +0.000 HD
BRANCH  14  22
ATOM     18  C   UNL     1      -2.971  15.325  23.169  0.00  0.00    +0.000 C 
ATOM     19  C   UNL     1      -2.311  13.981  23.027  0.00  0.00    +0.000 A 
ATOM     20  C   UNL     1      -1.022  13.902  22.471  0.00  0.00    +0.000 A 
ATOM     21  C   UNL     1      -0.360  12.675  22.355  0.00  0.00    +0.000 A 
ATOM     22  C   UNL     1      -0.983  11.506  22.803  0.00  0.00    +0.000 A 
ATOM     23  C   UNL     1      -2.268  11.571  23.350  0.00  0.00    +0.000 A 
ATOM     24  C   UNL     1      -2.929  12.798  23.458  0.00  0.00    +0.000 A 
ATOM     25 BR   UNL     1      -4.669  12.788  24.219  0.00  0.00    +0.000 Br
ENDBRANCH  14  22
ENDBRANCH  13  16
ENDBRANCH  12  13
ENDBRANCH   1  12
BRANCH   8  26
ATOM     26  C   UNL     1       0.900   8.979  17.675  0.00  0.00    +0.000 C 
BRANCH  26  27
ATOM     27  C   UNL     1       0.196  10.234  18.134  0.00  0.00    +0.000 A 
ATOM     28  C   UNL     1      -1.206  10.298  18.107  0.00  0.00    +0.000 A 
ATOM     29  C   UNL     1      -1.872  11.470  18.469  0.00  0.00    +0.000 A 
ATOM     30  C   UNL     1      -1.133  12.577  18.870  0.00  0.00    +0.000 A 
ATOM     31  C   UNL     1       0.255  12.523  18.934  0.00  0.00    +0.000 A 
ATOM     32  C   UNL     1       0.921  11.351  18.568  0.00  0.00    +0.000 A 
BRANCH  30  33
ATOM     33  O   UNL     1      -1.740  13.750  19.209  0.00  0.00    +0.000 OA
ATOM     34  H   UNL     1      -1.280  14.124  19.978  0.00  0.00    +0.000 HD
ENDBRANCH  30  33
ENDBRANCH  26  27
ENDBRANCH   8  26
TORSDOF 8
ENDMDL
MODEL 4
REMARK VINA RESULT:      -8.0      1.029      1.579
REMARK  Name = 
REMARK  11 active torsions:
REMARK  status: ('A' for Active; 'I' for Inactive)
REMARK    1  A    between atoms: C_1  and  C_2
REMARK    2  A    between atoms: C_5  and  C_6
REMARK    3  A    between atoms: N_8  and  C_9
REMARK    4  A    between atoms: C_9  and  C_10
REMARK    5  A    between atoms: C_10  and  N_11
REMARK    6  A    between atoms: C_15  and  C_16
REMARK    7  A    between atoms: C_16  and  C_17
REMARK    8  A    between atoms: C_16  and  C_18
REMARK    9  A    between atoms: C_21  and  C_22
REMARK   10  A    between atoms: C_22  and  C_23
REMARK   11  A    between atoms: C_26  and  O_27
REMARK                            x       y       z     vdW  Elec       q    Type
REMARK                         _______ _______ _______ _____ _____    ______ ____
ROOT
ATOM      1  N   UNL     1       5.312   5.566  18.463  0.00  0.00    +0.000 N 
ATOM      2  C   UNL     1       4.045   5.618  18.972  0.00  0.00    +0.000 C 
ATOM      3  N   UNL     1       3.546   6.139  20.044  0.00  0.00    +0.000 NA
ATOM      4  C   UNL     1       2.097   5.747  19.937  0.00  0.00    +0.000 C 
ATOM      5  C   UNL     1       2.019   4.577  18.911  0.00  0.00    +0.000 C 
ATOM      6  N   UNL     1       3.231   4.855  18.179  0.00  0.00    +0.000 N 
ATOM      7  C   UNL     1       3.994   3.965  17.327  0.00  0.00    +0.000 C 
ATOM      8  C   UNL     1       5.353   4.726  17.243  0.00  0.00    +0.000 C 
ENDROOT
BRANCH   5   9
ATOM      9  C   UNL     1       1.957   3.165  19.540  0.00  0.00    +0.000 C 
ATOM     10  C   UNL     1       1.445   3.116  20.985  0.00  0.00    +0.000 C 
ATOM     11  C   UNL     1       1.094   2.220  18.690  0.00  0.00    +0.000 C 
ENDBRANCH   5   9
BRANCH   1  12
ATOM     12  C   UNL     1       6.506   5.718  19.275  0.00  0.00    +0.000 C 
BRANCH  12  13
ATOM     13  C   UNL     1       7.752   6.071  18.438  0.00  0.00    +0.000 C 
BRANCH  13  16
ATOM     14  C   UNL     1       8.185   8.485  18.139  0.00  0.00    +0.000 C 
ATOM     15  O   UNL     1       7.497   8.545  17.122  0.00  0.00    +0.000 OA
ATOM     16  N   UNL     1       8.382   7.322  18.848  0.00  0.00    +0.000 N 
ATOM     17  H   UNL     1       9.047   7.289  19.613  0.00  0.00    +0.000 HD
BRANCH  14  22
ATOM     18  C   UNL     1      11.077  13.075  20.191  0.00  0.00    +0.000 C 
ATOM     19  C   UNL     1      10.280  11.916  19.657  0.00  0.00    +0.000 A 
ATOM     20  C   UNL     1      10.446  11.526  18.316  0.00  0.00    +0.000 A 
ATOM     21  C   UNL     1       9.750  10.431  17.791  0.00  0.00    +0.000 A 
ATOM     22  C   UNL     1       8.879   9.706  18.611  0.00  0.00    +0.000 A 
ATOM     23  C   UNL     1       8.700  10.090  19.944  0.00  0.00    +0.000 A 
ATOM     24  C   UNL     1       9.391  11.188  20.462  0.00  0.00    +0.000 A 
ATOM     25 BR   UNL     1       9.088  11.632  22.284  0.00  0.00    +0.000 Br
ENDBRANCH  14  22
ENDBRANCH  13  16
ENDBRANCH  12  13
ENDBRANCH   1  12
BRANCH   8  26
ATOM     26  C   UNL     1       5.441   5.655  16.017  0.00  0.00    +0.000 C 
BRANCH  26  27
ATOM     27  C   UNL     1       5.978   4.987  14.774  0.00  0.00    +0.000 A 
ATOM     28  C   UNL     1       7.247   5.338  14.285  0.00  0.00    +0.000 A 
ATOM     29  C   UNL     1       7.734   4.776  13.104  0.00  0.00    +0.000 A 
ATOM     30  C   UNL     1       6.955   3.854  12.416  0.00  0.00    +0.000 A 
ATOM     31  C   UNL     1       5.710   3.470  12.901  0.00  0.00    +0.000 A 
ATOM     32  C   UNL     1       5.220   4.034  14.081  0.00  0.00    +0.000 A 
BRANCH  30  33
ATOM     33  O   UNL     1       7.380   3.298  11.246  0.00  0.00    +0.000 OA
ATOM     34  H   UNL     1       8.261   3.650  11.040  0.00  0.00    +0.000 HD
ENDBRANCH  30  33
ENDBRANCH  26  27
ENDBRANCH   8  26
TORSDOF 8
ENDMDL
MODEL 5
REMARK VINA RESULT:      -7.9      6.714     10.501
REMARK  Name = 
REMARK  11 active torsions:
REMARK  status: ('A' for Active; 'I' for Inactive)
REMARK    1  A    between atoms: C_1  and  C_2
REMARK    2  A    between atoms: C_5  and  C_6
REMARK    3  A    between atoms: N_8  and  C_9
REMARK    4  A    between atoms: C_9  and  C_10
REMARK    5  A    between atoms: C_10  and  N_11
REMARK    6  A    between atoms: C_15  and  C_16
REMARK    7  A    between atoms: C_16  and  C_17
REMARK    8  A    between atoms: C_16  and  C_18
REMARK    9  A    between atoms: C_21  and  C_22
REMARK   10  A    between atoms: C_22  and  C_23
REMARK   11  A    between atoms: C_26  and  O_27
REMARK                            x       y       z     vdW  Elec       q    Type
REMARK                         _______ _______ _______ _____ _____    ______ ____
ROOT
ATOM      1  N   UNL     1       2.127   7.924  19.078  0.00  0.00    +0.000 N 
ATOM      2  C   UNL     1       2.866   6.775  19.099  0.00  0.00    +0.000 C 
ATOM      3  N   UNL     1       3.721   6.261  18.278  0.00  0.00    +0.000 NA
ATOM      4  C   UNL     1       4.072   4.968  18.960  0.00  0.00    +0.000 C 
ATOM      5  C   UNL     1       2.947   4.684  20.000  0.00  0.00    +0.000 C 
ATOM      6  N   UNL     1       2.484   6.038  20.187  0.00  0.00    +0.000 N 
ATOM      7  C   UNL     1       1.218   6.492  20.725  0.00  0.00    +0.000 C 
ATOM      8  C   UNL     1       1.198   7.971  20.231  0.00  0.00    +0.000 C 
ENDROOT
BRANCH   5   9
ATOM      9  C   UNL     1       1.858   3.692  19.525  0.00  0.00    +0.000 C 
ATOM     10  C   UNL     1       2.288   2.741  18.402  0.00  0.00    +0.000 C 
ATOM     11  C   UNL     1       1.331   2.850  20.696  0.00  0.00    +0.000 C 
ENDBRANCH   5   9
BRANCH   1  12
ATOM     12  C   UNL     1       1.801   8.643  17.859  0.00  0.00    +0.000 C 
BRANCH  12  13
ATOM     13  C   UNL     1       1.298  10.075  18.130  0.00  0.00    +0.000 C 
BRANCH  13  16
ATOM     14  C   UNL     1      -0.768  11.430  18.110  0.00  0.00    +0.000 C 
ATOM     15  O   UNL     1      -0.155  12.479  18.296  0.00  0.00    +0.000 OA
ATOM     16  N   UNL     1      -0.152  10.202  18.026  0.00  0.00    +0.000 N 
ATOM     17  H   UNL     1      -0.701   9.350  17.988  0.00  0.00    +0.000 HD
BRANCH  14  22
ATOM     18  C   UNL     1      -6.539  11.902  17.772  0.00  0.00    +0.000 C 
ATOM     19  C   UNL     1      -5.049  11.733  17.890  0.00  0.00    +0.000 A 
ATOM     20  C   UNL     1      -4.318  11.272  16.781  0.00  0.00    +0.000 A 
ATOM     21  C   UNL     1      -2.926  11.135  16.840  0.00  0.00    +0.000 A 
ATOM     22  C   UNL     1      -2.247  11.467  18.016  0.00  0.00    +0.000 A 
ATOM     23  C   UNL     1      -2.964  11.919  19.128  0.00  0.00    +0.000 A 
ATOM     24  C   UNL     1      -4.354  12.047  19.068  0.00  0.00    +0.000 A 
ATOM     25 BR   UNL     1      -5.243  12.673  20.626  0.00  0.00    +0.000 Br
ENDBRANCH  14  22
ENDBRANCH  13  16
ENDBRANCH  12  13
ENDBRANCH   1  12
BRANCH   8  26
ATOM     26  C   UNL     1       1.768   8.954  21.273  0.00  0.00    +0.000 C 
BRANCH  26  27
ATOM     27  C   UNL     1       0.750   9.921  21.830  0.00  0.00    +0.000 A 
ATOM     28  C   UNL     1      -0.160   9.490  22.808  0.00  0.00    +0.000 A 
ATOM     29  C   UNL     1      -1.148  10.351  23.290  0.00  0.00    +0.000 A 
ATOM     30  C   UNL     1      -1.216  11.650  22.801  0.00  0.00    +0.000 A 
ATOM     31  C   UNL     1      -0.304  12.105  21.856  0.00  0.00    +0.000 A 
ATOM     32  C   UNL     1       0.682  11.243  21.371  0.00  0.00    +0.000 A 
BRANCH  30  33
ATOM     33  O   UNL     1      -2.178  12.517  23.226  0.00  0.00    +0.000 OA
ATOM     34  H   UNL     1      -2.769  12.712  22.480  0.00  0.00    +0.000 HD
ENDBRANCH  30  33
ENDBRANCH  26  27
ENDBRANCH   8  26
TORSDOF 8
ENDMDL
MODEL 6
REMARK VINA RESULT:      -7.6      2.900      5.345
REMARK  Name = 
REMARK  11 active torsions:
REMARK  status: ('A' for Active; 'I' for Inactive)
REMARK    1  A    between atoms: C_1  and  C_2
REMARK    2  A    between atoms: C_5  and  C_6
REMARK    3  A    between atoms: N_8  and  C_9
REMARK    4  A    between atoms: C_9  and  C_10
REMARK    5  A    between atoms: C_10  and  N_11
REMARK    6  A    between atoms: C_15  and  C_16
REMARK    7  A    between atoms: C_16  and  C_17
REMARK    8  A    between atoms: C_16  and  C_18
REMARK    9  A    between atoms: C_21  and  C_22
REMARK   10  A    between atoms: C_22  and  C_23
REMARK   11  A    between atoms: C_26  and  O_27
REMARK                            x       y       z     vdW  Elec       q    Type
REMARK                         _______ _______ _______ _____ _____    ______ ____
ROOT
ATOM      1  N   UNL     1       4.517   6.149  17.474  0.00  0.00    +0.000 N 
ATOM      2  C   UNL     1       4.352   5.088  18.319  0.00  0.00    +0.000 C 
ATOM      3  N   UNL     1       5.113   4.098  18.652  0.00  0.00    +0.000 NA
ATOM      4  C   UNL     1       4.228   3.323  19.588  0.00  0.00    +0.000 C 
ATOM      5  C   UNL     1       2.767   3.802  19.331  0.00  0.00    +0.000 C 
ATOM      6  N   UNL     1       3.064   5.102  18.779  0.00  0.00    +0.000 N 
ATOM      7  C   UNL     1       2.215   5.954  17.972  0.00  0.00    +0.000 C 
ATOM      8  C   UNL     1       3.266   6.934  17.367  0.00  0.00    +0.000 C 
ENDROOT
BRANCH   5   9
ATOM      9  C   UNL     1       1.937   2.884  18.402  0.00  0.00    +0.000 C 
ATOM     10  C   UNL     1       2.694   1.681  17.828  0.00  0.00    +0.000 C 
ATOM     11  C   UNL     1       0.680   2.367  19.118  0.00  0.00    +0.000 C 
ENDBRANCH   5   9
BRANCH   1  12
ATOM     12  C   UNL     1       5.470   6.156  16.377  0.00  0.00    +0.000 C 
BRANCH  12  13
ATOM     13  C   UNL     1       6.921   6.371  16.852  0.00  0.00    +0.000 C 
BRANCH  13  16
ATOM     14  C   UNL     1       8.085   8.197  18.042  0.00  0.00    +0.000 C 
ATOM     15  O   UNL     1       8.554   7.433  18.883  0.00  0.00    +0.000 OA
ATOM     16  N   UNL     1       7.266   7.779  17.017  0.00  0.00    +0.000 N 
ATOM     17  H   UNL     1       6.806   8.454  16.415  0.00  0.00    +0.000 HD
BRANCH  14  22
ATOM     18  C   UNL     1       9.486  13.818  18.339  0.00  0.00    +0.000 C 
ATOM     19  C   UNL     1       9.096  12.365  18.311  0.00  0.00    +0.000 A 
ATOM     20  C   UNL     1       8.068  11.944  17.449  0.00  0.00    +0.000 A 
ATOM     21  C   UNL     1       7.700  10.596  17.368  0.00  0.00    +0.000 A 
ATOM     22  C   UNL     1       8.367   9.648  18.150  0.00  0.00    +0.000 A 
ATOM     23  C   UNL     1       9.386  10.056  19.017  0.00  0.00    +0.000 A 
ATOM     24  C   UNL     1       9.745  11.404  19.101  0.00  0.00    +0.000 A 
ATOM     25 BR   UNL     1      11.143  11.863  20.302  0.00  0.00    +0.000 Br
ENDBRANCH  14  22
ENDBRANCH  13  16
ENDBRANCH  12  13
ENDBRANCH   1  12
BRANCH   8  26
ATOM     26  C   UNL     1       3.429   8.221  18.200  0.00  0.00    +0.000 C 
BRANCH  26  27
ATOM     27  C   UNL     1       2.125   8.825  18.664  0.00  0.00    +0.000 A 
ATOM     28  C   UNL     1       1.360   9.601  17.778  0.00  0.00    +0.000 A 
ATOM     29  C   UNL     1       0.183  10.218  18.207  0.00  0.00    +0.000 A 
ATOM     30  C   UNL     1      -0.235  10.048  19.521  0.00  0.00    +0.000 A 
ATOM     31  C   UNL     1       0.492   9.257  20.404  0.00  0.00    +0.000 A 
ATOM     32  C   UNL     1       1.671   8.643  19.977  0.00  0.00    +0.000 A 
BRANCH  30  33
ATOM     33  O   UNL     1      -1.364  10.651  19.990  0.00  0.00    +0.000 OA
ATOM     34  H   UNL     1      -1.611  11.362  19.377  0.00  0.00    +0.000 HD
ENDBRANCH  30  33
ENDBRANCH  26  27
ENDBRANCH   8  26
TORSDOF 8
ENDMDL
MODEL 7
REMARK VINA RESULT:      -7.6      7.238     11.077
REMARK  Name = 
REMARK  11 active torsions:
REMARK  status: ('A' for Active; 'I' for Inactive)
REMARK    1  A    between atoms: C_1  and  C_2
REMARK    2  A    between atoms: C_5  and  C_6
REMARK    3  A    between atoms: N_8  and  C_9
REMARK    4  A    between atoms: C_9  and  C_10
REMARK    5  A    between atoms: C_10  and  N_11
REMARK    6  A    between atoms: C_15  and  C_16
REMARK    7  A    between atoms: C_16  and  C_17
REMARK    8  A    between atoms: C_16  and  C_18
REMARK    9  A    between atoms: C_21  and  C_22
REMARK   10  A    between atoms: C_22  and  C_23
REMARK   11  A    between atoms: C_26  and  O_27
REMARK                            x       y       z     vdW  Elec       q    Type
REMARK                         _______ _______ _______ _____ _____    ______ ____
ROOT
ATOM      1  N   UNL     1       1.694   8.640  19.242  0.00  0.00    +0.000 N 
ATOM      2  C   UNL     1       2.423   7.489  19.339  0.00  0.00    +0.000 C 
ATOM      3  N   UNL     1       3.302   6.935  18.570  0.00  0.00    +0.000 NA
ATOM      4  C   UNL     1       3.620   5.670  19.319  0.00  0.00    +0.000 C 
ATOM      5  C   UNL     1       2.457   5.438  20.330  0.00  0.00    +0.000 C 
ATOM      6  N   UNL     1       1.998   6.802  20.443  0.00  0.00    +0.000 N 
ATOM      7  C   UNL     1       0.717   7.286  20.916  0.00  0.00    +0.000 C 
ATOM      8  C   UNL     1       0.726   8.743  20.359  0.00  0.00    +0.000 C 
ENDROOT
BRANCH   5   9
ATOM      9  C   UNL     1       1.377   4.434  19.860  0.00  0.00    +0.000 C 
ATOM     10  C   UNL     1       1.664   3.749  18.519  0.00  0.00    +0.000 C 
ATOM     11  C   UNL     1       1.140   3.345  20.917  0.00  0.00    +0.000 C 
ENDBRANCH   5   9
BRANCH   1  12
ATOM     12  C   UNL     1       1.416   9.308  17.983  0.00  0.00    +0.000 C 
BRANCH  12  13
ATOM     13  C   UNL     1       0.812  10.714  18.176  0.00  0.00    +0.000 C 
BRANCH  13  16
ATOM     14  C   UNL     1      -1.361  11.888  18.227  0.00  0.00    +0.000 C 
ATOM     15  O   UNL     1      -0.831  12.997  18.252  0.00  0.00    +0.000 OA
ATOM     16  N   UNL     1      -0.647  10.712  18.201  0.00  0.00    +0.000 N 
ATOM     17  H   UNL     1      -1.118   9.819  18.299  0.00  0.00    +0.000 HD
BRANCH  14  22
ATOM     18  C   UNL     1      -7.157  11.855  18.437  0.00  0.00    +0.000 C 
ATOM     19  C   UNL     1      -5.653  11.817  18.414  0.00  0.00    +0.000 A 
ATOM     20  C   UNL     1      -4.993  11.410  17.242  0.00  0.00    +0.000 A 
ATOM     21  C   UNL     1      -3.595  11.395  17.169  0.00  0.00    +0.000 A 
ATOM     22  C   UNL     1      -2.839  11.796  18.274  0.00  0.00    +0.000 A 
ATOM     23  C   UNL     1      -3.485  12.195  19.449  0.00  0.00    +0.000 A 
ATOM     24  C   UNL     1      -4.881  12.202  19.520  0.00  0.00    +0.000 A 
ATOM     25 BR   UNL     1      -5.670  12.764  21.154  0.00  0.00    +0.000 Br
ENDBRANCH  14  22
ENDBRANCH  13  16
ENDBRANCH  12  13
ENDBRANCH   1  12
BRANCH   8  26
ATOM     26  C   UNL     1       1.266   9.767  21.377  0.00  0.00    +0.000 C 
BRANCH  26  27
ATOM     27  C   UNL     1       0.235  10.757  21.863  0.00  0.00    +0.000 A 
ATOM     28  C   UNL     1       0.301  12.096  21.443  0.00  0.00    +0.000 A 
ATOM     29  C   UNL     1      -0.606  13.039  21.930  0.00  0.00    +0.000 A 
ATOM     30  C   UNL     1      -1.588  12.639  22.828  0.00  0.00    +0.000 A 
ATOM     31  C   UNL     1      -1.689  11.312  23.230  0.00  0.00    +0.000 A 
ATOM     32  C   UNL     1      -0.780  10.369  22.747  0.00  0.00    +0.000 A 
BRANCH  30  33
ATOM     33  O   UNL     1      -2.480  13.530  23.347  0.00  0.00    +0.000 OA
ATOM     34  H   UNL     1      -2.240  14.420  23.040  0.00  0.00    +0.000 HD
ENDBRANCH  30  33
ENDBRANCH  26  27
ENDBRANCH   8  26
TORSDOF 8
ENDMDL
MODEL 8
REMARK VINA RESULT:      -7.5      6.752      9.486
REMARK  Name = 
REMARK  11 active torsions:
REMARK  status: ('A' for Active; 'I' for Inactive)
REMARK    1  A    between atoms: C_1  and  C_2
REMARK    2  A    between atoms: C_5  and  C_6
REMARK    3  A    between atoms: N_8  and  C_9
REMARK    4  A    between atoms: C_9  and  C_10
REMARK    5  A    between atoms: C_10  and  N_11
REMARK    6  A    between atoms: C_15  and  C_16
REMARK    7  A    between atoms: C_16  and  C_17
REMARK    8  A    between atoms: C_16  and  C_18
REMARK    9  A    between atoms: C_21  and  C_22
REMARK   10  A    between atoms: C_22  and  C_23
REMARK   11  A    between atoms: C_26  and  O_27
REMARK                            x       y       z     vdW  Elec       q    Type
REMARK                         _______ _______ _______ _____ _____    ______ ____
ROOT
ATOM      1  N   UNL     1       1.681   7.456  19.818  0.00  0.00    +0.000 N 
ATOM      2  C   UNL     1       1.752   6.093  19.759  0.00  0.00    +0.000 C 
ATOM      3  N   UNL     1       1.353   5.154  20.552  0.00  0.00    +0.000 NA
ATOM      4  C   UNL     1       1.828   3.919  19.838  0.00  0.00    +0.000 C 
ATOM      5  C   UNL     1       2.914   4.375  18.817  0.00  0.00    +0.000 C 
ATOM      6  N   UNL     1       2.500   5.749  18.666  0.00  0.00    +0.000 N 
ATOM      7  C   UNL     1       3.265   6.872  18.164  0.00  0.00    +0.000 C 
ATOM      8  C   UNL     1       2.414   8.069  18.686  0.00  0.00    +0.000 C 
ENDROOT
BRANCH   5   9
ATOM      9  C   UNL     1       4.374   4.193  19.296  0.00  0.00    +0.000 C 
ATOM     10  C   UNL     1       4.651   2.895  20.064  0.00  0.00    +0.000 C 
ATOM     11  C   UNL     1       5.355   4.276  18.118  0.00  0.00    +0.000 C 
ENDBRANCH   5   9
BRANCH   1  12
ATOM     12  C   UNL     1       1.517   8.196  21.057  0.00  0.00    +0.000 C 
BRANCH  12  13
ATOM     13  C   UNL     1       0.060   8.193  21.563  0.00  0.00    +0.000 C 
BRANCH  13  16
ATOM     14  C   UNL     1      -0.443  10.264  22.812  0.00  0.00    +0.000 C 
ATOM     15  O   UNL     1       0.085   9.846  23.840  0.00  0.00    +0.000 OA
ATOM     16  N   UNL     1      -0.517   9.530  21.650  0.00  0.00    +0.000 N 
ATOM     17  H   UNL     1      -1.062   9.863  20.862  0.00  0.00    +0.000 HD
BRANCH  14  22
ATOM     18  C   UNL     1      -2.933  15.490  23.179  0.00  0.00    +0.000 C 
ATOM     19  C   UNL     1      -2.317  14.125  23.038  0.00  0.00    +0.000 A 
ATOM     20  C   UNL     1      -0.997  14.010  22.569  0.00  0.00    +0.000 A 
ATOM     21  C   UNL     1      -0.377  12.760  22.458  0.00  0.00    +0.000 A 
ATOM     22  C   UNL     1      -1.075  11.605  22.822  0.00  0.00    +0.000 A 
ATOM     23  C   UNL     1      -2.392  11.706  23.283  0.00  0.00    +0.000 A 
ATOM     24  C   UNL     1      -3.010  12.955  23.386  0.00  0.00    +0.000 A 
ATOM     25 BR   UNL     1      -4.798  12.995  24.025  0.00  0.00    +0.000 Br
ENDBRANCH  14  22
ENDBRANCH  13  16
ENDBRANCH  12  13
ENDBRANCH   1  12
BRANCH   8  26
ATOM     26  C   UNL     1       1.384   8.564  17.651  0.00  0.00    +0.000 C 
BRANCH  26  27
ATOM     27  C   UNL     1       0.724   9.873  18.015  0.00  0.00    +0.000 A 
ATOM     28  C   UNL     1       1.510  10.959  18.433  0.00  0.00    +0.000 A 
ATOM     29  C   UNL     1       0.913  12.156  18.831  0.00  0.00    +0.000 A 
ATOM     30  C   UNL     1      -0.471  12.271  18.800  0.00  0.00    +0.000 A 
ATOM     31  C   UNL     1      -1.264  11.218  18.359  0.00  0.00    +0.000 A 
ATOM     32  C   UNL     1      -0.668  10.018  17.963  0.00  0.00    +0.000 A 
BRANCH  30  33
ATOM     33  O   UNL     1      -1.097  13.413  19.203  0.00  0.00    +0.000 OA
ATOM     34  H   UNL     1      -0.592  14.174  18.874  0.00  0.00    +0.000 HD
ENDBRANCH  30  33
ENDBRANCH  26  27
ENDBRANCH   8  26
TORSDOF 8
ENDMDL
MODEL 9
REMARK VINA RESULT:      -7.5      5.049      7.373
REMARK  Name = 
REMARK  11 active torsions:
REMARK  status: ('A' for Active; 'I' for Inactive)
REMARK    1  A    between atoms: C_1  and  C_2
REMARK    2  A    between atoms: C_5  and  C_6
REMARK    3  A    between atoms: N_8  and  C_9
REMARK    4  A    between atoms: C_9  and  C_10
REMARK    5  A    between atoms: C_10  and  N_11
REMARK    6  A    between atoms: C_15  and  C_16
REMARK    7  A    between atoms: C_16  and  C_17
REMARK    8  A    between atoms: C_16  and  C_18
REMARK    9  A    between atoms: C_21  and  C_22
REMARK   10  A    between atoms: C_22  and  C_23
REMARK   11  A    between atoms: C_26  and  O_27
REMARK                            x       y       z     vdW  Elec       q    Type
REMARK                         _______ _______ _______ _____ _____    ______ ____
ROOT
ATOM      1  N   UNL     1       3.197   6.663  18.323  0.00  0.00    +0.000 N 
ATOM      2  C   UNL     1       2.798   5.372  18.115  0.00  0.00    +0.000 C 
ATOM      3  N   UNL     1       1.644   4.830  17.905  0.00  0.00    +0.000 NA
ATOM      4  C   UNL     1       1.996   3.370  17.819  0.00  0.00    +0.000 C 
ATOM      5  C   UNL     1       3.404   3.205  18.465  0.00  0.00    +0.000 C 
ATOM      6  N   UNL     1       3.882   4.555  18.283  0.00  0.00    +0.000 N 
ATOM      7  C   UNL     1       4.961   5.230  18.973  0.00  0.00    +0.000 C 
ATOM      8  C   UNL     1       4.643   6.719  18.637  0.00  0.00    +0.000 C 
ENDROOT
BRANCH   5   9
ATOM      9  C   UNL     1       3.392   2.721  19.935  0.00  0.00    +0.000 C 
ATOM     10  C   UNL     1       2.038   2.210  20.442  0.00  0.00    +0.000 C 
ATOM     11  C   UNL     1       4.438   1.619  20.161  0.00  0.00    +0.000 C 
ENDBRANCH   5   9
BRANCH   1  12
ATOM     12  C   UNL     1       2.311   7.705  18.810  0.00  0.00    +0.000 C 
BRANCH  12  13
ATOM     13  C   UNL     1       2.287   8.942  17.889  0.00  0.00    +0.000 C 
BRANCH  13  16
ATOM     14  C   UNL     1       0.313  10.279  18.536  0.00  0.00    +0.000 C 
ATOM     15  O   UNL     1       0.823  10.635  19.595  0.00  0.00    +0.000 OA
ATOM     16  N   UNL     1       0.940   9.444  17.639  0.00  0.00    +0.000 N 
ATOM     17  H   UNL     1       0.441   9.082  16.834  0.00  0.00    +0.000 HD
BRANCH  14  22
ATOM     18  C   UNL     1      -5.166  11.708  17.273  0.00  0.00    +0.000 C 
ATOM     19  C   UNL     1      -3.727  11.379  17.567  0.00  0.00    +0.000 A 
ATOM     20  C   UNL     1      -3.181  11.733  18.813  0.00  0.00    +0.000 A 
ATOM     21  C   UNL     1      -1.858  11.413  19.138  0.00  0.00    +0.000 A 
ATOM     22  C   UNL     1      -1.064  10.725  18.215  0.00  0.00    +0.000 A 
ATOM     23  C   UNL     1      -1.595  10.375  16.969  0.00  0.00    +0.000 A 
ATOM     24  C   UNL     1      -2.914  10.702  16.645  0.00  0.00    +0.000 A 
ATOM     25 BR   UNL     1      -3.549  10.182  14.933  0.00  0.00    +0.000 Br
ENDBRANCH  14  22
ENDBRANCH  13  16
ENDBRANCH  12  13
ENDBRANCH   1  12
BRANCH   8  26
ATOM     26  C   UNL     1       5.392   7.221  17.387  0.00  0.00    +0.000 C 
BRANCH  26  27
ATOM     27  C   UNL     1       5.724   6.137  16.389  0.00  0.00    +0.000 A 
ATOM     28  C   UNL     1       6.894   5.378  16.546  0.00  0.00    +0.000 A 
ATOM     29  C   UNL     1       7.248   4.413  15.601  0.00  0.00    +0.000 A 
ATOM     30  C   UNL     1       6.424   4.201  14.503  0.00  0.00    +0.000 A 
ATOM     31  C   UNL     1       5.244   4.920  14.348  0.00  0.00    +0.000 A 
ATOM     32  C   UNL     1       4.891   5.887  15.291  0.00  0.00    +0.000 A 
BRANCH  30  33
ATOM     33  O   UNL     1       6.742   3.287  13.543  0.00  0.00    +0.000 OA
ATOM     34  H   UNL     1       6.890   3.757  12.707  0.00  0.00    +0.000 HD
ENDBRANCH  30  33
ENDBRANCH  26  27
ENDBRANCH   8  26
TORSDOF 8
ENDMDL
