MODEL 1
REMARK VINA RESULT:      -8.0      0.000      0.000
REMARK  Name = 
REMARK  6 active torsions:
REMARK  status: ('A' for Active; 'I' for Inactive)
REMARK    1  A    between atoms: C_1  and  C_2
REMARK    2  A    between atoms: C_2  and  C_3
REMARK    3  A    between atoms: C_2  and  C_22
REMARK    4  A    between atoms: C_3  and  N_4
REMARK    5  A    between atoms: N_9  and  C_10
REMARK    6  A    between atoms: C_12  and  O_13
REMARK                            x       y       z     vdW  Elec       q    Type
REMARK                         _______ _______ _______ _____ _____    ______ ____
ROOT
ATOM      1  N   UNL     1       1.169   9.964  18.997  0.00  0.00    +0.000 N 
ATOM      2  N   UNL     1       1.797   9.979  17.798  0.00  0.00    +0.000 NA
ATOM      3  C   UNL     1       2.418   8.793  17.761  0.00  0.00    +0.000 A 
ATOM      4  C   UNL     1       2.206   8.025  18.926  0.00  0.00    +0.000 A 
ATOM      5  C   UNL     1       2.550   6.764  19.427  0.00  0.00    +0.000 A 
ATOM      6  N   UNL     1       3.363   5.864  18.732  0.00  0.00    +0.000 N 
ATOM      7  N   UNL     1       2.057   6.423  20.649  0.00  0.00    +0.000 NA
ATOM      8  C   UNL     1       1.293   7.300  21.323  0.00  0.00    +0.000 A 
ATOM      9  N   UNL     1       0.889   8.512  20.921  0.00  0.00    +0.000 NA
ATOM     10  C   UNL     1       1.379   8.812  19.707  0.00  0.00    +0.000 A 
ATOM     11  H   UNL     1       4.010   6.258  18.062  0.00  0.00    +0.000 HD
ENDROOT
BRANCH   6  12
ATOM     12  C   UNL     1       3.308   4.455  18.740  0.00  0.00    +0.000 A 
ATOM     13  C   UNL     1       4.302   3.699  19.383  0.00  0.00    +0.000 A 
ATOM     14  C   UNL     1       4.246   2.308  19.391  0.00  0.00    +0.000 A 
ATOM     15  C   UNL     1       3.226   1.634  18.735  0.00  0.00    +0.000 A 
ATOM     16  C   UNL     1       2.247   2.361  18.058  0.00  0.00    +0.000 A 
ATOM     17  C   UNL     1       2.288   3.760  18.062  0.00  0.00    +0.000 A 
ATOM     18 CL   UNL     1       1.054   4.616  17.201  0.00  0.00    +0.000 Cl
BRANCH  14  19
ATOM     19  O   UNL     1       5.183   1.570  20.050  0.00  0.00    +0.000 OA
ATOM     20  H   UNL     1       5.534   2.100  20.785  0.00  0.00    +0.000 HD
ENDBRANCH  14  19
ENDBRANCH   6  12
BRANCH   1  21
ATOM     21  C   UNL     1       0.334  11.075  19.406  0.00  0.00    +0.000 C 
BRANCH  21  23
ATOM     22  C   UNL     1      -0.276  13.361  18.411  0.00  0.00    +0.000 C 
ATOM     23  C   UNL     1      -0.293  11.838  18.226  0.00  0.00    +0.000 C 
BRANCH  23  24
ATOM     24  C   UNL     1      -1.717  11.357  17.988  0.00  0.00    +0.000 A 
ATOM     25  C   UNL     1      -2.785  11.973  18.656  0.00  0.00    +0.000 A 
ATOM     26  C   UNL     1      -4.098  11.550  18.439  0.00  0.00    +0.000 A 
ATOM     27  C   UNL     1      -4.360  10.504  17.558  0.00  0.00    +0.000 A 
ATOM     28  C   UNL     1      -3.310   9.879  16.891  0.00  0.00    +0.000 A 
ATOM     29  C   UNL     1      -1.997  10.301  17.106  0.00  0.00    +0.000 A 
ENDBRANCH  23  24
ENDBRANCH  21  23
ENDBRANCH   1  21
TORSDOF 5
ENDMDL
MODEL 2
REMARK VINA RESULT:      -7.9      1.431      1.913
REMARK  Name = 
REMARK  6 active torsions:
REMARK  status: ('A' for Active; 'I' for Inactive)
REMARK    1  A    between atoms: C_1  and  C_2
REMARK    2  A    between atoms: C_2  and  C_3
REMARK    3  A    between atoms: C_2  and  C_22
REMARK    4  A    between atoms: C_3  and  N_4
REMARK    5  A    between atoms: N_9  and  C_10
REMARK    6  A    between atoms: C_12  and  O_13
REMARK                            x       y       z     vdW  Elec       q    Type
REMARK                         _______ _______ _______ _____ _____    ______ ____
ROOT
ATOM      1  N   UNL     1       1.097  10.163  19.128  0.00  0.00    +0.000 N 
ATOM      2  N   UNL     1       1.682  10.183  17.908  0.00  0.00    +0.000 NA
ATOM      3  C   UNL     1       2.236   8.967  17.813  0.00  0.00    +0.000 A 
ATOM      4  C   UNL     1       2.025   8.175  18.961  0.00  0.00    +0.000 A 
ATOM      5  C   UNL     1       2.317   6.882  19.411  0.00  0.00    +0.000 A 
ATOM      6  N   UNL     1       3.055   5.963  18.661  0.00  0.00    +0.000 N 
ATOM      7  N   UNL     1       1.850   6.529  20.640  0.00  0.00    +0.000 NA
ATOM      8  C   UNL     1       1.159   7.424  21.368  0.00  0.00    +0.000 A 
ATOM      9  N   UNL     1       0.807   8.668  21.017  0.00  0.00    +0.000 NA
ATOM     10  C   UNL     1       1.270   8.980  19.795  0.00  0.00    +0.000 A 
ATOM     11  H   UNL     1       3.698   6.343  17.979  0.00  0.00    +0.000 HD
ENDROOT
BRANCH   6  12
ATOM     12  C   UNL     1       2.924   4.559  18.628  0.00  0.00    +0.000 A 
ATOM     13  C   UNL     1       1.659   3.958  18.523  0.00  0.00    +0.000 A 
ATOM     14  C   UNL     1       1.529   2.573  18.491  0.00  0.00    +0.000 A 
ATOM     15  C   UNL     1       2.643   1.752  18.595  0.00  0.00    +0.000 A 
ATOM     16  C   UNL     1       3.907   2.324  18.736  0.00  0.00    +0.000 A 
ATOM     17  C   UNL     1       4.045   3.716  18.753  0.00  0.00    +0.000 A 
ATOM     18 CL   UNL     1       5.633   4.378  18.938  0.00  0.00    +0.000 Cl
BRANCH  14  19
ATOM     19  O   UNL     1       0.309   1.983  18.345  0.00  0.00    +0.000 OA
ATOM     20  H   UNL     1      -0.118   2.347  17.551  0.00  0.00    +0.000 HD
ENDBRANCH  14  19
ENDBRANCH   6  12
BRANCH   1  21
ATOM     21  C   UNL     1       0.338  11.304  19.601  0.00  0.00    +0.000 C 
BRANCH  21  23
ATOM     22  C   UNL     1      -0.446  13.592  18.743  0.00  0.00    +0.000 C 
ATOM     23  C   UNL     1      -0.362  12.084  18.474  0.00  0.00    +0.000 C 
BRANCH  23  24
ATOM     24  C   UNL     1      -1.754  11.518  18.231  0.00  0.00    +0.000 A 
ATOM     25  C   UNL     1      -1.916  10.380  17.427  0.00  0.00    +0.000 A 
ATOM     26  C   UNL     1      -3.184   9.842  17.204  0.00  0.00    +0.000 A 
ATOM     27  C   UNL     1      -4.307  10.436  17.776  0.00  0.00    +0.000 A 
ATOM     28  C   UNL     1      -4.163  11.569  18.573  0.00  0.00    +0.000 A 
ATOM     29  C   UNL     1      -2.895  12.107  18.798  0.00  0.00    +0.000 A 
ENDBRANCH  23  24
ENDBRANCH  21  23
ENDBRANCH   1  21
TORSDOF 5
ENDMDL
MODEL 3
REMARK VINA RESULT:      -7.8      4.657      8.877
REMARK  Name = 
REMARK  6 active torsions:
REMARK  status: ('A' for Active; 'I' for Inactive)
REMARK    1  A    between atoms: C_1  and  C_2
REMARK    2  A    between atoms: C_2  and  C_3
REMARK    3  A    between atoms: C_2  and  C_22
REMARK    4  A    between atoms: C_3  and  N_4
REMARK    5  A    between atoms: N_9  and  C_10
REMARK    6  A    between atoms: C_12  and  O_13
REMARK                            x       y       z     vdW  Elec       q    Type
REMARK                         _______ _______ _______ _____ _____    ______ ____
ROOT
ATOM      1  N   UNL     1       1.403   8.601  19.766  0.00  0.00    +0.000 N 
ATOM      2  N   UNL     1       1.721   8.210  21.022  0.00  0.00    +0.000 NA
ATOM      3  C   UNL     1       1.187   9.169  21.788  0.00  0.00    +0.000 A 
ATOM      4  C   UNL     1       0.541  10.176  21.038  0.00  0.00    +0.000 A 
ATOM      5  C   UNL     1      -0.187  11.350  21.267  0.00  0.00    +0.000 A 
ATOM      6  N   UNL     1      -0.425  11.861  22.545  0.00  0.00    +0.000 N 
ATOM      7  N   UNL     1      -0.673  12.004  20.177  0.00  0.00    +0.000 NA
ATOM      8  C   UNL     1      -0.422  11.520  18.947  0.00  0.00    +0.000 A 
ATOM      9  N   UNL     1       0.237  10.399  18.628  0.00  0.00    +0.000 NA
ATOM     10  C   UNL     1       0.691   9.770  19.724  0.00  0.00    +0.000 A 
ATOM     11  H   UNL     1       0.237  11.611  23.267  0.00  0.00    +0.000 HD
ENDROOT
BRANCH   6  12
ATOM     12  C   UNL     1      -1.554  12.573  23.002  0.00  0.00    +0.000 A 
ATOM     13  C   UNL     1      -2.697  11.895  23.458  0.00  0.00    +0.000 A 
ATOM     14  C   UNL     1      -3.810  12.597  23.908  0.00  0.00    +0.000 A 
ATOM     15  C   UNL     1      -3.831  13.985  23.888  0.00  0.00    +0.000 A 
ATOM     16  C   UNL     1      -2.722  14.681  23.407  0.00  0.00    +0.000 A 
ATOM     17  C   UNL     1      -1.594  13.980  22.968  0.00  0.00    +0.000 A 
ATOM     18 CL   UNL     1      -0.246  14.889  22.373  0.00  0.00    +0.000 Cl
BRANCH  14  19
ATOM     19  O   UNL     1      -4.905  11.946  24.392  0.00  0.00    +0.000 OA
ATOM     20  H   UNL     1      -5.688  12.503  24.243  0.00  0.00    +0.000 HD
ENDBRANCH  14  19
ENDBRANCH   6  12
BRANCH   1  21
ATOM     21  C   UNL     1       1.771   7.788  18.624  0.00  0.00    +0.000 C 
BRANCH  21  23
ATOM     22  C   UNL     1       3.937   6.615  17.904  0.00  0.00    +0.000 C 
ATOM     23  C   UNL     1       2.821   6.711  18.951  0.00  0.00    +0.000 C 
BRANCH  23  24
ATOM     24  C   UNL     1       2.147   5.357  19.123  0.00  0.00    +0.000 A 
ATOM     25  C   UNL     1       1.772   4.920  20.402  0.00  0.00    +0.000 A 
ATOM     26  C   UNL     1       1.143   3.686  20.575  0.00  0.00    +0.000 A 
ATOM     27  C   UNL     1       0.885   2.871  19.475  0.00  0.00    +0.000 A 
ATOM     28  C   UNL     1       1.255   3.290  18.199  0.00  0.00    +0.000 A 
ATOM     29  C   UNL     1       1.883   4.524  18.025  0.00  0.00    +0.000 A 
ENDBRANCH  23  24
ENDBRANCH  21  23
ENDBRANCH   1  21
TORSDOF 5
ENDMDL
MODEL 4
REMARK VINA RESULT:      -7.6      2.138      2.831
REMARK  Name = 
REMARK  6 active torsions:
REMARK  status: ('A' for Active; 'I' for Inactive)
REMARK    1  A    between atoms: C_1  and  C_2
REMARK    2  A    between atoms: C_2  and  C_3
REMARK    3  A    between atoms: C_2  and  C_22
REMARK    4  A    between atoms: C_3  and  N_4
REMARK    5  A    between atoms: N_9  and  C_10
REMARK    6  A    between atoms: C_12  and  O_13
REMARK                            x       y       z     vdW  Elec       q    Type
REMARK                         _______ _______ _______ _____ _____    ______ ____
ROOT
ATOM      1  N   UNL     1       1.246  10.272  18.929  0.00  0.00    +0.000 N 
ATOM      2  N   UNL     1       1.780  10.226  17.686  0.00  0.00    +0.000 NA
ATOM      3  C   UNL     1       2.291   8.991  17.616  0.00  0.00    +0.000 A 
ATOM      4  C   UNL     1       2.103   8.249  18.802  0.00  0.00    +0.000 A 
ATOM      5  C   UNL     1       2.374   6.965  19.289  0.00  0.00    +0.000 A 
ATOM      6  N   UNL     1       3.051   5.996  18.545  0.00  0.00    +0.000 N 
ATOM      7  N   UNL     1       1.948   6.674  20.548  0.00  0.00    +0.000 NA
ATOM      8  C   UNL     1       1.316   7.618  21.269  0.00  0.00    +0.000 A 
ATOM      9  N   UNL     1       0.988   8.858  20.884  0.00  0.00    +0.000 NA
ATOM     10  C   UNL     1       1.409   9.109  19.634  0.00  0.00    +0.000 A 
ATOM     11  H   UNL     1       3.677   6.329  17.823  0.00  0.00    +0.000 HD
ENDROOT
BRANCH   6  12
ATOM     12  C   UNL     1       2.875   4.596  18.572  0.00  0.00    +0.000 A 
ATOM     13  C   UNL     1       1.590   4.032  18.500  0.00  0.00    +0.000 A 
ATOM     14  C   UNL     1       1.416   2.652  18.527  0.00  0.00    +0.000 A 
ATOM     15  C   UNL     1       2.504   1.801  18.659  0.00  0.00    +0.000 A 
ATOM     16  C   UNL     1       3.787   2.337  18.767  0.00  0.00    +0.000 A 
ATOM     17  C   UNL     1       3.970   3.724  18.724  0.00  0.00    +0.000 A 
ATOM     18 CL   UNL     1       5.580   4.342  18.871  0.00  0.00    +0.000 Cl
BRANCH  14  19
ATOM     19  O   UNL     1       0.177   2.096  18.414  0.00  0.00    +0.000 OA
ATOM     20  H   UNL     1       0.063   1.446  19.128  0.00  0.00    +0.000 HD
ENDBRANCH  14  19
ENDBRANCH   6  12
BRANCH   1  21
ATOM     21  C   UNL     1       0.543  11.453  19.388  0.00  0.00    +0.000 C 
BRANCH  21  23
ATOM     22  C   UNL     1      -1.568  12.109  18.084  0.00  0.00    +0.000 C 
ATOM     23  C   UNL     1      -0.988  11.338  19.277  0.00  0.00    +0.000 C 
BRANCH  23  24
ATOM     24  C   UNL     1      -1.644  11.802  20.569  0.00  0.00    +0.000 A 
ATOM     25  C   UNL     1      -1.111  11.407  21.804  0.00  0.00    +0.000 A 
ATOM     26  C   UNL     1      -1.694  11.834  22.999  0.00  0.00    +0.000 A 
ATOM     27  C   UNL     1      -2.820  12.654  22.974  0.00  0.00    +0.000 A 
ATOM     28  C   UNL     1      -3.363  13.051  21.755  0.00  0.00    +0.000 A 
ATOM     29  C   UNL     1      -2.780  12.627  20.560  0.00  0.00    +0.000 A 
ENDBRANCH  23  24
ENDBRANCH  21  23
ENDBRANCH   1  21
TORSDOF 5
ENDMDL
MODEL 5
REMARK VINA RESULT:      -7.6      1.522      2.318
REMARK  Name = 
REMARK  6 active torsions:
REMARK  status: ('A' for Active; 'I' for Inactive)
REMARK    1  A    between atoms: C_1  and  C_2
REMARK    2  A    between atoms: C_2  and  C_3
REMARK    3  A    between atoms: C_2  and  C_22
REMARK    4  A    between atoms: C_3  and  N_4
REMARK    5  A    between atoms: N_9  and  C_10
REMARK    6  A    between atoms: C_12  and  O_13
REMARK                            x       y       z     vdW  Elec       q    Type
REMARK                         _______ _______ _______ _____ _____    ______ ____
ROOT
ATOM      1  N   UNL     1       1.365   9.860  18.711  0.00  0.00    +0.000 N 
ATOM      2  N   UNL     1       2.026   9.811  17.531  0.00  0.00    +0.000 NA
ATOM      3  C   UNL     1       2.625   8.614  17.563  0.00  0.00    +0.000 A 
ATOM      4  C   UNL     1       2.366   7.901  18.754  0.00  0.00    +0.000 A 
ATOM      5  C   UNL     1       2.671   6.657  19.318  0.00  0.00    +0.000 A 
ATOM      6  N   UNL     1       3.486   5.714  18.687  0.00  0.00    +0.000 N 
ATOM      7  N   UNL     1       2.137   6.379  20.539  0.00  0.00    +0.000 NA
ATOM      8  C   UNL     1       1.372   7.299  21.153  0.00  0.00    +0.000 A 
ATOM      9  N   UNL     1       1.003   8.499  20.687  0.00  0.00    +0.000 NA
ATOM     10  C   UNL     1       1.533   8.737  19.476  0.00  0.00    +0.000 A 
ATOM     11  H   UNL     1       4.158   6.066  18.019  0.00  0.00    +0.000 HD
ENDROOT
BRANCH   6  12
ATOM     12  C   UNL     1       3.403   4.307  18.754  0.00  0.00    +0.000 A 
ATOM     13  C   UNL     1       4.399   3.558  19.400  0.00  0.00    +0.000 A 
ATOM     14  C   UNL     1       4.317   2.170  19.466  0.00  0.00    +0.000 A 
ATOM     15  C   UNL     1       3.266   1.491  18.867  0.00  0.00    +0.000 A 
ATOM     16  C   UNL     1       2.282   2.210  18.188  0.00  0.00    +0.000 A 
ATOM     17  C   UNL     1       2.351   3.607  18.133  0.00  0.00    +0.000 A 
ATOM     18 CL   UNL     1       1.110   4.453  17.272  0.00  0.00    +0.000 Cl
BRANCH  14  19
ATOM     19  O   UNL     1       5.257   1.440  20.129  0.00  0.00    +0.000 OA
ATOM     20  H   UNL     1       5.808   2.046  20.653  0.00  0.00    +0.000 HD
ENDBRANCH  14  19
ENDBRANCH   6  12
BRANCH   1  21
ATOM     21  C   UNL     1       0.540  11.004  19.048  0.00  0.00    +0.000 C 
BRANCH  21  23
ATOM     22  C   UNL     1      -1.881  10.714  18.248  0.00  0.00    +0.000 C 
ATOM     23  C   UNL     1      -0.904  10.628  19.426  0.00  0.00    +0.000 C 
BRANCH  23  24
ATOM     24  C   UNL     1      -1.389  11.501  20.574  0.00  0.00    +0.000 A 
ATOM     25  C   UNL     1      -2.300  12.538  20.326  0.00  0.00    +0.000 A 
ATOM     26  C   UNL     1      -2.763  13.342  21.369  0.00  0.00    +0.000 A 
ATOM     27  C   UNL     1      -2.319  13.124  22.671  0.00  0.00    +0.000 A 
ATOM     28  C   UNL     1      -1.411  12.101  22.933  0.00  0.00    +0.000 A 
ATOM     29  C   UNL     1      -0.947  11.296  21.890  0.00  0.00    +0.000 A 
ENDBRANCH  23  24
ENDBRANCH  21  23
ENDBRANCH   1  21
TORSDOF 5
ENDMDL
MODEL 6
REMARK VINA RESULT:      -7.6      4.064      8.821
REMARK  Name = 
REMARK  6 active torsions:
REMARK  status: ('A' for Active; 'I' for Inactive)
REMARK    1  A    between atoms: C_1  and  C_2
REMARK    2  A    between atoms: C_2  and  C_3
REMARK    3  A    between atoms: C_2  and  C_22
REMARK    4  A    between atoms: C_3  and  N_4
REMARK    5  A    between atoms: N_9  and  C_10
REMARK    6  A    between atoms: C_12  and  O_13
REMARK                            x       y       z     vdW  Elec       q    Type
REMARK                         _______ _______ _______ _____ _____    ______ ____
ROOT
ATOM      1  N   UNL     1       2.468   7.377  18.683  0.00  0.00    +0.000 N 
ATOM      2  N   UNL     1       2.627   8.102  17.551  0.00  0.00    +0.000 NA
ATOM      3  C   UNL     1       1.979   9.242  17.823  0.00  0.00    +0.000 A 
ATOM      4  C   UNL     1       1.397   9.252  19.108  0.00  0.00    +0.000 A 
ATOM      5  C   UNL     1       0.665  10.125  19.921  0.00  0.00    +0.000 A 
ATOM      6  N   UNL     1       0.266  11.398  19.506  0.00  0.00    +0.000 N 
ATOM      7  N   UNL     1       0.339   9.689  21.169  0.00  0.00    +0.000 NA
ATOM      8  C   UNL     1       0.706   8.455  21.556  0.00  0.00    +0.000 A 
ATOM      9  N   UNL     1       1.426   7.561  20.867  0.00  0.00    +0.000 NA
ATOM     10  C   UNL     1       1.744   8.026  19.647  0.00  0.00    +0.000 A 
ATOM     11  H   UNL     1       0.165  11.542  18.509  0.00  0.00    +0.000 HD
ENDROOT
BRANCH   6  12
ATOM     12  C   UNL     1       0.116  12.563  20.288  0.00  0.00    +0.000 A 
ATOM     13  C   UNL     1       1.218  13.134  20.946  0.00  0.00    +0.000 A 
ATOM     14  C   UNL     1       1.071  14.282  21.717  0.00  0.00    +0.000 A 
ATOM     15  C   UNL     1      -0.174  14.873  21.881  0.00  0.00    +0.000 A 
ATOM     16  C   UNL     1      -1.290  14.305  21.267  0.00  0.00    +0.000 A 
ATOM     17  C   UNL     1      -1.145  13.160  20.477  0.00  0.00    +0.000 A 
ATOM     18 CL   UNL     1      -2.561  12.488  19.742  0.00  0.00    +0.000 Cl
BRANCH  14  19
ATOM     19  O   UNL     1       2.143  14.866  22.322  0.00  0.00    +0.000 OA
ATOM     20  H   UNL     1       1.907  15.067  23.244  0.00  0.00    +0.000 HD
ENDBRANCH  14  19
ENDBRANCH   6  12
BRANCH   1  21
ATOM     21  C   UNL     1       3.074   6.067  18.811  0.00  0.00    +0.000 C 
BRANCH  21  23
ATOM     22  C   UNL     1       3.868   4.229  17.206  0.00  0.00    +0.000 C 
ATOM     23  C   UNL     1       3.991   5.697  17.632  0.00  0.00    +0.000 C 
BRANCH  23  24
ATOM     24  C   UNL     1       5.438   6.024  17.971  0.00  0.00    +0.000 A 
ATOM     25  C   UNL     1       6.129   6.992  17.227  0.00  0.00    +0.000 A 
ATOM     26  C   UNL     1       7.453   7.311  17.532  0.00  0.00    +0.000 A 
ATOM     27  C   UNL     1       8.105   6.665  18.579  0.00  0.00    +0.000 A 
ATOM     28  C   UNL     1       7.434   5.698  19.324  0.00  0.00    +0.000 A 
ATOM     29  C   UNL     1       6.110   5.379  19.021  0.00  0.00    +0.000 A 
ENDBRANCH  23  24
ENDBRANCH  21  23
ENDBRANCH   1  21
TORSDOF 5
ENDMDL
MODEL 7
REMARK VINA RESULT:      -7.6      2.357      3.314
REMARK  Name = 
REMARK  6 active torsions:
REMARK  status: ('A' for Active; 'I' for Inactive)
REMARK    1  A    between atoms: C_1  and  C_2
REMARK    2  A    between atoms: C_2  and  C_3
REMARK    3  A    between atoms: C_2  and  C_22
REMARK    4  A    between atoms: C_3  and  N_4
REMARK    5  A    between atoms: N_9  and  C_10
REMARK    6  A    between atoms: C_12  and  O_13
REMARK                            x       y       z     vdW  Elec       q    Type
REMARK                         _______ _______ _______ _____ _____    ______ ____
ROOT
ATOM      1  N   UNL     1       0.769  10.495  21.046  0.00  0.00    +0.000 N 
ATOM      2  N   UNL     1       0.834   9.766  22.184  0.00  0.00    +0.000 NA
ATOM      3  C   UNL     1       1.282   8.577  21.763  0.00  0.00    +0.000 A 
ATOM      4  C   UNL     1       1.492   8.531  20.368  0.00  0.00    +0.000 A 
ATOM      5  C   UNL     1       1.955   7.624  19.407  0.00  0.00    +0.000 A 
ATOM      6  N   UNL     1       2.341   6.317  19.717  0.00  0.00    +0.000 N 
ATOM      7  N   UNL     1       2.024   8.061  18.120  0.00  0.00    +0.000 NA
ATOM      8  C   UNL     1       1.631   9.313  17.824  0.00  0.00    +0.000 A 
ATOM      9  N   UNL     1       1.201  10.258  18.670  0.00  0.00    +0.000 NA
ATOM     10  C   UNL     1       1.159   9.801  19.932  0.00  0.00    +0.000 A 
ATOM     11  H   UNL     1       1.930   5.904  20.544  0.00  0.00    +0.000 HD
ENDROOT
BRANCH   6  12
ATOM     12  C   UNL     1       3.342   5.536  19.103  0.00  0.00    +0.000 A 
ATOM     13  C   UNL     1       4.692   5.683  19.463  0.00  0.00    +0.000 A 
ATOM     14  C   UNL     1       5.679   4.912  18.857  0.00  0.00    +0.000 A 
ATOM     15  C   UNL     1       5.358   4.003  17.860  0.00  0.00    +0.000 A 
ATOM     16  C   UNL     1       4.030   3.863  17.459  0.00  0.00    +0.000 A 
ATOM     17  C   UNL     1       3.031   4.623  18.076  0.00  0.00    +0.000 A 
ATOM     18 CL   UNL     1       1.398   4.420  17.538  0.00  0.00    +0.000 Cl
BRANCH  14  19
ATOM     19  O   UNL     1       6.985   5.019  19.233  0.00  0.00    +0.000 OA
ATOM     20  H   UNL     1       7.082   4.645  20.125  0.00  0.00    +0.000 HD
ENDBRANCH  14  19
ENDBRANCH   6  12
BRANCH   1  21
ATOM     21  C   UNL     1       0.362  11.886  21.082  0.00  0.00    +0.000 C 
BRANCH  21  23
ATOM     22  C   UNL     1      -0.877  13.327  19.357  0.00  0.00    +0.000 C 
ATOM     23  C   UNL     1      -0.962  12.157  20.345  0.00  0.00    +0.000 C 
BRANCH  23  24
ATOM     24  C   UNL     1      -2.080  12.399  21.348  0.00  0.00    +0.000 A 
ATOM     25  C   UNL     1      -3.247  13.066  20.947  0.00  0.00    +0.000 A 
ATOM     26  C   UNL     1      -4.286  13.287  21.852  0.00  0.00    +0.000 A 
ATOM     27  C   UNL     1      -4.172  12.849  23.170  0.00  0.00    +0.000 A 
ATOM     28  C   UNL     1      -3.018  12.189  23.584  0.00  0.00    +0.000 A 
ATOM     29  C   UNL     1      -1.978  11.967  22.680  0.00  0.00    +0.000 A 
ENDBRANCH  23  24
ENDBRANCH  21  23
ENDBRANCH   1  21
TORSDOF 5
ENDMDL
MODEL 8
REMARK VINA RESULT:      -7.6      1.509      1.698
REMARK  Name = 
REMARK  6 active torsions:
REMARK  status: ('A' for Active; 'I' for Inactive)
REMARK    1  A    between atoms: C_1  and  C_2
REMARK    2  A    between atoms: C_2  and  C_3
REMARK    3  A    between atoms: C_2  and  C_22
REMARK    4  A    between atoms: C_3  and  N_4
REMARK    5  A    between atoms: N_9  and  C_10
REMARK    6  A    between atoms: C_12  and  O_13
REMARK                            x       y       z     vdW  Elec       q    Type
REMARK                         _______ _______ _______ _____ _____    ______ ____
ROOT
ATOM      1  N   UNL     1       1.013  10.450  19.179  0.00  0.00    +0.000 N 
ATOM      2  N   UNL     1       1.605  10.569  17.967  0.00  0.00    +0.000 NA
ATOM      3  C   UNL     1       2.165   9.367  17.779  0.00  0.00    +0.000 A 
ATOM      4  C   UNL     1       1.951   8.485  18.860  0.00  0.00    +0.000 A 
ATOM      5  C   UNL     1       2.247   7.162  19.208  0.00  0.00    +0.000 A 
ATOM      6  N   UNL     1       2.994   6.309  18.392  0.00  0.00    +0.000 N 
ATOM      7  N   UNL     1       1.774   6.711  20.402  0.00  0.00    +0.000 NA
ATOM      8  C   UNL     1       1.075   7.542  21.195  0.00  0.00    +0.000 A 
ATOM      9  N   UNL     1       0.718   8.808  20.941  0.00  0.00    +0.000 NA
ATOM     10  C   UNL     1       1.187   9.218  19.751  0.00  0.00    +0.000 A 
ATOM     11  H   UNL     1       3.639   6.745  17.746  0.00  0.00    +0.000 HD
ENDROOT
BRANCH   6  12
ATOM     12  C   UNL     1       2.869   4.911  18.247  0.00  0.00    +0.000 A 
ATOM     13  C   UNL     1       1.643   4.270  18.490  0.00  0.00    +0.000 A 
ATOM     14  C   UNL     1       1.520   2.891  18.347  0.00  0.00    +0.000 A 
ATOM     15  C   UNL     1       2.613   2.113  17.994  0.00  0.00    +0.000 A 
ATOM     16  C   UNL     1       3.850   2.721  17.782  0.00  0.00    +0.000 A 
ATOM     17  C   UNL     1       3.976   4.109  17.908  0.00  0.00    +0.000 A 
ATOM     18 CL   UNL     1       5.533   4.817  17.643  0.00  0.00    +0.000 Cl
BRANCH  14  19
ATOM     19  O   UNL     1       0.323   2.267  18.538  0.00  0.00    +0.000 OA
ATOM     20  H   UNL     1       0.485   1.316  18.653  0.00  0.00    +0.000 HD
ENDBRANCH  14  19
ENDBRANCH   6  12
BRANCH   1  21
ATOM     21  C   UNL     1       0.245  11.546  19.736  0.00  0.00    +0.000 C 
BRANCH  21  23
ATOM     22  C   UNL     1      -0.545  13.893  19.061  0.00  0.00    +0.000 C 
ATOM     23  C   UNL     1      -0.449  12.412  18.670  0.00  0.00    +0.000 C 
BRANCH  23  24
ATOM     24  C   UNL     1      -1.834  11.861  18.366  0.00  0.00    +0.000 A 
ATOM     25  C   UNL     1      -2.926  12.237  19.162  0.00  0.00    +0.000 A 
ATOM     26  C   UNL     1      -4.205  11.749  18.890  0.00  0.00    +0.000 A 
ATOM     27  C   UNL     1      -4.409  10.874  17.824  0.00  0.00    +0.000 A 
ATOM     28  C   UNL     1      -3.334  10.488  17.028  0.00  0.00    +0.000 A 
ATOM     29  C   UNL     1      -2.055  10.977  17.298  0.00  0.00    +0.000 A 
ENDBRANCH  23  24
ENDBRANCH  21  23
ENDBRANCH   1  21
TORSDOF 5
ENDMDL
MODEL 9
REMARK VINA RESULT:      -7.5      2.846      3.895
REMARK  Name = 
REMARK  6 active torsions:
REMARK  status: ('A' for Active; 'I' for Inactive)
REMARK    1  A    between atoms: C_1  and  C_2
REMARK    2  A    between atoms: C_2  and  C_3
REMARK    3  A    between atoms: C_2  and  C_22
REMARK    4  A    between atoms: C_3  and  N_4
REMARK    5  A    between atoms: N_9  and  C_10
REMARK    6  A    between atoms: C_12  and  O_13
REMARK                            x       y       z     vdW  Elec       q    Type
REMARK                         _______ _______ _______ _____ _____    ______ ____
ROOT
ATOM      1  N   UNL     1       0.734  10.426  21.127  0.00  0.00    +0.000 N 
ATOM      2  N   UNL     1       0.840   9.690  22.258  0.00  0.00    +0.000 NA
ATOM      3  C   UNL     1       1.309   8.516  21.819  0.00  0.00    +0.000 A 
ATOM      4  C   UNL     1       1.492   8.485  20.420  0.00  0.00    +0.000 A 
ATOM      5  C   UNL     1       1.958   7.597  19.443  0.00  0.00    +0.000 A 
ATOM      6  N   UNL     1       2.382   6.298  19.734  0.00  0.00    +0.000 N 
ATOM      7  N   UNL     1       1.990   8.046  18.158  0.00  0.00    +0.000 NA
ATOM      8  C   UNL     1       1.560   9.289  17.879  0.00  0.00    +0.000 A 
ATOM      9  N   UNL     1       1.124  10.217  18.741  0.00  0.00    +0.000 NA
ATOM     10  C   UNL     1       1.119   9.750  20.000  0.00  0.00    +0.000 A 
ATOM     11  H   UNL     1       1.998   5.869  20.566  0.00  0.00    +0.000 HD
ENDROOT
BRANCH   6  12
ATOM     12  C   UNL     1       3.390   5.547  19.094  0.00  0.00    +0.000 A 
ATOM     13  C   UNL     1       4.741   5.713  19.441  0.00  0.00    +0.000 A 
ATOM     14  C   UNL     1       5.735   4.971  18.810  0.00  0.00    +0.000 A 
ATOM     15  C   UNL     1       5.419   4.074  17.800  0.00  0.00    +0.000 A 
ATOM     16  C   UNL     1       4.088   3.916  17.413  0.00  0.00    +0.000 A 
ATOM     17  C   UNL     1       3.083   4.647  18.055  0.00  0.00    +0.000 A 
ATOM     18 CL   UNL     1       1.448   4.423  17.533  0.00  0.00    +0.000 Cl
BRANCH  14  19
ATOM     19  O   UNL     1       7.043   5.095  19.171  0.00  0.00    +0.000 OA
ATOM     20  H   UNL     1       7.439   5.819  18.657  0.00  0.00    +0.000 HD
ENDBRANCH  14  19
ENDBRANCH   6  12
BRANCH   1  21
ATOM     21  C   UNL     1       0.293  11.806  21.182  0.00  0.00    +0.000 C 
BRANCH  21  23
ATOM     22  C   UNL     1      -1.709  12.606  19.791  0.00  0.00    +0.000 C 
ATOM     23  C   UNL     1      -1.235  11.965  21.101  0.00  0.00    +0.000 C 
BRANCH  23  24
ATOM     24  C   UNL     1      -1.742  12.768  22.290  0.00  0.00    +0.000 A 
ATOM     25  C   UNL     1      -3.019  12.514  22.811  0.00  0.00    +0.000 A 
ATOM     26  C   UNL     1      -3.495  13.235  23.908  0.00  0.00    +0.000 A 
ATOM     27  C   UNL     1      -2.704  14.220  24.495  0.00  0.00    +0.000 A 
ATOM     28  C   UNL     1      -1.436  14.486  23.986  0.00  0.00    +0.000 A 
ATOM     29  C   UNL     1      -0.958  13.766  22.890  0.00  0.00    +0.000 A 
ENDBRANCH  23  24
ENDBRANCH  21  23
ENDBRANCH   1  21
TORSDOF 5
ENDMDL
