MODEL 1
REMARK VINA RESULT:      -7.6      0.000      0.000
REMARK  Name = 
REMARK  9 active torsions:
REMARK  status: ('A' for Active; 'I' for Inactive)
REMARK    1  A    between atoms: C_1  and  C_2
REMARK    2  A    between atoms: C_11  and  O_12
REMARK    3  A    between atoms: C_15  and  C_16
REMARK    4  A    between atoms: C_20  and  C_21
REMARK    5  A    between atoms: C_21  and  O_22
REMARK    6  A    between atoms: C_21  and  C_23
REMARK    7  A    between atoms: C_23  and  C_24
REMARK    8  A    between atoms: C_24  and  O_25
REMARK    9  A    between atoms: C_24  and  C_26
REMARK                            x       y       z     vdW  Elec       q    Type
REMARK                         _______ _______ _______ _____ _____    ______ ____
ROOT
ATOM      1  C   UNL     1       1.688   5.616  18.124  0.00  0.00    +0.000 C 
ATOM      2  C   UNL     1       2.942   6.312  18.694  0.00  0.00    +0.000 C 
ATOM      3  C   UNL     1       2.972   6.166  20.231  0.00  0.00    +0.000 C 
ATOM      4  C   UNL     1       1.782   6.895  20.889  0.00  0.00    +0.000 C 
ATOM      5  C   UNL     1       1.611   8.376  20.443  0.00  0.00    +0.000 C 
ATOM      6  C   UNL     1       1.756   8.570  18.908  0.00  0.00    +0.000 C 
ATOM      7  C   UNL     1       1.832  10.063  18.561  0.00  0.00    +0.000 C 
ATOM      8  C   UNL     1       0.810  10.880  19.281  0.00  0.00    +0.000 C 
ATOM      9  C   UNL     1       0.100  10.453  20.341  0.00  0.00    +0.000 C 
ATOM     10  C   UNL     1      -0.939  11.354  20.969  0.00  0.00    +0.000 C 
ATOM     11  C   UNL     1      -0.765  11.467  22.485  0.00  0.00    +0.000 C 
ATOM     12  C   UNL     1      -0.678  10.094  23.147  0.00  0.00    +0.000 C 
ATOM     13  C   UNL     1       0.424   9.240  22.520  0.00  0.00    +0.000 C 
ATOM     14  C   UNL     1       0.293   9.066  20.979  0.00  0.00    +0.000 C 
ATOM     15  C   UNL     1      -0.959   8.212  20.658  0.00  0.00    +0.000 C 
ATOM     16  C   UNL     1       3.000   7.829  18.413  0.00  0.00    +0.000 C 
ATOM     17  C   UNL     1       3.340   7.932  16.939  0.00  0.00    +0.000 C 
ATOM     18  C   UNL     1       4.294   6.761  16.698  0.00  0.00    +0.000 C 
ATOM     19  C   UNL     1       4.239   5.859  17.961  0.00  0.00    +0.000 C 
ENDROOT
BRANCH  11  20
ATOM     20  O   UNL     1      -1.860  12.190  23.045  0.00  0.00    +0.000 OA
ATOM     21  H   UNL     1      -1.666  12.344  23.986  0.00  0.00    +0.000 HD
ENDBRANCH  11  20
BRANCH  19  22
ATOM     22  C   UNL     1       4.435   4.363  17.631  0.00  0.00    +0.000 C 
BRANCH  22  23
ATOM     23  O   UNL     1       5.214   4.168  16.442  0.00  0.00    +0.000 OA
ATOM     24  H   UNL     1       4.977   4.847  15.792  0.00  0.00    +0.000 HD
ENDBRANCH  22  23
BRANCH  22  25
ATOM     25  C   UNL     1       5.161   3.589  18.750  0.00  0.00    +0.000 C 
BRANCH  25  26
ATOM     26  C   UNL     1       4.506   2.257  19.119  0.00  0.00    +0.000 C 
BRANCH  26  27
ATOM     27  C   UNL     1       3.055   2.427  19.528  0.00  0.00    +0.000 A 
ATOM     28  C   UNL     1       2.043   2.152  18.596  0.00  0.00    +0.000 A 
ATOM     29  C   UNL     1       0.699   2.327  18.924  0.00  0.00    +0.000 A 
ATOM     30  C   UNL     1       0.346   2.780  20.193  0.00  0.00    +0.000 A 
ATOM     31  C   UNL     1       1.333   3.053  21.133  0.00  0.00    +0.000 A 
ATOM     32  C   UNL     1       2.684   2.880  20.803  0.00  0.00    +0.000 A 
ENDBRANCH  26  27
BRANCH  26  33
ATOM     33  O   UNL     1       5.246   1.616  20.150  0.00  0.00    +0.000 OA
ATOM     34  H   UNL     1       4.874   0.727  20.274  0.00  0.00    +0.000 HD
ENDBRANCH  26  33
ENDBRANCH  25  26
ENDBRANCH  22  25
ENDBRANCH  19  22
TORSDOF 7
ENDMDL
MODEL 2
REMARK VINA RESULT:      -7.1      2.629      4.704
REMARK  Name = 
REMARK  9 active torsions:
REMARK  status: ('A' for Active; 'I' for Inactive)
REMARK    1  A    between atoms: C_1  and  C_2
REMARK    2  A    between atoms: C_11  and  O_12
REMARK    3  A    between atoms: C_15  and  C_16
REMARK    4  A    between atoms: C_20  and  C_21
REMARK    5  A    between atoms: C_21  and  O_22
REMARK    6  A    between atoms: C_21  and  C_23
REMARK    7  A    between atoms: C_23  and  C_24
REMARK    8  A    between atoms: C_24  and  O_25
REMARK    9  A    between atoms: C_24  and  C_26
REMARK                            x       y       z     vdW  Elec       q    Type
REMARK                         _______ _______ _______ _____ _____    ______ ____
ROOT
ATOM      1  C   UNL     1      -0.892  10.499  18.640  0.00  0.00    +0.000 C 
ATOM      2  C   UNL     1       0.278  10.710  19.623  0.00  0.00    +0.000 C 
ATOM      3  C   UNL     1      -0.068  10.091  20.994  0.00  0.00    +0.000 C 
ATOM      4  C   UNL     1      -1.268  10.807  21.648  0.00  0.00    +0.000 C 
ATOM      5  C   UNL     1      -1.129  12.356  21.722  0.00  0.00    +0.000 C 
ATOM      6  C   UNL     1      -0.608  12.982  20.399  0.00  0.00    +0.000 C 
ATOM      7  C   UNL     1      -0.253  14.460  20.610  0.00  0.00    +0.000 C 
ATOM      8  C   UNL     1      -1.293  15.205  21.380  0.00  0.00    +0.000 C 
ATOM      9  C   UNL     1      -2.280  14.624  22.087  0.00  0.00    +0.000 C 
ATOM     10  C   UNL     1      -3.305  15.478  22.799  0.00  0.00    +0.000 C 
ATOM     11  C   UNL     1      -3.473  15.076  24.265  0.00  0.00    +0.000 C 
ATOM     12  C   UNL     1      -3.727  13.578  24.415  0.00  0.00    +0.000 C 
ATOM     13  C   UNL     1      -2.636  12.755  23.731  0.00  0.00    +0.000 C 
ATOM     14  C   UNL     1      -2.430  13.099  22.227  0.00  0.00    +0.000 C 
ATOM     15  C   UNL     1      -3.677  12.663  21.419  0.00  0.00    +0.000 C 
ATOM     16  C   UNL     1       0.605  12.194  19.900  0.00  0.00    +0.000 C 
ATOM     17  C   UNL     1       1.287  12.678  18.636  0.00  0.00    +0.000 C 
ATOM     18  C   UNL     1       2.104  11.470  18.172  0.00  0.00    +0.000 C 
ATOM     19  C   UNL     1       1.637  10.252  19.014  0.00  0.00    +0.000 C 
ENDROOT
BRANCH  11  20
ATOM     20  O   UNL     1      -4.560  15.798  24.843  0.00  0.00    +0.000 OA
ATOM     21  H   UNL     1      -4.204  16.620  25.223  0.00  0.00    +0.000 HD
ENDBRANCH  11  20
BRANCH  19  22
ATOM     22  C   UNL     1       1.699   8.926  18.225  0.00  0.00    +0.000 C 
BRANCH  22  23
ATOM     23  O   UNL     1       2.594   9.003  17.106  0.00  0.00    +0.000 OA
ATOM     24  H   UNL     1       2.686   9.930  16.837  0.00  0.00    +0.000 HD
ENDBRANCH  22  23
BRANCH  22  25
ATOM     25  C   UNL     1       2.185   7.738  19.079  0.00  0.00    +0.000 C 
BRANCH  25  26
ATOM     26  C   UNL     1       2.593   6.507  18.269  0.00  0.00    +0.000 C 
BRANCH  26  27
ATOM     27  C   UNL     1       2.048   5.223  18.865  0.00  0.00    +0.000 A 
ATOM     28  C   UNL     1       1.738   4.150  18.015  0.00  0.00    +0.000 A 
ATOM     29  C   UNL     1       1.204   2.966  18.521  0.00  0.00    +0.000 A 
ATOM     30  C   UNL     1       0.973   2.835  19.888  0.00  0.00    +0.000 A 
ATOM     31  C   UNL     1       1.277   3.884  20.748  0.00  0.00    +0.000 A 
ATOM     32  C   UNL     1       1.811   5.076  20.240  0.00  0.00    +0.000 A 
ENDBRANCH  26  27
BRANCH  26  33
ATOM     33  O   UNL     1       4.009   6.444  18.153  0.00  0.00    +0.000 OA
ATOM     34  H   UNL     1       4.349   5.957  18.923  0.00  0.00    +0.000 HD
ENDBRANCH  26  33
ENDBRANCH  25  26
ENDBRANCH  22  25
ENDBRANCH  19  22
TORSDOF 7
ENDMDL
MODEL 3
REMARK VINA RESULT:      -6.9      2.589      4.908
REMARK  Name = 
REMARK  9 active torsions:
REMARK  status: ('A' for Active; 'I' for Inactive)
REMARK    1  A    between atoms: C_1  and  C_2
REMARK    2  A    between atoms: C_11  and  O_12
REMARK    3  A    between atoms: C_15  and  C_16
REMARK    4  A    between atoms: C_20  and  C_21
REMARK    5  A    between atoms: C_21  and  O_22
REMARK    6  A    between atoms: C_21  and  C_23
REMARK    7  A    between atoms: C_23  and  C_24
REMARK    8  A    between atoms: C_24  and  O_25
REMARK    9  A    between atoms: C_24  and  C_26
REMARK                            x       y       z     vdW  Elec       q    Type
REMARK                         _______ _______ _______ _____ _____    ______ ____
ROOT
ATOM      1  C   UNL     1       1.218  11.324  19.116  0.00  0.00    +0.000 C 
ATOM      2  C   UNL     1       0.160  10.235  19.393  0.00  0.00    +0.000 C 
ATOM      3  C   UNL     1      -1.122  10.530  18.585  0.00  0.00    +0.000 C 
ATOM      4  C   UNL     1      -1.783  11.848  19.039  0.00  0.00    +0.000 C 
ATOM      5  C   UNL     1      -2.019  11.951  20.574  0.00  0.00    +0.000 C 
ATOM      6  C   UNL     1      -0.795  11.486  21.411  0.00  0.00    +0.000 C 
ATOM      7  C   UNL     1      -1.172  11.370  22.893  0.00  0.00    +0.000 C 
ATOM      8  C   UNL     1      -1.960  12.539  23.387  0.00  0.00    +0.000 C 
ATOM      9  C   UNL     1      -2.553  13.449  22.593  0.00  0.00    +0.000 C 
ATOM     10  C   UNL     1      -3.295  14.617  23.204  0.00  0.00    +0.000 C 
ATOM     11  C   UNL     1      -4.702  14.772  22.625  0.00  0.00    +0.000 C 
ATOM     12  C   UNL     1      -4.687  14.799  21.099  0.00  0.00    +0.000 C 
ATOM     13  C   UNL     1      -3.979  13.571  20.526  0.00  0.00    +0.000 C 
ATOM     14  C   UNL     1      -2.530  13.367  21.057  0.00  0.00    +0.000 C 
ATOM     15  C   UNL     1      -1.620  14.504  20.529  0.00  0.00    +0.000 C 
ATOM     16  C   UNL     1      -0.281  10.150  20.870  0.00  0.00    +0.000 C 
ATOM     17  C   UNL     1       0.891   9.507  21.584  0.00  0.00    +0.000 C 
ATOM     18  C   UNL     1       1.432   8.498  20.568  0.00  0.00    +0.000 C 
ATOM     19  C   UNL     1       0.743   8.802  19.211  0.00  0.00    +0.000 C 
ENDROOT
BRANCH  11  20
ATOM     20  O   UNL     1      -5.294  15.977  23.110  0.00  0.00    +0.000 OA
ATOM     21  H   UNL     1      -6.134  16.108  22.636  0.00  0.00    +0.000 HD
ENDBRANCH  11  20
BRANCH  19  22
ATOM     22  C   UNL     1       1.657   8.509  18.001  0.00  0.00    +0.000 C 
BRANCH  22  23
ATOM     23  O   UNL     1       2.164   9.710  17.403  0.00  0.00    +0.000 OA
ATOM     24  H   UNL     1       1.507  10.416  17.502  0.00  0.00    +0.000 HD
ENDBRANCH  22  23
BRANCH  22  25
ATOM     25  C   UNL     1       2.891   7.661  18.369  0.00  0.00    +0.000 C 
BRANCH  25  26
ATOM     26  C   UNL     1       2.929   6.284  17.703  0.00  0.00    +0.000 C 
BRANCH  26  27
ATOM     27  C   UNL     1       2.279   5.215  18.561  0.00  0.00    +0.000 A 
ATOM     28  C   UNL     1       1.621   4.144  17.939  0.00  0.00    +0.000 A 
ATOM     29  C   UNL     1       0.985   3.159  18.694  0.00  0.00    +0.000 A 
ATOM     30  C   UNL     1       0.998   3.230  20.084  0.00  0.00    +0.000 A 
ATOM     31  C   UNL     1       1.649   4.282  20.720  0.00  0.00    +0.000 A 
ATOM     32  C   UNL     1       2.286   5.273  19.963  0.00  0.00    +0.000 A 
ENDBRANCH  26  27
BRANCH  26  33
ATOM     33  O   UNL     1       4.269   5.929  17.388  0.00  0.00    +0.000 OA
ATOM     34  H   UNL     1       4.856   6.573  17.817  0.00  0.00    +0.000 HD
ENDBRANCH  26  33
ENDBRANCH  25  26
ENDBRANCH  22  25
ENDBRANCH  19  22
TORSDOF 7
ENDMDL
MODEL 4
REMARK VINA RESULT:      -6.9      3.470      9.638
REMARK  Name = 
REMARK  9 active torsions:
REMARK  status: ('A' for Active; 'I' for Inactive)
REMARK    1  A    between atoms: C_1  and  C_2
REMARK    2  A    between atoms: C_11  and  O_12
REMARK    3  A    between atoms: C_15  and  C_16
REMARK    4  A    between atoms: C_20  and  C_21
REMARK    5  A    between atoms: C_21  and  O_22
REMARK    6  A    between atoms: C_21  and  C_23
REMARK    7  A    between atoms: C_23  and  C_24
REMARK    8  A    between atoms: C_24  and  O_25
REMARK    9  A    between atoms: C_24  and  C_26
REMARK                            x       y       z     vdW  Elec       q    Type
REMARK                         _______ _______ _______ _____ _____    ______ ____
ROOT
ATOM      1  C   UNL     1      -0.305   9.617  18.196  0.00  0.00    +0.000 C 
ATOM      2  C   UNL     1       0.978  10.007  18.960  0.00  0.00    +0.000 C 
ATOM      3  C   UNL     1       2.207   9.852  18.039  0.00  0.00    +0.000 C 
ATOM      4  C   UNL     1       2.422   8.381  17.630  0.00  0.00    +0.000 C 
ATOM      5  C   UNL     1       2.453   7.380  18.822  0.00  0.00    +0.000 C 
ATOM      6  C   UNL     1       1.323   7.635  19.858  0.00  0.00    +0.000 C 
ATOM      7  C   UNL     1       1.556   6.795  21.121  0.00  0.00    +0.000 C 
ATOM      8  C   UNL     1       1.929   5.381  20.819  0.00  0.00    +0.000 C 
ATOM      9  C   UNL     1       2.328   4.938  19.612  0.00  0.00    +0.000 C 
ATOM     10  C   UNL     1       2.645   3.474  19.410  0.00  0.00    +0.000 C 
ATOM     11  C   UNL     1       4.008   3.265  18.748  0.00  0.00    +0.000 C 
ATOM     12  C   UNL     1       4.150   4.094  17.474  0.00  0.00    +0.000 C 
ATOM     13  C   UNL     1       3.878   5.575  17.738  0.00  0.00    +0.000 C 
ATOM     14  C   UNL     1       2.495   5.860  18.392  0.00  0.00    +0.000 C 
ATOM     15  C   UNL     1       1.367   5.530  17.383  0.00  0.00    +0.000 C 
ATOM     16  C   UNL     1       1.263   9.126  20.196  0.00  0.00    +0.000 C 
ATOM     17  C   UNL     1       0.246   9.573  21.228  0.00  0.00    +0.000 C 
ATOM     18  C   UNL     1       0.119  11.079  20.992  0.00  0.00    +0.000 C 
ATOM     19  C   UNL     1       0.840  11.395  19.654  0.00  0.00    +0.000 C 
ENDROOT
BRANCH  11  20
ATOM     20  O   UNL     1       4.186   1.884  18.432  0.00  0.00    +0.000 OA
ATOM     21  H   UNL     1       3.688   1.363  19.085  0.00  0.00    +0.000 HD
ENDBRANCH  11  20
BRANCH  19  22
ATOM     22  C   UNL     1       0.179  12.559  18.883  0.00  0.00    +0.000 C 
BRANCH  22  23
ATOM     23  O   UNL     1      -0.849  13.201  19.651  0.00  0.00    +0.000 OA
ATOM     24  H   UNL     1      -1.074  14.048  19.235  0.00  0.00    +0.000 HD
ENDBRANCH  22  23
BRANCH  22  25
ATOM     25  C   UNL     1       1.177  13.667  18.492  0.00  0.00    +0.000 C 
BRANCH  25  26
ATOM     26  C   UNL     1       1.092  14.924  19.360  0.00  0.00    +0.000 C 
BRANCH  26  27
ATOM     27  C   UNL     1       0.866  16.176  18.533  0.00  0.00    +0.000 A 
ATOM     28  C   UNL     1      -0.443  16.646  18.347  0.00  0.00    +0.000 A 
ATOM     29  C   UNL     1      -0.694  17.775  17.568  0.00  0.00    +0.000 A 
ATOM     30  C   UNL     1       0.361  18.452  16.963  0.00  0.00    +0.000 A 
ATOM     31  C   UNL     1       1.666  18.005  17.139  0.00  0.00    +0.000 A 
ATOM     32  C   UNL     1       1.919  16.869  17.920  0.00  0.00    +0.000 A 
ENDBRANCH  26  27
BRANCH  26  33
ATOM     33  O   UNL     1       2.265  15.051  20.153  0.00  0.00    +0.000 OA
ATOM     34  H   UNL     1       3.021  14.765  19.614  0.00  0.00    +0.000 HD
ENDBRANCH  26  33
ENDBRANCH  25  26
ENDBRANCH  22  25
ENDBRANCH  19  22
TORSDOF 7
ENDMDL
MODEL 5
REMARK VINA RESULT:      -6.8      3.186      9.384
REMARK  Name = 
REMARK  9 active torsions:
REMARK  status: ('A' for Active; 'I' for Inactive)
REMARK    1  A    between atoms: C_1  and  C_2
REMARK    2  A    between atoms: C_11  and  O_12
REMARK    3  A    between atoms: C_15  and  C_16
REMARK    4  A    between atoms: C_20  and  C_21
REMARK    5  A    between atoms: C_21  and  O_22
REMARK    6  A    between atoms: C_21  and  C_23
REMARK    7  A    between atoms: C_23  and  C_24
REMARK    8  A    between atoms: C_24  and  O_25
REMARK    9  A    between atoms: C_24  and  C_26
REMARK                            x       y       z     vdW  Elec       q    Type
REMARK                         _______ _______ _______ _____ _____    ______ ____
ROOT
ATOM      1  C   UNL     1       0.064   8.955  18.087  0.00  0.00    +0.000 C 
ATOM      2  C   UNL     1       1.367   9.276  18.848  0.00  0.00    +0.000 C 
ATOM      3  C   UNL     1       2.586   9.016  17.937  0.00  0.00    +0.000 C 
ATOM      4  C   UNL     1       2.703   7.524  17.565  0.00  0.00    +0.000 C 
ATOM      5  C   UNL     1       2.662   6.554  18.782  0.00  0.00    +0.000 C 
ATOM      6  C   UNL     1       1.549   6.910  19.806  0.00  0.00    +0.000 C 
ATOM      7  C   UNL     1       1.719   6.088  21.091  0.00  0.00    +0.000 C 
ATOM      8  C   UNL     1       1.997   4.645  20.825  0.00  0.00    +0.000 C 
ATOM      9  C   UNL     1       2.369   4.146  19.632  0.00  0.00    +0.000 C 
ATOM     10  C   UNL     1       2.587   2.659  19.467  0.00  0.00    +0.000 C 
ATOM     11  C   UNL     1       3.935   2.342  18.818  0.00  0.00    +0.000 C 
ATOM     12  C   UNL     1       4.138   3.128  17.525  0.00  0.00    +0.000 C 
ATOM     13  C   UNL     1       3.966   4.630  17.751  0.00  0.00    +0.000 C 
ATOM     14  C   UNL     1       2.602   5.024  18.390  0.00  0.00    +0.000 C 
ATOM     15  C   UNL     1       1.458   4.745  17.384  0.00  0.00    +0.000 C 
ATOM     16  C   UNL     1       1.588   8.410  20.107  0.00  0.00    +0.000 C 
ATOM     17  C   UNL     1       0.600   8.950  21.122  0.00  0.00    +0.000 C 
ATOM     18  C   UNL     1       0.576  10.455  20.849  0.00  0.00    +0.000 C 
ATOM     19  C   UNL     1       1.321  10.687  19.506  0.00  0.00    +0.000 C 
ENDROOT
BRANCH  11  20
ATOM     20  O   UNL     1       4.020   0.945  18.537  0.00  0.00    +0.000 OA
ATOM     21  H   UNL     1       4.946   0.672  18.660  0.00  0.00    +0.000 HD
ENDBRANCH  11  20
BRANCH  19  22
ATOM     22  C   UNL     1       0.744  11.874  18.704  0.00  0.00    +0.000 C 
BRANCH  22  23
ATOM     23  O   UNL     1      -0.438  12.414  19.313  0.00  0.00    +0.000 OA
ATOM     24  H   UNL     1      -0.195  13.184  19.850  0.00  0.00    +0.000 HD
ENDBRANCH  22  23
BRANCH  22  25
ATOM     25  C   UNL     1       1.732  13.050  18.570  0.00  0.00    +0.000 C 
BRANCH  25  26
ATOM     26  C   UNL     1       1.478  14.198  19.548  0.00  0.00    +0.000 C 
BRANCH  26  27
ATOM     27  C   UNL     1       1.099  15.483  18.836  0.00  0.00    +0.000 A 
ATOM     28  C   UNL     1       2.112  16.304  18.319  0.00  0.00    +0.000 A 
ATOM     29  C   UNL     1       1.805  17.509  17.686  0.00  0.00    +0.000 A 
ATOM     30  C   UNL     1       0.477  17.910  17.560  0.00  0.00    +0.000 A 
ATOM     31  C   UNL     1      -0.542  17.108  18.061  0.00  0.00    +0.000 A 
ATOM     32  C   UNL     1      -0.234  15.899  18.699  0.00  0.00    +0.000 A 
ENDBRANCH  26  27
BRANCH  26  33
ATOM     33  O   UNL     1       2.618  14.400  20.373  0.00  0.00    +0.000 OA
ATOM     34  H   UNL     1       3.384  14.543  19.792  0.00  0.00    +0.000 HD
ENDBRANCH  26  33
ENDBRANCH  25  26
ENDBRANCH  22  25
ENDBRANCH  19  22
TORSDOF 7
ENDMDL
MODEL 6
REMARK VINA RESULT:      -6.8      3.504      9.822
REMARK  Name = 
REMARK  9 active torsions:
REMARK  status: ('A' for Active; 'I' for Inactive)
REMARK    1  A    between atoms: C_1  and  C_2
REMARK    2  A    between atoms: C_11  and  O_12
REMARK    3  A    between atoms: C_15  and  C_16
REMARK    4  A    between atoms: C_20  and  C_21
REMARK    5  A    between atoms: C_21  and  O_22
REMARK    6  A    between atoms: C_21  and  C_23
REMARK    7  A    between atoms: C_23  and  C_24
REMARK    8  A    between atoms: C_24  and  O_25
REMARK    9  A    between atoms: C_24  and  C_26
REMARK                            x       y       z     vdW  Elec       q    Type
REMARK                         _______ _______ _______ _____ _____    ______ ____
ROOT
ATOM      1  C   UNL     1      -0.544   9.692  18.249  0.00  0.00    +0.000 C 
ATOM      2  C   UNL     1       0.705  10.158  19.027  0.00  0.00    +0.000 C 
ATOM      3  C   UNL     1       1.950  10.080  18.119  0.00  0.00    +0.000 C 
ATOM      4  C   UNL     1       2.260   8.625  17.711  0.00  0.00    +0.000 C 
ATOM      5  C   UNL     1       2.339   7.627  18.904  0.00  0.00    +0.000 C 
ATOM      6  C   UNL     1       1.185   7.812  19.928  0.00  0.00    +0.000 C 
ATOM      7  C   UNL     1       1.455   6.986  21.193  0.00  0.00    +0.000 C 
ATOM      8  C   UNL     1       1.918   5.598  20.894  0.00  0.00    +0.000 C 
ATOM      9  C   UNL     1       2.355   5.181  19.691  0.00  0.00    +0.000 C 
ATOM     10  C   UNL     1       2.764   3.739  19.492  0.00  0.00    +0.000 C 
ATOM     11  C   UNL     1       4.144   3.615  18.844  0.00  0.00    +0.000 C 
ATOM     12  C   UNL     1       4.249   4.453  17.572  0.00  0.00    +0.000 C 
ATOM     13  C   UNL     1       3.884   5.914  17.834  0.00  0.00    +0.000 C 
ATOM     14  C   UNL     1       2.479   6.113  18.473  0.00  0.00    +0.000 C 
ATOM     15  C   UNL     1       1.384   5.715  17.452  0.00  0.00    +0.000 C 
ATOM     16  C   UNL     1       1.030   9.295  20.266  0.00  0.00    +0.000 C 
ATOM     17  C   UNL     1      -0.023   9.678  21.287  0.00  0.00    +0.000 C 
ATOM     18  C   UNL     1      -0.239  11.174  21.051  0.00  0.00    +0.000 C 
ATOM     19  C   UNL     1       0.475  11.534  19.720  0.00  0.00    +0.000 C 
ENDROOT
BRANCH  11  20
ATOM     20  O   UNL     1       4.409   2.248  18.530  0.00  0.00    +0.000 OA
ATOM     21  H   UNL     1       5.368   2.105  18.608  0.00  0.00    +0.000 HD
ENDBRANCH  11  20
BRANCH  19  22
ATOM     22  C   UNL     1      -0.248  12.657  18.943  0.00  0.00    +0.000 C 
BRANCH  22  23
ATOM     23  O   UNL     1      -1.522  12.979  19.518  0.00  0.00    +0.000 OA
ATOM     24  H   UNL     1      -2.133  13.238  18.811  0.00  0.00    +0.000 HD
ENDBRANCH  22  23
BRANCH  22  25
ATOM     25  C   UNL     1       0.550  13.975  18.905  0.00  0.00    +0.000 C 
BRANCH  25  26
ATOM     26  C   UNL     1      -0.277  15.220  19.229  0.00  0.00    +0.000 C 
BRANCH  26  27
ATOM     27  C   UNL     1       0.111  16.406  18.366  0.00  0.00    +0.000 A 
ATOM     28  C   UNL     1       1.458  16.588  18.018  0.00  0.00    +0.000 A 
ATOM     29  C   UNL     1       1.859  17.683  17.254  0.00  0.00    +0.000 A 
ATOM     30  C   UNL     1       0.917  18.614  16.824  0.00  0.00    +0.000 A 
ATOM     31  C   UNL     1      -0.423  18.449  17.154  0.00  0.00    +0.000 A 
ATOM     32  C   UNL     1      -0.827  17.350  17.924  0.00  0.00    +0.000 A 
ENDBRANCH  26  27
BRANCH  26  33
ATOM     33  O   UNL     1      -0.158  15.543  20.608  0.00  0.00    +0.000 OA
ATOM     34  H   UNL     1       0.707  15.965  20.741  0.00  0.00    +0.000 HD
ENDBRANCH  26  33
ENDBRANCH  25  26
ENDBRANCH  22  25
ENDBRANCH  19  22
TORSDOF 7
ENDMDL
MODEL 7
REMARK VINA RESULT:      -6.7      3.212      9.008
REMARK  Name = 
REMARK  9 active torsions:
REMARK  status: ('A' for Active; 'I' for Inactive)
REMARK    1  A    between atoms: C_1  and  C_2
REMARK    2  A    between atoms: C_11  and  O_12
REMARK    3  A    between atoms: C_15  and  C_16
REMARK    4  A    between atoms: C_20  and  C_21
REMARK    5  A    between atoms: C_21  and  O_22
REMARK    6  A    between atoms: C_21  and  C_23
REMARK    7  A    between atoms: C_23  and  C_24
REMARK    8  A    between atoms: C_24  and  O_25
REMARK    9  A    between atoms: C_24  and  C_26
REMARK                            x       y       z     vdW  Elec       q    Type
REMARK                         _______ _______ _______ _____ _____    ______ ____
ROOT
ATOM      1  C   UNL     1      -0.207   8.998  18.304  0.00  0.00    +0.000 C 
ATOM      2  C   UNL     1       1.108   9.378  19.017  0.00  0.00    +0.000 C 
ATOM      3  C   UNL     1       2.299   9.206  18.049  0.00  0.00    +0.000 C 
ATOM      4  C   UNL     1       2.484   7.731  17.640  0.00  0.00    +0.000 C 
ATOM      5  C   UNL     1       2.550   6.736  18.836  0.00  0.00    +0.000 C 
ATOM      6  C   UNL     1       1.464   7.008  19.913  0.00  0.00    +0.000 C 
ATOM      7  C   UNL     1       1.736   6.171  21.170  0.00  0.00    +0.000 C 
ATOM      8  C   UNL     1       2.083   4.752  20.862  0.00  0.00    +0.000 C 
ATOM      9  C   UNL     1       2.431   4.299  19.643  0.00  0.00    +0.000 C 
ATOM     10  C   UNL     1       2.725   2.830  19.436  0.00  0.00    +0.000 C 
ATOM     11  C   UNL     1       4.059   2.604  18.723  0.00  0.00    +0.000 C 
ATOM     12  C   UNL     1       4.161   3.426  17.441  0.00  0.00    +0.000 C 
ATOM     13  C   UNL     1       3.915   4.911  17.707  0.00  0.00    +0.000 C 
ATOM     14  C   UNL     1       2.560   5.213  18.412  0.00  0.00    +0.000 C 
ATOM     15  C   UNL     1       1.391   4.890  17.449  0.00  0.00    +0.000 C 
ATOM     16  C   UNL     1       1.432   8.501  20.245  0.00  0.00    +0.000 C 
ATOM     17  C   UNL     1       0.460   8.963  21.313  0.00  0.00    +0.000 C 
ATOM     18  C   UNL     1       0.339  10.469  21.074  0.00  0.00    +0.000 C 
ATOM     19  C   UNL     1       1.011  10.771  19.708  0.00  0.00    +0.000 C 
ENDROOT
BRANCH  11  20
ATOM     20  O   UNL     1       4.211   1.221  18.408  0.00  0.00    +0.000 OA
ATOM     21  H   UNL     1       3.327   0.815  18.411  0.00  0.00    +0.000 HD
ENDBRANCH  11  20
BRANCH  19  22
ATOM     22  C   UNL     1       0.333  11.938  18.957  0.00  0.00    +0.000 C 
BRANCH  22  23
ATOM     23  O   UNL     1      -0.969  12.234  19.481  0.00  0.00    +0.000 OA
ATOM     24  H   UNL     1      -1.256  13.099  19.149  0.00  0.00    +0.000 HD
ENDBRANCH  22  23
BRANCH  22  25
ATOM     25  C   UNL     1       1.135  13.253  19.035  0.00  0.00    +0.000 C 
BRANCH  25  26
ATOM     26  C   UNL     1       2.609  13.113  18.653  0.00  0.00    +0.000 C 
BRANCH  26  27
ATOM     27  C   UNL     1       3.366  14.419  18.807  0.00  0.00    +0.000 A 
ATOM     28  C   UNL     1       4.587  14.586  18.137  0.00  0.00    +0.000 A 
ATOM     29  C   UNL     1       5.328  15.759  18.279  0.00  0.00    +0.000 A 
ATOM     30  C   UNL     1       4.857  16.785  19.094  0.00  0.00    +0.000 A 
ATOM     31  C   UNL     1       3.646  16.641  19.763  0.00  0.00    +0.000 A 
ATOM     32  C   UNL     1       2.903  15.462  19.622  0.00  0.00    +0.000 A 
ENDBRANCH  26  27
BRANCH  26  33
ATOM     33  O   UNL     1       2.727  12.619  17.325  0.00  0.00    +0.000 OA
ATOM     34  H   UNL     1       1.956  12.054  17.149  0.00  0.00    +0.000 HD
ENDBRANCH  26  33
ENDBRANCH  25  26
ENDBRANCH  22  25
ENDBRANCH  19  22
TORSDOF 7
ENDMDL
MODEL 8
REMARK VINA RESULT:      -6.7      2.885      5.415
REMARK  Name = 
REMARK  9 active torsions:
REMARK  status: ('A' for Active; 'I' for Inactive)
REMARK    1  A    between atoms: C_1  and  C_2
REMARK    2  A    between atoms: C_11  and  O_12
REMARK    3  A    between atoms: C_15  and  C_16
REMARK    4  A    between atoms: C_20  and  C_21
REMARK    5  A    between atoms: C_21  and  O_22
REMARK    6  A    between atoms: C_21  and  C_23
REMARK    7  A    between atoms: C_23  and  C_24
REMARK    8  A    between atoms: C_24  and  O_25
REMARK    9  A    between atoms: C_24  and  C_26
REMARK                            x       y       z     vdW  Elec       q    Type
REMARK                         _______ _______ _______ _____ _____    ______ ____
ROOT
ATOM      1  C   UNL     1       1.021  11.872  19.174  0.00  0.00    +0.000 C 
ATOM      2  C   UNL     1      -0.012  10.746  19.390  0.00  0.00    +0.000 C 
ATOM      3  C   UNL     1      -1.290  11.041  18.575  0.00  0.00    +0.000 C 
ATOM      4  C   UNL     1      -1.991  12.321  19.073  0.00  0.00    +0.000 C 
ATOM      5  C   UNL     1      -2.252  12.356  20.608  0.00  0.00    +0.000 C 
ATOM      6  C   UNL     1      -1.027  11.888  21.442  0.00  0.00    +0.000 C 
ATOM      7  C   UNL     1      -1.422  11.701  22.914  0.00  0.00    +0.000 C 
ATOM      8  C   UNL     1      -2.247  12.827  23.443  0.00  0.00    +0.000 C 
ATOM      9  C   UNL     1      -2.852  13.755  22.678  0.00  0.00    +0.000 C 
ATOM     10  C   UNL     1      -3.633  14.877  23.324  0.00  0.00    +0.000 C 
ATOM     11  C   UNL     1      -5.036  15.020  22.732  0.00  0.00    +0.000 C 
ATOM     12  C   UNL     1      -5.000  15.110  21.209  0.00  0.00    +0.000 C 
ATOM     13  C   UNL     1      -4.253  13.925  20.596  0.00  0.00    +0.000 C 
ATOM     14  C   UNL     1      -2.806  13.737  21.140  0.00  0.00    +0.000 C 
ATOM     15  C   UNL     1      -1.919  14.917  20.673  0.00  0.00    +0.000 C 
ATOM     16  C   UNL     1      -0.471  10.589  20.856  0.00  0.00    +0.000 C 
ATOM     17  C   UNL     1       0.707   9.947  21.560  0.00  0.00    +0.000 C 
ATOM     18  C   UNL     1       1.289   8.995  20.512  0.00  0.00    +0.000 C 
ATOM     19  C   UNL     1       0.610   9.337  19.158  0.00  0.00    +0.000 C 
ENDROOT
BRANCH  11  20
ATOM     20  O   UNL     1      -5.666  16.187  23.257  0.00  0.00    +0.000 OA
ATOM     21  H   UNL     1      -4.981  16.866  23.380  0.00  0.00    +0.000 HD
ENDBRANCH  11  20
BRANCH  19  22
ATOM     22  C   UNL     1       1.549   9.117  17.951  0.00  0.00    +0.000 C 
BRANCH  22  23
ATOM     23  O   UNL     1       2.006  10.356  17.389  0.00  0.00    +0.000 OA
ATOM     24  H   UNL     1       1.256  10.967  17.315  0.00  0.00    +0.000 HD
ENDBRANCH  22  23
BRANCH  22  25
ATOM     25  C   UNL     1       2.817   8.318  18.310  0.00  0.00    +0.000 C 
BRANCH  25  26
ATOM     26  C   UNL     1       2.926   6.964  17.607  0.00  0.00    +0.000 C 
BRANCH  26  27
ATOM     27  C   UNL     1       2.328   5.840  18.432  0.00  0.00    +0.000 A 
ATOM     28  C   UNL     1       2.336   5.939  19.831  0.00  0.00    +0.000 A 
ATOM     29  C   UNL     1       1.825   4.913  20.625  0.00  0.00    +0.000 A 
ATOM     30  C   UNL     1       1.297   3.770  20.030  0.00  0.00    +0.000 A 
ATOM     31  C   UNL     1       1.275   3.655  18.644  0.00  0.00    +0.000 A 
ATOM     32  C   UNL     1       1.791   4.685  17.846  0.00  0.00    +0.000 A 
ENDBRANCH  26  27
BRANCH  26  33
ATOM     33  O   UNL     1       4.284   6.685  17.289  0.00  0.00    +0.000 OA
ATOM     34  H   UNL     1       4.723   6.381  18.100  0.00  0.00    +0.000 HD
ENDBRANCH  26  33
ENDBRANCH  25  26
ENDBRANCH  22  25
ENDBRANCH  19  22
TORSDOF 7
ENDMDL
MODEL 9
REMARK VINA RESULT:      -6.7      1.853      4.348
REMARK  Name = 
REMARK  9 active torsions:
REMARK  status: ('A' for Active; 'I' for Inactive)
REMARK    1  A    between atoms: C_1  and  C_2
REMARK    2  A    between atoms: C_11  and  O_12
REMARK    3  A    between atoms: C_15  and  C_16
REMARK    4  A    between atoms: C_20  and  C_21
REMARK    5  A    between atoms: C_21  and  O_22
REMARK    6  A    between atoms: C_21  and  C_23
REMARK    7  A    between atoms: C_23  and  C_24
REMARK    8  A    between atoms: C_24  and  O_25
REMARK    9  A    between atoms: C_24  and  C_26
REMARK                            x       y       z     vdW  Elec       q    Type
REMARK                         _______ _______ _______ _____ _____    ______ ____
ROOT
ATOM      1  C   UNL     1       4.228   6.545  19.302  0.00  0.00    +0.000 C 
ATOM      2  C   UNL     1       2.900   5.853  18.929  0.00  0.00    +0.000 C 
ATOM      3  C   UNL     1       2.322   6.483  17.644  0.00  0.00    +0.000 C 
ATOM      4  C   UNL     1       1.949   7.964  17.861  0.00  0.00    +0.000 C 
ATOM      5  C   UNL     1       1.043   8.223  19.101  0.00  0.00    +0.000 C 
ATOM      6  C   UNL     1       1.510   7.450  20.366  0.00  0.00    +0.000 C 
ATOM      7  C   UNL     1       0.449   7.541  21.471  0.00  0.00    +0.000 C 
ATOM      8  C   UNL     1      -0.092   8.922  21.647  0.00  0.00    +0.000 C 
ATOM      9  C   UNL     1       0.073   9.924  20.764  0.00  0.00    +0.000 C 
ATOM     10  C   UNL     1      -0.486  11.297  21.064  0.00  0.00    +0.000 C 
ATOM     11  C   UNL     1      -1.321  11.845  19.906  0.00  0.00    +0.000 C 
ATOM     12  C   UNL     1      -0.563  11.779  18.582  0.00  0.00    +0.000 C 
ATOM     13  C   UNL     1      -0.067  10.363  18.292  0.00  0.00    +0.000 C 
ATOM     14  C   UNL     1       0.809   9.752  19.424  0.00  0.00    +0.000 C 
ATOM     15  C   UNL     1       2.151  10.520  19.512  0.00  0.00    +0.000 C 
ATOM     16  C   UNL     1       1.798   5.993  20.001  0.00  0.00    +0.000 C 
ATOM     17  C   UNL     1       2.228   5.061  21.117  0.00  0.00    +0.000 C 
ATOM     18  C   UNL     1       2.865   3.878  20.384  0.00  0.00    +0.000 C 
ATOM     19  C   UNL     1       3.043   4.302  18.901  0.00  0.00    +0.000 C 
ENDROOT
BRANCH  11  20
ATOM     20  O   UNL     1      -1.685  13.199  20.171  0.00  0.00    +0.000 OA
ATOM     21  H   UNL     1      -1.329  13.750  19.453  0.00  0.00    +0.000 HD
ENDBRANCH  11  20
BRANCH  19  22
ATOM     22  C   UNL     1       4.293   3.673  18.249  0.00  0.00    +0.000 C 
BRANCH  22  23
ATOM     23  O   UNL     1       4.333   2.249  18.417  0.00  0.00    +0.000 OA
ATOM     24  H   UNL     1       4.872   1.860  17.711  0.00  0.00    +0.000 HD
ENDBRANCH  22  23
BRANCH  22  25
ATOM     25  C   UNL     1       4.374   3.926  16.730  0.00  0.00    +0.000 C 
BRANCH  25  26
ATOM     26  C   UNL     1       5.798   4.089  16.195  0.00  0.00    +0.000 C 
BRANCH  26  27
ATOM     27  C   UNL     1       6.584   5.131  16.969  0.00  0.00    +0.000 A 
ATOM     28  C   UNL     1       7.323   4.735  18.094  0.00  0.00    +0.000 A 
ATOM     29  C   UNL     1       8.032   5.669  18.849  0.00  0.00    +0.000 A 
ATOM     30  C   UNL     1       8.013   7.014  18.490  0.00  0.00    +0.000 A 
ATOM     31  C   UNL     1       7.291   7.425  17.375  0.00  0.00    +0.000 A 
ATOM     32  C   UNL     1       6.576   6.489  16.617  0.00  0.00    +0.000 A 
ENDBRANCH  26  27
BRANCH  26  33
ATOM     33  O   UNL     1       5.767   4.410  14.810  0.00  0.00    +0.000 OA
ATOM     34  H   UNL     1       6.446   3.875  14.366  0.00  0.00    +0.000 HD
ENDBRANCH  26  33
ENDBRANCH  25  26
ENDBRANCH  22  25
ENDBRANCH  19  22
TORSDOF 7
ENDMDL
