MODEL 1
REMARK VINA RESULT:      -8.4      0.000      0.000
REMARK  Name = 
REMARK  12 active torsions:
REMARK  status: ('A' for Active; 'I' for Inactive)
REMARK    1  A    between atoms: C_1  and  C_2
REMARK    2  A    between atoms: C_2  and  C_3
REMARK    3  A    between atoms: C_3  and  C_4
REMARK    4  A    between atoms: C_4  and  N_5
REMARK    5  A    between atoms: C_9  and  C_10
REMARK    6  A    between atoms: C_10  and  C_11
REMARK    7  A    between atoms: C_10  and  N_20
REMARK    8  A    between atoms: N_20  and  C_21
REMARK    9  A    between atoms: N_20  and  C_25
REMARK   10  A    between atoms: C_21  and  C_22
REMARK   11  A    between atoms: C_22  and  C_23
REMARK   12  A    between atoms: C_25  and  C_26
REMARK                            x       y       z     vdW  Elec       q    Type
REMARK                         _______ _______ _______ _____ _____    ______ ____
ROOT
ATOM      1  C   UNL     1       3.833   5.321  17.339  0.00  0.00    +0.000 C 
ENDROOT
BRANCH   1   2
ATOM      2  C   UNL     1       3.234   6.509  18.069  0.00  0.00    +0.000 A 
ATOM      3  C   UNL     1       2.531   6.549  19.257  0.00  0.00    +0.000 A 
ATOM      4  C   UNL     1       2.241   7.884  19.542  0.00  0.00    +0.000 A 
ATOM      5  C   UNL     1       1.516   8.465  20.579  0.00  0.00    +0.000 A 
ATOM      6  C   UNL     1       0.414   9.202  20.189  0.00  0.00    +0.000 A 
ATOM      7  C   UNL     1       0.412   9.778  18.920  0.00  0.00    +0.000 A 
ATOM      8  C   UNL     1       1.453   9.559  17.990  0.00  0.00    +0.000 A 
ATOM      9  C   UNL     1       2.264   8.471  18.289  0.00  0.00    +0.000 A 
ATOM     10  O   UNL     1       3.064   7.731  17.441  0.00  0.00    +0.000 OA
ENDBRANCH   1   2
BRANCH   1  15
ATOM     11  N   UNL     1       3.637   3.080  18.659  0.00  0.00    +0.000 N 
ATOM     12  N   UNL     1       4.395   2.407  19.544  0.00  0.00    +0.000 NA
ATOM     13  N   UNL     1       5.384   3.225  19.871  0.00  0.00    +0.000 NA
ATOM     14  N   UNL     1       5.290   4.410  19.192  0.00  0.00    +0.000 NA
ATOM     15  C   UNL     1       4.227   4.313  18.414  0.00  0.00    +0.000 A 
BRANCH  11  16
ATOM     16  C   UNL     1       2.364   2.518  18.256  0.00  0.00    +0.000 C 
BRANCH  16  17
ATOM     17  C   UNL     1       1.041   3.213  18.653  0.00  0.00    +0.000 C 
BRANCH  17  19
ATOM     18  C   UNL     1       1.270   2.640  21.128  0.00  0.00    +0.000 C 
ATOM     19  C   UNL     1       0.854   3.678  20.100  0.00  0.00    +0.000 C 
ENDBRANCH  17  19
ENDBRANCH  16  17
ENDBRANCH  11  16
ENDBRANCH   1  15
BRANCH   1  20
ATOM     20  N   UNL     1       4.992   5.597  16.441  0.00  0.00    +0.000 NA
BRANCH  20  21
ATOM     21  C   UNL     1       5.766   6.799  16.887  0.00  0.00    +0.000 C 
BRANCH  21  22
ATOM     22  C   UNL     1       7.211   6.604  17.373  0.00  0.00    +0.000 C 
BRANCH  22  23
ATOM     23  C   UNL     1       7.802   7.912  17.802  0.00  0.00    +0.000 C 
ATOM     24  N   UNL     1       8.300   8.927  18.029  0.00  0.00    +0.000 NA
ENDBRANCH  22  23
ENDBRANCH  21  22
ENDBRANCH  20  21
BRANCH  20  25
ATOM     25  C   UNL     1       5.867   4.423  16.208  0.00  0.00    +0.000 C 
BRANCH  25  26
ATOM     26  C   UNL     1       6.308   4.302  14.759  0.00  0.00    +0.000 A 
ATOM     27  C   UNL     1       7.406   5.031  14.248  0.00  0.00    +0.000 A 
ATOM     28  C   UNL     1       7.704   5.007  12.886  0.00  0.00    +0.000 A 
ATOM     29  C   UNL     1       6.931   4.255  12.008  0.00  0.00    +0.000 A 
ATOM     30  C   UNL     1       5.872   3.495  12.501  0.00  0.00    +0.000 A 
ATOM     31  C   UNL     1       5.571   3.502  13.867  0.00  0.00    +0.000 A 
ENDBRANCH  25  26
ENDBRANCH  20  25
ENDBRANCH   1  20
TORSDOF 11
ENDMDL
MODEL 2
REMARK VINA RESULT:      -8.2      0.438      1.004
REMARK  Name = 
REMARK  12 active torsions:
REMARK  status: ('A' for Active; 'I' for Inactive)
REMARK    1  A    between atoms: C_1  and  C_2
REMARK    2  A    between atoms: C_2  and  C_3
REMARK    3  A    between atoms: C_3  and  C_4
REMARK    4  A    between atoms: C_4  and  N_5
REMARK    5  A    between atoms: C_9  and  C_10
REMARK    6  A    between atoms: C_10  and  C_11
REMARK    7  A    between atoms: C_10  and  N_20
REMARK    8  A    between atoms: N_20  and  C_21
REMARK    9  A    between atoms: N_20  and  C_25
REMARK   10  A    between atoms: C_21  and  C_22
REMARK   11  A    between atoms: C_22  and  C_23
REMARK   12  A    between atoms: C_25  and  C_26
REMARK                            x       y       z     vdW  Elec       q    Type
REMARK                         _______ _______ _______ _____ _____    ______ ____
ROOT
ATOM      1  C   UNL     1       3.918   5.621  17.231  0.00  0.00    +0.000 C 
ENDROOT
BRANCH   1   2
ATOM      2  C   UNL     1       3.259   6.763  17.981  0.00  0.00    +0.000 A 
ATOM      3  C   UNL     1       2.517   6.740  19.145  0.00  0.00    +0.000 A 
ATOM      4  C   UNL     1       2.176   8.055  19.466  0.00  0.00    +0.000 A 
ATOM      5  C   UNL     1       1.399   8.576  20.497  0.00  0.00    +0.000 A 
ATOM      6  C   UNL     1       0.289   9.294  20.095  0.00  0.00    +0.000 A 
ATOM      7  C   UNL     1       0.311   9.915  18.848  0.00  0.00    +0.000 A 
ATOM      8  C   UNL     1       1.388   9.760  17.947  0.00  0.00    +0.000 A 
ATOM      9  C   UNL     1       2.223   8.687  18.236  0.00  0.00    +0.000 A 
ATOM     10  O   UNL     1       3.073   8.002  17.390  0.00  0.00    +0.000 OA
ENDBRANCH   1   2
BRANCH   1  15
ATOM     11  N   UNL     1       3.615   3.328  18.435  0.00  0.00    +0.000 N 
ATOM     12  N   UNL     1       4.318   2.597  19.320  0.00  0.00    +0.000 NA
ATOM     13  N   UNL     1       5.310   3.374  19.727  0.00  0.00    +0.000 NA
ATOM     14  N   UNL     1       5.272   4.591  19.101  0.00  0.00    +0.000 NA
ATOM     15  C   UNL     1       4.243   4.556  18.274  0.00  0.00    +0.000 A 
BRANCH  11  16
ATOM     16  C   UNL     1       2.348   2.816  17.953  0.00  0.00    +0.000 C 
BRANCH  16  17
ATOM     17  C   UNL     1       1.487   1.891  18.844  0.00  0.00    +0.000 C 
BRANCH  17  19
ATOM     18  C   UNL     1       1.031   3.957  20.269  0.00  0.00    +0.000 C 
ATOM     19  C   UNL     1       0.667   2.512  19.979  0.00  0.00    +0.000 C 
ENDBRANCH  17  19
ENDBRANCH  16  17
ENDBRANCH  11  16
ENDBRANCH   1  15
BRANCH   1  20
ATOM     20  N   UNL     1       5.137   5.951  16.435  0.00  0.00    +0.000 NA
BRANCH  20  21
ATOM     21  C   UNL     1       5.893   7.100  17.030  0.00  0.00    +0.000 C 
BRANCH  21  22
ATOM     22  C   UNL     1       7.359   6.880  17.440  0.00  0.00    +0.000 C 
BRANCH  22  23
ATOM     23  C   UNL     1       7.984   8.173  17.864  0.00  0.00    +0.000 C 
ATOM     24  N   UNL     1       8.371   9.220  18.158  0.00  0.00    +0.000 NA
ENDBRANCH  22  23
ENDBRANCH  21  22
ENDBRANCH  20  21
BRANCH  20  25
ATOM     25  C   UNL     1       6.013   4.787  16.161  0.00  0.00    +0.000 C 
BRANCH  25  26
ATOM     26  C   UNL     1       6.281   4.595  14.678  0.00  0.00    +0.000 A 
ATOM     27  C   UNL     1       5.533   3.687  13.895  0.00  0.00    +0.000 A 
ATOM     28  C   UNL     1       5.888   3.430  12.570  0.00  0.00    +0.000 A 
ATOM     29  C   UNL     1       6.979   4.073  11.995  0.00  0.00    +0.000 A 
ATOM     30  C   UNL     1       7.700   5.005  12.740  0.00  0.00    +0.000 A 
ATOM     31  C   UNL     1       7.346   5.279  14.064  0.00  0.00    +0.000 A 
ENDBRANCH  25  26
ENDBRANCH  20  25
ENDBRANCH   1  20
TORSDOF 11
ENDMDL
MODEL 3
REMARK VINA RESULT:      -8.0      1.193      3.484
REMARK  Name = 
REMARK  12 active torsions:
REMARK  status: ('A' for Active; 'I' for Inactive)
REMARK    1  A    between atoms: C_1  and  C_2
REMARK    2  A    between atoms: C_2  and  C_3
REMARK    3  A    between atoms: C_3  and  C_4
REMARK    4  A    between atoms: C_4  and  N_5
REMARK    5  A    between atoms: C_9  and  C_10
REMARK    6  A    between atoms: C_10  and  C_11
REMARK    7  A    between atoms: C_10  and  N_20
REMARK    8  A    between atoms: N_20  and  C_21
REMARK    9  A    between atoms: N_20  and  C_25
REMARK   10  A    between atoms: C_21  and  C_22
REMARK   11  A    between atoms: C_22  and  C_23
REMARK   12  A    between atoms: C_25  and  C_26
REMARK                            x       y       z     vdW  Elec       q    Type
REMARK                         _______ _______ _______ _____ _____    ______ ____
ROOT
ATOM      1  C   UNL     1       3.933   4.947  17.332  0.00  0.00    +0.000 C 
ENDROOT
BRANCH   1   2
ATOM      2  C   UNL     1       3.363   6.159  18.044  0.00  0.00    +0.000 A 
ATOM      3  C   UNL     1       2.593   6.227  19.188  0.00  0.00    +0.000 A 
ATOM      4  C   UNL     1       2.367   7.574  19.477  0.00  0.00    +0.000 A 
ATOM      5  C   UNL     1       1.615   8.184  20.478  0.00  0.00    +0.000 A 
ATOM      6  C   UNL     1       0.586   8.992  20.034  0.00  0.00    +0.000 A 
ATOM      7  C   UNL     1       0.696   9.584  18.777  0.00  0.00    +0.000 A 
ATOM      8  C   UNL     1       1.777   9.313  17.909  0.00  0.00    +0.000 A 
ATOM      9  C   UNL     1       2.502   8.174  18.238  0.00  0.00    +0.000 A 
ATOM     10  O   UNL     1       3.307   7.398  17.427  0.00  0.00    +0.000 OA
ENDBRANCH   1   2
BRANCH   1  15
ATOM     11  N   UNL     1       3.378   2.760  18.639  0.00  0.00    +0.000 N 
ATOM     12  N   UNL     1       4.014   1.974  19.528  0.00  0.00    +0.000 NA
ATOM     13  N   UNL     1       5.116   2.625  19.866  0.00  0.00    +0.000 NA
ATOM     14  N   UNL     1       5.214   3.813  19.192  0.00  0.00    +0.000 NA
ATOM     15  C   UNL     1       4.156   3.887  18.405  0.00  0.00    +0.000 A 
BRANCH  11  16
ATOM     16  C   UNL     1       2.036   2.406  18.224  0.00  0.00    +0.000 C 
BRANCH  16  17
ATOM     17  C   UNL     1       0.811   2.910  19.022  0.00  0.00    +0.000 C 
BRANCH  17  19
ATOM     18  C   UNL     1       1.583   3.796  21.286  0.00  0.00    +0.000 C 
ATOM     19  C   UNL     1       0.794   2.732  20.543  0.00  0.00    +0.000 C 
ENDBRANCH  17  19
ENDBRANCH  16  17
ENDBRANCH  11  16
ENDBRANCH   1  15
BRANCH   1  20
ATOM     20  N   UNL     1       5.184   5.154  16.545  0.00  0.00    +0.000 NA
BRANCH  20  21
ATOM     21  C   UNL     1       5.195   4.332  15.293  0.00  0.00    +0.000 C 
BRANCH  21  22
ATOM     22  C   UNL     1       6.467   4.325  14.429  0.00  0.00    +0.000 C 
BRANCH  22  23
ATOM     23  C   UNL     1       6.202   3.666  13.110  0.00  0.00    +0.000 C 
ATOM     24  N   UNL     1       5.891   3.144  12.129  0.00  0.00    +0.000 NA
ENDBRANCH  22  23
ENDBRANCH  21  22
ENDBRANCH  20  21
BRANCH  20  25
ATOM     25  C   UNL     1       5.502   6.578  16.281  0.00  0.00    +0.000 C 
BRANCH  25  26
ATOM     26  C   UNL     1       6.558   7.125  17.227  0.00  0.00    +0.000 A 
ATOM     27  C   UNL     1       6.978   8.474  17.179  0.00  0.00    +0.000 A 
ATOM     28  C   UNL     1       8.043   8.915  17.964  0.00  0.00    +0.000 A 
ATOM     29  C   UNL     1       8.703   8.037  18.816  0.00  0.00    +0.000 A 
ATOM     30  C   UNL     1       8.272   6.715  18.909  0.00  0.00    +0.000 A 
ATOM     31  C   UNL     1       7.198   6.264  18.136  0.00  0.00    +0.000 A 
ENDBRANCH  25  26
ENDBRANCH  20  25
ENDBRANCH   1  20
TORSDOF 11
ENDMDL
MODEL 4
REMARK VINA RESULT:      -7.9      0.782      1.263
REMARK  Name = 
REMARK  12 active torsions:
REMARK  status: ('A' for Active; 'I' for Inactive)
REMARK    1  A    between atoms: C_1  and  C_2
REMARK    2  A    between atoms: C_2  and  C_3
REMARK    3  A    between atoms: C_3  and  C_4
REMARK    4  A    between atoms: C_4  and  N_5
REMARK    5  A    between atoms: C_9  and  C_10
REMARK    6  A    between atoms: C_10  and  C_11
REMARK    7  A    between atoms: C_10  and  N_20
REMARK    8  A    between atoms: N_20  and  C_21
REMARK    9  A    between atoms: N_20  and  C_25
REMARK   10  A    between atoms: C_21  and  C_22
REMARK   11  A    between atoms: C_22  and  C_23
REMARK   12  A    between atoms: C_25  and  C_26
REMARK                            x       y       z     vdW  Elec       q    Type
REMARK                         _______ _______ _______ _____ _____    ______ ____
ROOT
ATOM      1  C   UNL     1       4.299   5.471  17.194  0.00  0.00    +0.000 C 
ENDROOT
BRANCH   1   2
ATOM      2  C   UNL     1       3.284   6.494  17.669  0.00  0.00    +0.000 A 
ATOM      3  C   UNL     1       3.066   7.786  17.235  0.00  0.00    +0.000 A 
ATOM      4  C   UNL     1       1.981   8.303  17.944  0.00  0.00    +0.000 A 
ATOM      5  C   UNL     1       1.392   9.565  17.929  0.00  0.00    +0.000 A 
ATOM      6  C   UNL     1       1.402  10.236  19.137  0.00  0.00    +0.000 A 
ATOM      7  C   UNL     1       1.439   9.491  20.314  0.00  0.00    +0.000 A 
ATOM      8  C   UNL     1       1.560   8.083  20.312  0.00  0.00    +0.000 A 
ATOM      9  C   UNL     1       1.993   7.550  19.104  0.00  0.00    +0.000 A 
ATOM     10  O   UNL     1       2.606   6.335  18.867  0.00  0.00    +0.000 OA
ENDBRANCH   1   2
BRANCH   1  15
ATOM     11  N   UNL     1       4.280   3.305  18.645  0.00  0.00    +0.000 N 
ATOM     12  N   UNL     1       4.954   2.851  19.718  0.00  0.00    +0.000 NA
ATOM     13  N   UNL     1       5.669   3.874  20.157  0.00  0.00    +0.000 NA
ATOM     14  N   UNL     1       5.486   4.979  19.369  0.00  0.00    +0.000 NA
ATOM     15  C   UNL     1       4.651   4.622  18.410  0.00  0.00    +0.000 A 
BRANCH  11  16
ATOM     16  C   UNL     1       3.257   2.466  18.053  0.00  0.00    +0.000 C 
BRANCH  16  17
ATOM     17  C   UNL     1       1.802   2.975  17.929  0.00  0.00    +0.000 C 
BRANCH  17  19
ATOM     18  C   UNL     1       1.045   3.370  20.333  0.00  0.00    +0.000 C 
ATOM     19  C   UNL     1       0.799   2.626  19.032  0.00  0.00    +0.000 C 
ENDBRANCH  17  19
ENDBRANCH  16  17
ENDBRANCH  11  16
ENDBRANCH   1  15
BRANCH   1  20
ATOM     20  N   UNL     1       5.540   6.000  16.556  0.00  0.00    +0.000 NA
BRANCH  20  21
ATOM     21  C   UNL     1       6.083   7.184  17.296  0.00  0.00    +0.000 C 
BRANCH  21  22
ATOM     22  C   UNL     1       7.601   7.279  17.518  0.00  0.00    +0.000 C 
BRANCH  22  23
ATOM     23  C   UNL     1       7.994   8.685  17.857  0.00  0.00    +0.000 C 
ATOM     24  N   UNL     1       8.395   9.746  18.067  0.00  0.00    +0.000 NA
ENDBRANCH  22  23
ENDBRANCH  21  22
ENDBRANCH  20  21
BRANCH  20  25
ATOM     25  C   UNL     1       6.578   4.970  16.312  0.00  0.00    +0.000 C 
BRANCH  25  26
ATOM     26  C   UNL     1       6.768   4.672  14.834  0.00  0.00    +0.000 A 
ATOM     27  C   UNL     1       7.720   5.362  14.049  0.00  0.00    +0.000 A 
ATOM     28  C   UNL     1       7.780   5.166  12.669  0.00  0.00    +0.000 A 
ATOM     29  C   UNL     1       6.910   4.281  12.044  0.00  0.00    +0.000 A 
ATOM     30  C   UNL     1       5.995   3.560  12.809  0.00  0.00    +0.000 A 
ATOM     31  C   UNL     1       5.934   3.738  14.195  0.00  0.00    +0.000 A 
ENDBRANCH  25  26
ENDBRANCH  20  25
ENDBRANCH   1  20
TORSDOF 11
ENDMDL
MODEL 5
REMARK VINA RESULT:      -7.9      0.920      1.077
REMARK  Name = 
REMARK  12 active torsions:
REMARK  status: ('A' for Active; 'I' for Inactive)
REMARK    1  A    between atoms: C_1  and  C_2
REMARK    2  A    between atoms: C_2  and  C_3
REMARK    3  A    between atoms: C_3  and  C_4
REMARK    4  A    between atoms: C_4  and  N_5
REMARK    5  A    between atoms: C_9  and  C_10
REMARK    6  A    between atoms: C_10  and  C_11
REMARK    7  A    between atoms: C_10  and  N_20
REMARK    8  A    between atoms: N_20  and  C_21
REMARK    9  A    between atoms: N_20  and  C_25
REMARK   10  A    between atoms: C_21  and  C_22
REMARK   11  A    between atoms: C_22  and  C_23
REMARK   12  A    between atoms: C_25  and  C_26
REMARK                            x       y       z     vdW  Elec       q    Type
REMARK                         _______ _______ _______ _____ _____    ______ ____
ROOT
ATOM      1  C   UNL     1       4.088   5.164  17.448  0.00  0.00    +0.000 C 
ENDROOT
BRANCH   1   2
ATOM      2  C   UNL     1       3.433   6.328  18.168  0.00  0.00    +0.000 A 
ATOM      3  C   UNL     1       2.593   6.325  19.263  0.00  0.00    +0.000 A 
ATOM      4  C   UNL     1       2.302   7.651  19.587  0.00  0.00    +0.000 A 
ATOM      5  C   UNL     1       1.470   8.197  20.561  0.00  0.00    +0.000 A 
ATOM      6  C   UNL     1       0.441   8.986  20.084  0.00  0.00    +0.000 A 
ATOM      7  C   UNL     1       0.606   9.630  18.860  0.00  0.00    +0.000 A 
ATOM      8  C   UNL     1       1.746   9.430  18.050  0.00  0.00    +0.000 A 
ATOM      9  C   UNL     1       2.490   8.304  18.381  0.00  0.00    +0.000 A 
ATOM     10  O   UNL     1       3.370   7.587  17.594  0.00  0.00    +0.000 OA
ENDBRANCH   1   2
BRANCH   1  15
ATOM     11  N   UNL     1       3.471   2.875  18.534  0.00  0.00    +0.000 N 
ATOM     12  N   UNL     1       4.020   2.058  19.451  0.00  0.00    +0.000 NA
ATOM     13  N   UNL     1       5.035   2.728  19.975  0.00  0.00    +0.000 NA
ATOM     14  N   UNL     1       5.164   3.961  19.393  0.00  0.00    +0.000 NA
ATOM     15  C   UNL     1       4.218   4.044  18.475  0.00  0.00    +0.000 A 
BRANCH  11  16
ATOM     16  C   UNL     1       2.215   2.496  17.920  0.00  0.00    +0.000 C 
BRANCH  16  17
ATOM     17  C   UNL     1       0.931   2.375  18.773  0.00  0.00    +0.000 C 
BRANCH  17  19
ATOM     18  C   UNL     1       1.215   2.850  21.263  0.00  0.00    +0.000 C 
ATOM     19  C   UNL     1       0.713   3.362  19.925  0.00  0.00    +0.000 C 
ENDBRANCH  17  19
ENDBRANCH  16  17
ENDBRANCH  11  16
ENDBRANCH   1  15
BRANCH   1  20
ATOM     20  N   UNL     1       5.409   5.427  16.803  0.00  0.00    +0.000 NA
BRANCH  20  21
ATOM     21  C   UNL     1       6.285   4.212  16.817  0.00  0.00    +0.000 C 
BRANCH  21  22
ATOM     22  C   UNL     1       7.746   4.366  17.271  0.00  0.00    +0.000 C 
BRANCH  22  23
ATOM     23  C   UNL     1       7.867   5.460  18.287  0.00  0.00    +0.000 C 
ATOM     24  N   UNL     1       7.864   6.344  19.028  0.00  0.00    +0.000 NA
ENDBRANCH  22  23
ENDBRANCH  21  22
ENDBRANCH  20  21
BRANCH  20  25
ATOM     25  C   UNL     1       5.311   6.031  15.453  0.00  0.00    +0.000 C 
BRANCH  25  26
ATOM     26  C   UNL     1       5.882   5.132  14.369  0.00  0.00    +0.000 A 
ATOM     27  C   UNL     1       7.170   5.342  13.827  0.00  0.00    +0.000 A 
ATOM     28  C   UNL     1       7.617   4.589  12.741  0.00  0.00    +0.000 A 
ATOM     29  C   UNL     1       6.804   3.611  12.180  0.00  0.00    +0.000 A 
ATOM     30  C   UNL     1       5.548   3.360  12.731  0.00  0.00    +0.000 A 
ATOM     31  C   UNL     1       5.095   4.101  13.827  0.00  0.00    +0.000 A 
ENDBRANCH  25  26
ENDBRANCH  20  25
ENDBRANCH   1  20
TORSDOF 11
ENDMDL
MODEL 6
REMARK VINA RESULT:      -7.6      2.008      7.347
REMARK  Name = 
REMARK  12 active torsions:
REMARK  status: ('A' for Active; 'I' for Inactive)
REMARK    1  A    between atoms: C_1  and  C_2
REMARK    2  A    between atoms: C_2  and  C_3
REMARK    3  A    between atoms: C_3  and  C_4
REMARK    4  A    between atoms: C_4  and  N_5
REMARK    5  A    between atoms: C_9  and  C_10
REMARK    6  A    between atoms: C_10  and  C_11
REMARK    7  A    between atoms: C_10  and  N_20
REMARK    8  A    between atoms: N_20  and  C_21
REMARK    9  A    between atoms: N_20  and  C_25
REMARK   10  A    between atoms: C_21  and  C_22
REMARK   11  A    between atoms: C_22  and  C_23
REMARK   12  A    between atoms: C_25  and  C_26
REMARK                            x       y       z     vdW  Elec       q    Type
REMARK                         _______ _______ _______ _____ _____    ______ ____
ROOT
ATOM      1  C   UNL     1       5.528   6.011  17.063  0.00  0.00    +0.000 C 
ENDROOT
BRANCH   1   2
ATOM      2  C   UNL     1       5.846   5.167  15.843  0.00  0.00    +0.000 A 
ATOM      3  C   UNL     1       6.892   5.273  14.948  0.00  0.00    +0.000 A 
ATOM      4  C   UNL     1       6.781   4.228  14.029  0.00  0.00    +0.000 A 
ATOM      5  C   UNL     1       7.538   3.911  12.904  0.00  0.00    +0.000 A 
ATOM      6  C   UNL     1       6.843   3.893  11.710  0.00  0.00    +0.000 A 
ATOM      7  C   UNL     1       5.476   3.623  11.737  0.00  0.00    +0.000 A 
ATOM      8  C   UNL     1       4.764   3.458  12.946  0.00  0.00    +0.000 A 
ATOM      9  C   UNL     1       5.430   3.933  14.069  0.00  0.00    +0.000 A 
ATOM     10  O   UNL     1       4.904   4.317  15.287  0.00  0.00    +0.000 OA
ENDBRANCH   1   2
BRANCH   1  15
ATOM     11  N   UNL     1       7.624   6.889  18.341  0.00  0.00    +0.000 N 
ATOM     12  N   UNL     1       8.411   6.439  19.336  0.00  0.00    +0.000 NA
ATOM     13  N   UNL     1       8.045   5.185  19.550  0.00  0.00    +0.000 NA
ATOM     14  N   UNL     1       7.016   4.822  18.723  0.00  0.00    +0.000 NA
ATOM     15  C   UNL     1       6.728   5.886  17.994  0.00  0.00    +0.000 A 
BRANCH  11  16
ATOM     16  C   UNL     1       7.913   8.178  17.746  0.00  0.00    +0.000 C 
BRANCH  16  17
ATOM     17  C   UNL     1       8.696   9.249  18.541  0.00  0.00    +0.000 C 
BRANCH  17  19
ATOM     18  C   UNL     1      10.010  11.434  18.490  0.00  0.00    +0.000 C 
ATOM     19  C   UNL     1       8.815  10.661  17.960  0.00  0.00    +0.000 C 
ENDBRANCH  17  19
ENDBRANCH  16  17
ENDBRANCH  11  16
ENDBRANCH   1  15
BRANCH   1  20
ATOM     20  N   UNL     1       4.269   5.686  17.797  0.00  0.00    +0.000 NA
BRANCH  20  21
ATOM     21  C   UNL     1       3.164   6.636  17.450  0.00  0.00    +0.000 C 
BRANCH  21  22
ATOM     22  C   UNL     1       2.523   7.461  18.578  0.00  0.00    +0.000 C 
BRANCH  22  23
ATOM     23  C   UNL     1       2.147   8.824  18.082  0.00  0.00    +0.000 C 
ATOM     24  N   UNL     1       1.921   9.852  17.610  0.00  0.00    +0.000 NA
ENDBRANCH  22  23
ENDBRANCH  21  22
ENDBRANCH  20  21
BRANCH  20  25
ATOM     25  C   UNL     1       3.849   4.270  17.676  0.00  0.00    +0.000 C 
BRANCH  25  26
ATOM     26  C   UNL     1       2.847   3.865  18.744  0.00  0.00    +0.000 A 
ATOM     27  C   UNL     1       3.115   4.034  20.122  0.00  0.00    +0.000 A 
ATOM     28  C   UNL     1       2.239   3.531  21.083  0.00  0.00    +0.000 A 
ATOM     29  C   UNL     1       1.081   2.862  20.702  0.00  0.00    +0.000 A 
ATOM     30  C   UNL     1       0.779   2.726  19.348  0.00  0.00    +0.000 A 
ATOM     31  C   UNL     1       1.644   3.237  18.375  0.00  0.00    +0.000 A 
ENDBRANCH  25  26
ENDBRANCH  20  25
ENDBRANCH   1  20
TORSDOF 11
ENDMDL
MODEL 7
REMARK VINA RESULT:      -7.6      1.016      1.486
REMARK  Name = 
REMARK  12 active torsions:
REMARK  status: ('A' for Active; 'I' for Inactive)
REMARK    1  A    between atoms: C_1  and  C_2
REMARK    2  A    between atoms: C_2  and  C_3
REMARK    3  A    between atoms: C_3  and  C_4
REMARK    4  A    between atoms: C_4  and  N_5
REMARK    5  A    between atoms: C_9  and  C_10
REMARK    6  A    between atoms: C_10  and  C_11
REMARK    7  A    between atoms: C_10  and  N_20
REMARK    8  A    between atoms: N_20  and  C_21
REMARK    9  A    between atoms: N_20  and  C_25
REMARK   10  A    between atoms: C_21  and  C_22
REMARK   11  A    between atoms: C_22  and  C_23
REMARK   12  A    between atoms: C_25  and  C_26
REMARK                            x       y       z     vdW  Elec       q    Type
REMARK                         _______ _______ _______ _____ _____    ______ ____
ROOT
ATOM      1  C   UNL     1       4.091   4.947  17.432  0.00  0.00    +0.000 C 
ENDROOT
BRANCH   1   2
ATOM      2  C   UNL     1       3.150   5.989  18.008  0.00  0.00    +0.000 A 
ATOM      3  C   UNL     1       3.053   7.337  17.729  0.00  0.00    +0.000 A 
ATOM      4  C   UNL     1       1.993   7.857  18.474  0.00  0.00    +0.000 A 
ATOM      5  C   UNL     1       1.511   9.157  18.600  0.00  0.00    +0.000 A 
ATOM      6  C   UNL     1       1.540   9.677  19.880  0.00  0.00    +0.000 A 
ATOM      7  C   UNL     1       1.481   8.797  20.959  0.00  0.00    +0.000 A 
ATOM      8  C   UNL     1       1.486   7.394  20.790  0.00  0.00    +0.000 A 
ATOM      9  C   UNL     1       1.909   6.973  19.535  0.00  0.00    +0.000 A 
ATOM     10  O   UNL     1       2.426   5.747  19.164  0.00  0.00    +0.000 OA
ENDBRANCH   1   2
BRANCH   1  15
ATOM     11  N   UNL     1       3.557   2.677  18.599  0.00  0.00    +0.000 N 
ATOM     12  N   UNL     1       4.126   1.923  19.559  0.00  0.00    +0.000 NA
ATOM     13  N   UNL     1       5.098   2.660  20.072  0.00  0.00    +0.000 NA
ATOM     14  N   UNL     1       5.182   3.874  19.443  0.00  0.00    +0.000 NA
ATOM     15  C   UNL     1       4.251   3.876  18.507  0.00  0.00    +0.000 A 
BRANCH  11  16
ATOM     16  C   UNL     1       2.332   2.215  17.979  0.00  0.00    +0.000 C 
BRANCH  16  17
ATOM     17  C   UNL     1       1.015   2.167  18.788  0.00  0.00    +0.000 C 
BRANCH  17  19
ATOM     18  C   UNL     1       1.257   2.864  21.230  0.00  0.00    +0.000 C 
ATOM     19  C   UNL     1       0.757   3.243  19.847  0.00  0.00    +0.000 C 
ENDBRANCH  17  19
ENDBRANCH  16  17
ENDBRANCH  11  16
ENDBRANCH   1  15
BRANCH   1  20
ATOM     20  N   UNL     1       5.430   5.426  16.977  0.00  0.00    +0.000 NA
BRANCH  20  21
ATOM     21  C   UNL     1       6.461   4.342  17.051  0.00  0.00    +0.000 C 
BRANCH  21  22
ATOM     22  C   UNL     1       7.767   4.621  17.813  0.00  0.00    +0.000 C 
BRANCH  22  23
ATOM     23  C   UNL     1       7.841   6.062  18.215  0.00  0.00    +0.000 C 
ATOM     24  N   UNL     1       7.985   7.181  18.452  0.00  0.00    +0.000 NA
ENDBRANCH  22  23
ENDBRANCH  21  22
ENDBRANCH  20  21
BRANCH  20  25
ATOM     25  C   UNL     1       5.413   6.094  15.654  0.00  0.00    +0.000 C 
BRANCH  25  26
ATOM     26  C   UNL     1       5.952   5.206  14.545  0.00  0.00    +0.000 A 
ATOM     27  C   UNL     1       7.242   5.390  14.000  0.00  0.00    +0.000 A 
ATOM     28  C   UNL     1       7.660   4.650  12.894  0.00  0.00    +0.000 A 
ATOM     29  C   UNL     1       6.814   3.711  12.314  0.00  0.00    +0.000 A 
ATOM     30  C   UNL     1       5.555   3.485  12.866  0.00  0.00    +0.000 A 
ATOM     31  C   UNL     1       5.131   4.212  13.983  0.00  0.00    +0.000 A 
ENDBRANCH  25  26
ENDBRANCH  20  25
ENDBRANCH   1  20
TORSDOF 11
ENDMDL
MODEL 8
REMARK VINA RESULT:      -7.6      0.926      1.354
REMARK  Name = 
REMARK  12 active torsions:
REMARK  status: ('A' for Active; 'I' for Inactive)
REMARK    1  A    between atoms: C_1  and  C_2
REMARK    2  A    between atoms: C_2  and  C_3
REMARK    3  A    between atoms: C_3  and  C_4
REMARK    4  A    between atoms: C_4  and  N_5
REMARK    5  A    between atoms: C_9  and  C_10
REMARK    6  A    between atoms: C_10  and  C_11
REMARK    7  A    between atoms: C_10  and  N_20
REMARK    8  A    between atoms: N_20  and  C_21
REMARK    9  A    between atoms: N_20  and  C_25
REMARK   10  A    between atoms: C_21  and  C_22
REMARK   11  A    between atoms: C_22  and  C_23
REMARK   12  A    between atoms: C_25  and  C_26
REMARK                            x       y       z     vdW  Elec       q    Type
REMARK                         _______ _______ _______ _____ _____    ______ ____
ROOT
ATOM      1  C   UNL     1       4.193   4.397  17.533  0.00  0.00    +0.000 C 
ENDROOT
BRANCH   1   2
ATOM      2  C   UNL     1       3.654   5.707  18.077  0.00  0.00    +0.000 A 
ATOM      3  C   UNL     1       2.872   5.942  19.190  0.00  0.00    +0.000 A 
ATOM      4  C   UNL     1       2.686   7.321  19.303  0.00  0.00    +0.000 A 
ATOM      5  C   UNL     1       1.942   8.076  20.206  0.00  0.00    +0.000 A 
ATOM      6  C   UNL     1       0.945   8.852  19.647  0.00  0.00    +0.000 A 
ATOM      7  C   UNL     1       1.090   9.277  18.328  0.00  0.00    +0.000 A 
ATOM      8  C   UNL     1       2.172   8.865  17.518  0.00  0.00    +0.000 A 
ATOM      9  C   UNL     1       2.856   7.756  18.001  0.00  0.00    +0.000 A 
ATOM     10  O   UNL     1       3.645   6.859  17.308  0.00  0.00    +0.000 OA
ENDBRANCH   1   2
BRANCH   1  15
ATOM     11  N   UNL     1       3.272   2.380  18.905  0.00  0.00    +0.000 N 
ATOM     12  N   UNL     1       3.714   1.617  19.921  0.00  0.00    +0.000 NA
ATOM     13  N   UNL     1       4.823   2.196  20.355  0.00  0.00    +0.000 NA
ATOM     14  N   UNL     1       5.118   3.312  19.619  0.00  0.00    +0.000 NA
ATOM     15  C   UNL     1       4.178   3.412  18.697  0.00  0.00    +0.000 A 
BRANCH  11  16
ATOM     16  C   UNL     1       1.965   2.110  18.342  0.00  0.00    +0.000 C 
BRANCH  16  17
ATOM     17  C   UNL     1       0.698   2.733  18.973  0.00  0.00    +0.000 C 
BRANCH  17  19
ATOM     18  C   UNL     1       1.271   2.770  21.459  0.00  0.00    +0.000 C 
ATOM     19  C   UNL     1       0.841   3.575  20.245  0.00  0.00    +0.000 C 
ENDBRANCH  17  19
ENDBRANCH  16  17
ENDBRANCH  11  16
ENDBRANCH   1  15
BRANCH   1  20
ATOM     20  N   UNL     1       5.548   4.434  16.906  0.00  0.00    +0.000 NA
BRANCH  20  21
ATOM     21  C   UNL     1       6.635   4.440  17.936  0.00  0.00    +0.000 C 
BRANCH  21  22
ATOM     22  C   UNL     1       7.736   5.509  17.836  0.00  0.00    +0.000 C 
BRANCH  22  23
ATOM     23  C   UNL     1       7.144   6.840  17.485  0.00  0.00    +0.000 C 
ATOM     24  N   UNL     1       6.771   7.876  17.140  0.00  0.00    +0.000 NA
ENDBRANCH  22  23
ENDBRANCH  21  22
ENDBRANCH  20  21
BRANCH  20  25
ATOM     25  C   UNL     1       5.763   3.395  15.872  0.00  0.00    +0.000 C 
BRANCH  25  26
ATOM     26  C   UNL     1       6.243   3.975  14.552  0.00  0.00    +0.000 A 
ATOM     27  C   UNL     1       5.898   3.394  13.311  0.00  0.00    +0.000 A 
ATOM     28  C   UNL     1       6.461   3.864  12.125  0.00  0.00    +0.000 A 
ATOM     29  C   UNL     1       7.366   4.920  12.143  0.00  0.00    +0.000 A 
ATOM     30  C   UNL     1       7.683   5.533  13.354  0.00  0.00    +0.000 A 
ATOM     31  C   UNL     1       7.115   5.078  14.548  0.00  0.00    +0.000 A 
ENDBRANCH  25  26
ENDBRANCH  20  25
ENDBRANCH   1  20
TORSDOF 11
ENDMDL
MODEL 9
REMARK VINA RESULT:      -7.6      2.056      7.306
REMARK  Name = 
REMARK  12 active torsions:
REMARK  status: ('A' for Active; 'I' for Inactive)
REMARK    1  A    between atoms: C_1  and  C_2
REMARK    2  A    between atoms: C_2  and  C_3
REMARK    3  A    between atoms: C_3  and  C_4
REMARK    4  A    between atoms: C_4  and  N_5
REMARK    5  A    between atoms: C_9  and  C_10
REMARK    6  A    between atoms: C_10  and  C_11
REMARK    7  A    between atoms: C_10  and  N_20
REMARK    8  A    between atoms: N_20  and  C_21
REMARK    9  A    between atoms: N_20  and  C_25
REMARK   10  A    between atoms: C_21  and  C_22
REMARK   11  A    between atoms: C_22  and  C_23
REMARK   12  A    between atoms: C_25  and  C_26
REMARK                            x       y       z     vdW  Elec       q    Type
REMARK                         _______ _______ _______ _____ _____    ______ ____
ROOT
ATOM      1  C   UNL     1       5.179   6.210  17.220  0.00  0.00    +0.000 C 
ENDROOT
BRANCH   1   2
ATOM      2  C   UNL     1       5.362   5.660  15.818  0.00  0.00    +0.000 A 
ATOM      3  C   UNL     1       4.835   4.520  15.243  0.00  0.00    +0.000 A 
ATOM      4  C   UNL     1       5.250   4.477  13.911  0.00  0.00    +0.000 A 
ATOM      5  C   UNL     1       5.046   3.524  12.917  0.00  0.00    +0.000 A 
ATOM      6  C   UNL     1       6.194   2.956  12.398  0.00  0.00    +0.000 A 
ATOM      7  C   UNL     1       7.377   3.691  12.435  0.00  0.00    +0.000 A 
ATOM      8  C   UNL     1       7.463   4.952  13.066  0.00  0.00    +0.000 A 
ATOM      9  C   UNL     1       6.412   5.228  13.933  0.00  0.00    +0.000 A 
ATOM     10  O   UNL     1       6.375   6.116  14.990  0.00  0.00    +0.000 OA
ENDBRANCH   1   2
BRANCH   1  15
ATOM     11  N   UNL     1       7.494   6.829  18.249  0.00  0.00    +0.000 N 
ATOM     12  N   UNL     1       8.368   6.246  19.091  0.00  0.00    +0.000 NA
ATOM     13  N   UNL     1       7.931   5.009  19.268  0.00  0.00    +0.000 NA
ATOM     14  N   UNL     1       6.774   4.789  18.571  0.00  0.00    +0.000 NA
ATOM     15  C   UNL     1       6.480   5.924  17.963  0.00  0.00    +0.000 A 
BRANCH  11  16
ATOM     16  C   UNL     1       7.806   8.136  17.709  0.00  0.00    +0.000 C 
BRANCH  16  17
ATOM     17  C   UNL     1       8.700   9.118  18.502  0.00  0.00    +0.000 C 
BRANCH  17  19
ATOM     18  C   UNL     1       9.960  11.334  18.601  0.00  0.00    +0.000 C 
ATOM     19  C   UNL     1       8.747  10.588  18.073  0.00  0.00    +0.000 C 
ENDBRANCH  17  19
ENDBRANCH  16  17
ENDBRANCH  11  16
ENDBRANCH   1  15
BRANCH   1  20
ATOM     20  N   UNL     1       4.016   5.694  18.000  0.00  0.00    +0.000 NA
BRANCH  20  21
ATOM     21  C   UNL     1       2.872   6.662  17.993  0.00  0.00    +0.000 C 
BRANCH  21  22
ATOM     22  C   UNL     1       3.161   8.139  17.681  0.00  0.00    +0.000 C 
BRANCH  22  23
ATOM     23  C   UNL     1       1.914   8.958  17.818  0.00  0.00    +0.000 C 
ATOM     24  N   UNL     1       0.926   9.522  18.010  0.00  0.00    +0.000 NA
ENDBRANCH  22  23
ENDBRANCH  21  22
ENDBRANCH  20  21
BRANCH  20  25
ATOM     25  C   UNL     1       3.593   4.326  17.619  0.00  0.00    +0.000 C 
BRANCH  25  26
ATOM     26  C   UNL     1       2.801   3.633  18.715  0.00  0.00    +0.000 A 
ATOM     27  C   UNL     1       1.445   3.273  18.543  0.00  0.00    +0.000 A 
ATOM     28  C   UNL     1       0.704   2.763  19.610  0.00  0.00    +0.000 A 
ATOM     29  C   UNL     1       1.291   2.592  20.858  0.00  0.00    +0.000 A 
ATOM     30  C   UNL     1       2.640   2.900  21.033  0.00  0.00    +0.000 A 
ATOM     31  C   UNL     1       3.395   3.400  19.968  0.00  0.00    +0.000 A 
ENDBRANCH  25  26
ENDBRANCH  20  25
ENDBRANCH   1  20
TORSDOF 11
ENDMDL
