MODEL 1
REMARK VINA RESULT:      -9.7      0.000      0.000
REMARK  Name = 
REMARK  12 active torsions:
REMARK  status: ('A' for Active; 'I' for Inactive)
REMARK    1  A    between atoms: C_1  and  C_2
REMARK    2  A    between atoms: C_2  and  C_3
REMARK    3  A    between atoms: C_4  and  C_5
REMARK    4  A    between atoms: C_5  and  C_6
REMARK    5  A    between atoms: C_8  and  C_9
REMARK    6  A    between atoms: C_15  and  O_16
REMARK    7  A    between atoms: C_20  and  C_21
REMARK    8  A    between atoms: C_21  and  C_22
REMARK    9  A    between atoms: C_23  and  C_24
REMARK   10  A    between atoms: C_23  and  C_25
REMARK   11  A    between atoms: C_26  and  O_27
REMARK   12  A    between atoms: C_28  and  O_29
REMARK                            x       y       z     vdW  Elec       q    Type
REMARK                         _______ _______ _______ _____ _____    ______ ____
ROOT
ATOM      1  C   UNL     1       5.093   5.460  16.782  0.00  0.00    +0.000 A 
ATOM      2  C   UNL     1       4.185   6.428  17.236  0.00  0.00    +0.000 A 
ATOM      3  C   UNL     1       2.924   6.095  17.801  0.00  0.00    +0.000 A 
ATOM      4  C   UNL     1       2.552   4.722  17.878  0.00  0.00    +0.000 A 
ATOM      5  C   UNL     1       3.504   3.765  17.473  0.00  0.00    +0.000 A 
ATOM      6  C   UNL     1       4.749   4.128  16.951  0.00  0.00    +0.000 A 
ENDROOT
BRANCH   3   7
ATOM      7  C   UNL     1       2.070   7.278  18.280  0.00  0.00    +0.000 C 
ATOM      8  C   UNL     1       2.414   8.596  17.587  0.00  0.00    +0.000 C 
ATOM      9  C   UNL     1       1.391   9.647  17.977  0.00  0.00    +0.000 C 
ATOM     10  C   UNL     1       1.184   9.627  19.464  0.00  0.00    +0.000 A 
ATOM     11  C   UNL     1       0.612  10.742  20.092  0.00  0.00    +0.000 A 
ATOM     12  C   UNL     1       0.388  10.741  21.470  0.00  0.00    +0.000 A 
ATOM     13  C   UNL     1       0.730   9.615  22.213  0.00  0.00    +0.000 A 
ATOM     14  C   UNL     1       1.302   8.501  21.605  0.00  0.00    +0.000 A 
ATOM     15  C   UNL     1       1.528   8.503  20.229  0.00  0.00    +0.000 A 
ATOM     16  O   UNL     1       2.135   7.385  19.710  0.00  0.00    +0.000 OA
BRANCH  13  17
ATOM     17  O   UNL     1       0.515   9.574  23.562  0.00  0.00    +0.000 OA
ATOM     18  H   UNL     1      -0.194  10.193  23.785  0.00  0.00    +0.000 HD
ENDBRANCH  13  17
ENDBRANCH   3   7
BRANCH   5  19
ATOM     19  O   UNL     1       3.283   2.410  17.534  0.00  0.00    +0.000 OA
ATOM     20  H   UNL     1       4.128   1.972  17.343  0.00  0.00    +0.000 HD
ENDBRANCH   5  19
BRANCH   6  21
ATOM     21  O   UNL     1       5.618   3.140  16.570  0.00  0.00    +0.000 OA
ATOM     22  H   UNL     1       6.472   3.601  16.450  0.00  0.00    +0.000 HD
ENDBRANCH   6  21
BRANCH   1  23
ATOM     23  C   UNL     1       6.403   5.865  16.156  0.00  0.00    +0.000 C 
BRANCH  23  27
ATOM     24  C   UNL     1       8.253   8.330  18.556  0.00  0.00    +0.000 C 
ATOM     25  C   UNL     1       7.700   7.045  18.006  0.00  0.00    +0.000 C 
ATOM     26  C   UNL     1       7.937   5.792  18.799  0.00  0.00    +0.000 C 
ATOM     27  C   UNL     1       7.021   7.053  16.843  0.00  0.00    +0.000 C 
ENDBRANCH  23  27
ENDBRANCH   1  23
BRANCH   4  28
ATOM     28  C   UNL     1       1.178   4.269  18.342  0.00  0.00    +0.000 C 
BRANCH  28  29
ATOM     29  C   UNL     1       1.172   3.257  19.463  0.00  0.00    +0.000 C 
ATOM     30  C   UNL     1       1.632   3.484  20.707  0.00  0.00    +0.000 C 
ATOM     31  C   UNL     1       2.098   4.824  21.207  0.00  0.00    +0.000 C 
ATOM     32  C   UNL     1       1.744   2.373  21.717  0.00  0.00    +0.000 C 
ENDBRANCH  28  29
ENDBRANCH   4  28
TORSDOF 8
ENDMDL
MODEL 2
REMARK VINA RESULT:      -9.1      1.628      2.603
REMARK  Name = 
REMARK  12 active torsions:
REMARK  status: ('A' for Active; 'I' for Inactive)
REMARK    1  A    between atoms: C_1  and  C_2
REMARK    2  A    between atoms: C_2  and  C_3
REMARK    3  A    between atoms: C_4  and  C_5
REMARK    4  A    between atoms: C_5  and  C_6
REMARK    5  A    between atoms: C_8  and  C_9
REMARK    6  A    between atoms: C_15  and  O_16
REMARK    7  A    between atoms: C_20  and  C_21
REMARK    8  A    between atoms: C_21  and  C_22
REMARK    9  A    between atoms: C_23  and  C_24
REMARK   10  A    between atoms: C_23  and  C_25
REMARK   11  A    between atoms: C_26  and  O_27
REMARK   12  A    between atoms: C_28  and  O_29
REMARK                            x       y       z     vdW  Elec       q    Type
REMARK                         _______ _______ _______ _____ _____    ______ ____
ROOT
ATOM      1  C   UNL     1       5.331   5.720  16.709  0.00  0.00    +0.000 A 
ATOM      2  C   UNL     1       4.241   6.507  17.112  0.00  0.00    +0.000 A 
ATOM      3  C   UNL     1       3.517   6.262  18.310  0.00  0.00    +0.000 A 
ATOM      4  C   UNL     1       3.891   5.150  19.118  0.00  0.00    +0.000 A 
ATOM      5  C   UNL     1       5.026   4.411  18.725  0.00  0.00    +0.000 A 
ATOM      6  C   UNL     1       5.734   4.700  17.555  0.00  0.00    +0.000 A 
ENDROOT
BRANCH   3   7
ATOM      7  C   UNL     1       2.377   7.243  18.617  0.00  0.00    +0.000 C 
ATOM      8  C   UNL     1       2.384   8.482  17.722  0.00  0.00    +0.000 C 
ATOM      9  C   UNL     1       1.116   9.280  17.965  0.00  0.00    +0.000 C 
ATOM     10  C   UNL     1       0.890   9.437  19.440  0.00  0.00    +0.000 A 
ATOM     11  C   UNL     1       0.035  10.450  19.900  0.00  0.00    +0.000 A 
ATOM     12  C   UNL     1      -0.210  10.603  21.265  0.00  0.00    +0.000 A 
ATOM     13  C   UNL     1       0.395   9.732  22.167  0.00  0.00    +0.000 A 
ATOM     14  C   UNL     1       1.248   8.724  21.728  0.00  0.00    +0.000 A 
ATOM     15  C   UNL     1       1.496   8.572  20.364  0.00  0.00    +0.000 A 
ATOM     16  O   UNL     1       2.381   7.582  20.012  0.00  0.00    +0.000 OA
BRANCH  13  17
ATOM     17  O   UNL     1       0.169   9.845  23.510  0.00  0.00    +0.000 OA
ATOM     18  H   UNL     1       0.905  10.329  23.911  0.00  0.00    +0.000 HD
ENDBRANCH  13  17
ENDBRANCH   3   7
BRANCH   5  19
ATOM     19  O   UNL     1       5.511   3.341  19.438  0.00  0.00    +0.000 OA
ATOM     20  H   UNL     1       5.903   3.693  20.254  0.00  0.00    +0.000 HD
ENDBRANCH   5  19
BRANCH   6  21
ATOM     21  O   UNL     1       6.821   3.931  17.237  0.00  0.00    +0.000 OA
ATOM     22  H   UNL     1       6.538   3.016  17.433  0.00  0.00    +0.000 HD
ENDBRANCH   6  21
BRANCH   1  23
ATOM     23  C   UNL     1       6.044   5.997  15.410  0.00  0.00    +0.000 C 
BRANCH  23  27
ATOM     24  C   UNL     1       6.252   3.463  12.444  0.00  0.00    +0.000 C 
ATOM     25  C   UNL     1       6.638   4.574  13.381  0.00  0.00    +0.000 C 
ATOM     26  C   UNL     1       7.952   5.260  13.139  0.00  0.00    +0.000 C 
ATOM     27  C   UNL     1       5.814   4.916  14.389  0.00  0.00    +0.000 C 
ENDBRANCH  23  27
ENDBRANCH   1  23
BRANCH   4  28
ATOM     28  C   UNL     1       3.103   4.725  20.345  0.00  0.00    +0.000 C 
BRANCH  28  29
ATOM     29  C   UNL     1       1.764   4.085  20.068  0.00  0.00    +0.000 C 
ATOM     30  C   UNL     1       1.591   2.888  19.478  0.00  0.00    +0.000 C 
ATOM     31  C   UNL     1       2.711   1.946  19.127  0.00  0.00    +0.000 C 
ATOM     32  C   UNL     1       0.223   2.397  19.087  0.00  0.00    +0.000 C 
ENDBRANCH  28  29
ENDBRANCH   4  28
TORSDOF 8
ENDMDL
MODEL 3
REMARK VINA RESULT:      -9.0      1.089      1.437
REMARK  Name = 
REMARK  12 active torsions:
REMARK  status: ('A' for Active; 'I' for Inactive)
REMARK    1  A    between atoms: C_1  and  C_2
REMARK    2  A    between atoms: C_2  and  C_3
REMARK    3  A    between atoms: C_4  and  C_5
REMARK    4  A    between atoms: C_5  and  C_6
REMARK    5  A    between atoms: C_8  and  C_9
REMARK    6  A    between atoms: C_15  and  O_16
REMARK    7  A    between atoms: C_20  and  C_21
REMARK    8  A    between atoms: C_21  and  C_22
REMARK    9  A    between atoms: C_23  and  C_24
REMARK   10  A    between atoms: C_23  and  C_25
REMARK   11  A    between atoms: C_26  and  O_27
REMARK   12  A    between atoms: C_28  and  O_29
REMARK                            x       y       z     vdW  Elec       q    Type
REMARK                         _______ _______ _______ _____ _____    ______ ____
ROOT
ATOM      1  C   UNL     1       6.208   6.201  17.891  0.00  0.00    +0.000 A 
ATOM      2  C   UNL     1       5.039   6.946  18.106  0.00  0.00    +0.000 A 
ATOM      3  C   UNL     1       3.745   6.358  18.129  0.00  0.00    +0.000 A 
ATOM      4  C   UNL     1       3.627   4.959  17.890  0.00  0.00    +0.000 A 
ATOM      5  C   UNL     1       4.819   4.221  17.737  0.00  0.00    +0.000 A 
ATOM      6  C   UNL     1       6.078   4.828  17.751  0.00  0.00    +0.000 A 
ENDROOT
BRANCH   3   7
ATOM      7  C   UNL     1       2.579   7.315  18.414  0.00  0.00    +0.000 C 
ATOM      8  C   UNL     1       2.704   8.658  17.697  0.00  0.00    +0.000 C 
ATOM      9  C   UNL     1       1.420   9.444  17.879  0.00  0.00    +0.000 C 
ATOM     10  C   UNL     1       1.007   9.414  19.322  0.00  0.00    +0.000 A 
ATOM     11  C   UNL     1       0.104  10.377  19.798  0.00  0.00    +0.000 A 
ATOM     12  C   UNL     1      -0.313  10.358  21.130  0.00  0.00    +0.000 A 
ATOM     13  C   UNL     1       0.168   9.366  21.979  0.00  0.00    +0.000 A 
ATOM     14  C   UNL     1       1.067   8.406  21.524  0.00  0.00    +0.000 A 
ATOM     15  C   UNL     1       1.487   8.425  20.194  0.00  0.00    +0.000 A 
ATOM     16  O   UNL     1       2.406   7.471  19.831  0.00  0.00    +0.000 OA
BRANCH  13  17
ATOM     17  O   UNL     1      -0.227   9.310  23.286  0.00  0.00    +0.000 OA
ATOM     18  H   UNL     1       0.017  10.139  23.722  0.00  0.00    +0.000 HD
ENDBRANCH  13  17
ENDBRANCH   3   7
BRANCH   5  19
ATOM     19  O   UNL     1       4.842   2.861  17.540  0.00  0.00    +0.000 OA
ATOM     20  H   UNL     1       5.113   2.708  16.620  0.00  0.00    +0.000 HD
ENDBRANCH   5  19
BRANCH   6  21
ATOM     21  O   UNL     1       7.189   4.045  17.588  0.00  0.00    +0.000 OA
ATOM     22  H   UNL     1       7.255   3.539  18.422  0.00  0.00    +0.000 HD
ENDBRANCH   6  21
BRANCH   1  23
ATOM     23  C   UNL     1       7.555   6.876  17.838  0.00  0.00    +0.000 C 
BRANCH  23  27
ATOM     24  C   UNL     1       7.885  10.753  17.489  0.00  0.00    +0.000 C 
ATOM     25  C   UNL     1       8.107   9.359  18.006  0.00  0.00    +0.000 C 
ATOM     26  C   UNL     1       9.068   9.186  19.147  0.00  0.00    +0.000 C 
ATOM     27  C   UNL     1       7.452   8.325  17.445  0.00  0.00    +0.000 C 
ENDBRANCH  23  27
ENDBRANCH   1  23
BRANCH   4  28
ATOM     28  C   UNL     1       2.285   4.258  17.764  0.00  0.00    +0.000 C 
BRANCH  28  29
ATOM     29  C   UNL     1       2.007   3.198  18.802  0.00  0.00    +0.000 C 
ATOM     30  C   UNL     1       1.528   3.436  20.037  0.00  0.00    +0.000 C 
ATOM     31  C   UNL     1       1.072   4.785  20.523  0.00  0.00    +0.000 C 
ATOM     32  C   UNL     1       1.436   2.342  21.067  0.00  0.00    +0.000 C 
ENDBRANCH  28  29
ENDBRANCH   4  28
TORSDOF 8
ENDMDL
MODEL 4
REMARK VINA RESULT:      -8.9      1.125      1.819
REMARK  Name = 
REMARK  12 active torsions:
REMARK  status: ('A' for Active; 'I' for Inactive)
REMARK    1  A    between atoms: C_1  and  C_2
REMARK    2  A    between atoms: C_2  and  C_3
REMARK    3  A    between atoms: C_4  and  C_5
REMARK    4  A    between atoms: C_5  and  C_6
REMARK    5  A    between atoms: C_8  and  C_9
REMARK    6  A    between atoms: C_15  and  O_16
REMARK    7  A    between atoms: C_20  and  C_21
REMARK    8  A    between atoms: C_21  and  C_22
REMARK    9  A    between atoms: C_23  and  C_24
REMARK   10  A    between atoms: C_23  and  C_25
REMARK   11  A    between atoms: C_26  and  O_27
REMARK   12  A    between atoms: C_28  and  O_29
REMARK                            x       y       z     vdW  Elec       q    Type
REMARK                         _______ _______ _______ _____ _____    ______ ____
ROOT
ATOM      1  C   UNL     1       6.218   6.825  17.295  0.00  0.00    +0.000 A 
ATOM      2  C   UNL     1       5.002   7.445  17.619  0.00  0.00    +0.000 A 
ATOM      3  C   UNL     1       3.830   6.712  17.950  0.00  0.00    +0.000 A 
ATOM      4  C   UNL     1       3.883   5.289  17.918  0.00  0.00    +0.000 A 
ATOM      5  C   UNL     1       5.130   4.689  17.650  0.00  0.00    +0.000 A 
ATOM      6  C   UNL     1       6.271   5.442  17.359  0.00  0.00    +0.000 A 
ENDROOT
BRANCH   3   7
ATOM      7  C   UNL     1       2.597   7.550  18.315  0.00  0.00    +0.000 C 
ATOM      8  C   UNL     1       2.579   8.927  17.653  0.00  0.00    +0.000 C 
ATOM      9  C   UNL     1       1.239   9.589  17.912  0.00  0.00    +0.000 C 
ATOM     10  C   UNL     1       0.882   9.465  19.365  0.00  0.00    +0.000 A 
ATOM     11  C   UNL     1      -0.082  10.323  19.912  0.00  0.00    +0.000 A 
ATOM     12  C   UNL     1      -0.447  10.214  21.254  0.00  0.00    +0.000 A 
ATOM     13  C   UNL     1       0.148   9.234  22.043  0.00  0.00    +0.000 A 
ATOM     14  C   UNL     1       1.109   8.376  21.517  0.00  0.00    +0.000 A 
ATOM     15  C   UNL     1       1.477   8.487  20.176  0.00  0.00    +0.000 A 
ATOM     16  O   UNL     1       2.462   7.633  19.742  0.00  0.00    +0.000 OA
BRANCH  13  17
ATOM     17  O   UNL     1      -0.193   9.090  23.358  0.00  0.00    +0.000 OA
ATOM     18  H   UNL     1      -0.741   9.842  23.623  0.00  0.00    +0.000 HD
ENDBRANCH  13  17
ENDBRANCH   3   7
BRANCH   5  19
ATOM     19  O   UNL     1       5.321   3.328  17.628  0.00  0.00    +0.000 OA
ATOM     20  H   UNL     1       5.512   3.050  18.538  0.00  0.00    +0.000 HD
ENDBRANCH   5  19
BRANCH   6  21
ATOM     21  O   UNL     1       7.445   4.786  17.100  0.00  0.00    +0.000 OA
ATOM     22  H   UNL     1       7.517   4.791  16.125  0.00  0.00    +0.000 HD
ENDBRANCH   6  21
BRANCH   1  23
ATOM     23  C   UNL     1       7.424   7.645  16.915  0.00  0.00    +0.000 C 
BRANCH  23  27
ATOM     24  C   UNL     1       9.196   9.852  19.608  0.00  0.00    +0.000 C 
ATOM     25  C   UNL     1       8.467   9.477  18.348  0.00  0.00    +0.000 C 
ATOM     26  C   UNL     1       8.125  10.582  17.389  0.00  0.00    +0.000 C 
ATOM     27  C   UNL     1       8.147   8.190  18.117  0.00  0.00    +0.000 C 
ENDBRANCH  23  27
ENDBRANCH   1  23
BRANCH   4  28
ATOM     28  C   UNL     1       2.656   4.417  18.127  0.00  0.00    +0.000 C 
BRANCH  28  29
ATOM     29  C   UNL     1       2.422   3.953  19.544  0.00  0.00    +0.000 C 
ATOM     30  C   UNL     1       1.518   3.027  19.911  0.00  0.00    +0.000 C 
ATOM     31  C   UNL     1       0.697   2.215  18.947  0.00  0.00    +0.000 C 
ATOM     32  C   UNL     1       1.231   2.742  21.362  0.00  0.00    +0.000 C 
ENDBRANCH  28  29
ENDBRANCH   4  28
TORSDOF 8
ENDMDL
MODEL 5
REMARK VINA RESULT:      -8.9      1.231      1.606
REMARK  Name = 
REMARK  12 active torsions:
REMARK  status: ('A' for Active; 'I' for Inactive)
REMARK    1  A    between atoms: C_1  and  C_2
REMARK    2  A    between atoms: C_2  and  C_3
REMARK    3  A    between atoms: C_4  and  C_5
REMARK    4  A    between atoms: C_5  and  C_6
REMARK    5  A    between atoms: C_8  and  C_9
REMARK    6  A    between atoms: C_15  and  O_16
REMARK    7  A    between atoms: C_20  and  C_21
REMARK    8  A    between atoms: C_21  and  C_22
REMARK    9  A    between atoms: C_23  and  C_24
REMARK   10  A    between atoms: C_23  and  C_25
REMARK   11  A    between atoms: C_26  and  O_27
REMARK   12  A    between atoms: C_28  and  O_29
REMARK                            x       y       z     vdW  Elec       q    Type
REMARK                         _______ _______ _______ _____ _____    ______ ____
ROOT
ATOM      1  C   UNL     1       5.459   5.844  17.645  0.00  0.00    +0.000 A 
ATOM      2  C   UNL     1       4.347   6.672  17.863  0.00  0.00    +0.000 A 
ATOM      3  C   UNL     1       3.333   6.364  18.810  0.00  0.00    +0.000 A 
ATOM      4  C   UNL     1       3.432   5.147  19.544  0.00  0.00    +0.000 A 
ATOM      5  C   UNL     1       4.588   4.363  19.353  0.00  0.00    +0.000 A 
ATOM      6  C   UNL     1       5.582   4.713  18.434  0.00  0.00    +0.000 A 
ENDROOT
BRANCH   3   7
ATOM      7  C   UNL     1       2.207   7.398  18.946  0.00  0.00    +0.000 C 
ATOM      8  C   UNL     1       2.337   8.571  17.977  0.00  0.00    +0.000 C 
ATOM      9  C   UNL     1       1.084   9.423  18.050  0.00  0.00    +0.000 C 
ATOM     10  C   UNL     1       0.732   9.687  19.485  0.00  0.00    +0.000 A 
ATOM     11  C   UNL     1      -0.122  10.754  19.798  0.00  0.00    +0.000 A 
ATOM     12  C   UNL     1      -0.482  11.008  21.122  0.00  0.00    +0.000 A 
ATOM     13  C   UNL     1       0.007  10.183  22.130  0.00  0.00    +0.000 A 
ATOM     14  C   UNL     1       0.859   9.122  21.838  0.00  0.00    +0.000 A 
ATOM     15  C   UNL     1       1.222   8.869  20.515  0.00  0.00    +0.000 A 
ATOM     16  O   UNL     1       2.099   7.832  20.311  0.00  0.00    +0.000 OA
BRANCH  13  17
ATOM     17  O   UNL     1      -0.333  10.395  23.436  0.00  0.00    +0.000 OA
ATOM     18  H   UNL     1       0.245  11.079  23.803  0.00  0.00    +0.000 HD
ENDBRANCH  13  17
ENDBRANCH   3   7
BRANCH   5  19
ATOM     19  O   UNL     1       4.821   3.189  20.028  0.00  0.00    +0.000 OA
ATOM     20  H   UNL     1       4.213   3.167  20.785  0.00  0.00    +0.000 HD
ENDBRANCH   5  19
BRANCH   6  21
ATOM     21  O   UNL     1       6.671   3.895  18.299  0.00  0.00    +0.000 OA
ATOM     22  H   UNL     1       7.383   4.487  17.987  0.00  0.00    +0.000 HD
ENDBRANCH   6  21
BRANCH   1  23
ATOM     23  C   UNL     1       6.489   6.196  16.602  0.00  0.00    +0.000 C 
BRANCH  23  27
ATOM     24  C   UNL     1       8.448   9.286  17.972  0.00  0.00    +0.000 C 
ATOM     25  C   UNL     1       7.909   7.886  17.877  0.00  0.00    +0.000 C 
ATOM     26  C   UNL     1       8.292   6.920  18.961  0.00  0.00    +0.000 C 
ATOM     27  C   UNL     1       7.113   7.544  16.847  0.00  0.00    +0.000 C 
ENDBRANCH  23  27
ENDBRANCH   1  23
BRANCH   4  28
ATOM     28  C   UNL     1       2.339   4.663  20.482  0.00  0.00    +0.000 C 
BRANCH  28  29
ATOM     29  C   UNL     1       1.692   3.353  20.104  0.00  0.00    +0.000 C 
ATOM     30  C   UNL     1       1.198   3.061  18.887  0.00  0.00    +0.000 C 
ATOM     31  C   UNL     1       1.336   3.950  17.681  0.00  0.00    +0.000 C 
ATOM     32  C   UNL     1       0.420   1.796  18.639  0.00  0.00    +0.000 C 
ENDBRANCH  28  29
ENDBRANCH   4  28
TORSDOF 8
ENDMDL
MODEL 6
REMARK VINA RESULT:      -8.4      3.451      6.464
REMARK  Name = 
REMARK  12 active torsions:
REMARK  status: ('A' for Active; 'I' for Inactive)
REMARK    1  A    between atoms: C_1  and  C_2
REMARK    2  A    between atoms: C_2  and  C_3
REMARK    3  A    between atoms: C_4  and  C_5
REMARK    4  A    between atoms: C_5  and  C_6
REMARK    5  A    between atoms: C_8  and  C_9
REMARK    6  A    between atoms: C_15  and  O_16
REMARK    7  A    between atoms: C_20  and  C_21
REMARK    8  A    between atoms: C_21  and  C_22
REMARK    9  A    between atoms: C_23  and  C_24
REMARK   10  A    between atoms: C_23  and  C_25
REMARK   11  A    between atoms: C_26  and  O_27
REMARK   12  A    between atoms: C_28  and  O_29
REMARK                            x       y       z     vdW  Elec       q    Type
REMARK                         _______ _______ _______ _____ _____    ______ ____
ROOT
ATOM      1  C   UNL     1       5.551   3.633  13.074  0.00  0.00    +0.000 A 
ATOM      2  C   UNL     1       4.877   3.521  14.300  0.00  0.00    +0.000 A 
ATOM      3  C   UNL     1       5.358   4.112  15.499  0.00  0.00    +0.000 A 
ATOM      4  C   UNL     1       6.594   4.820  15.462  0.00  0.00    +0.000 A 
ATOM      5  C   UNL     1       7.222   4.971  14.209  0.00  0.00    +0.000 A 
ATOM      6  C   UNL     1       6.703   4.402  13.043  0.00  0.00    +0.000 A 
ENDROOT
BRANCH   3   7
ATOM      7  C   UNL     1       4.477   3.921  16.741  0.00  0.00    +0.000 C 
ATOM      8  C   UNL     1       3.253   3.042  16.489  0.00  0.00    +0.000 C 
ATOM      9  C   UNL     1       2.566   2.752  17.810  0.00  0.00    +0.000 C 
ATOM     10  C   UNL     1       2.412   4.024  18.593  0.00  0.00    +0.000 A 
ATOM     11  C   UNL     1       1.472   4.082  19.632  0.00  0.00    +0.000 A 
ATOM     12  C   UNL     1       1.324   5.245  20.389  0.00  0.00    +0.000 A 
ATOM     13  C   UNL     1       2.128   6.346  20.108  0.00  0.00    +0.000 A 
ATOM     14  C   UNL     1       3.063   6.306  19.078  0.00  0.00    +0.000 A 
ATOM     15  C   UNL     1       3.209   5.145  18.319  0.00  0.00    +0.000 A 
ATOM     16  O   UNL     1       4.122   5.198  17.294  0.00  0.00    +0.000 OA
BRANCH  13  17
ATOM     17  O   UNL     1       2.019   7.497  20.835  0.00  0.00    +0.000 OA
ATOM     18  H   UNL     1       1.103   7.806  20.796  0.00  0.00    +0.000 HD
ENDBRANCH  13  17
ENDBRANCH   3   7
BRANCH   5  19
ATOM     19  O   UNL     1       8.396   5.663  14.034  0.00  0.00    +0.000 OA
ATOM     20  H   UNL     1       8.384   6.412  14.653  0.00  0.00    +0.000 HD
ENDBRANCH   5  19
BRANCH   6  21
ATOM     21  O   UNL     1       7.375   4.586  11.864  0.00  0.00    +0.000 OA
ATOM     22  H   UNL     1       6.724   4.351  11.173  0.00  0.00    +0.000 HD
ENDBRANCH   6  21
BRANCH   1  23
ATOM     23  C   UNL     1       5.019   2.956  11.837  0.00  0.00    +0.000 C 
BRANCH  23  27
ATOM     24  C   UNL     1       2.578   4.717   9.346  0.00  0.00    +0.000 C 
ATOM     25  C   UNL     1       3.188   3.641  10.202  0.00  0.00    +0.000 C 
ATOM     26  C   UNL     1       2.528   2.293  10.195  0.00  0.00    +0.000 C 
ATOM     27  C   UNL     1       4.285   3.910  10.934  0.00  0.00    +0.000 C 
ENDBRANCH  23  27
ENDBRANCH   1  23
BRANCH   4  28
ATOM     28  C   UNL     1       7.259   5.375  16.710  0.00  0.00    +0.000 C 
BRANCH  28  29
ATOM     29  C   UNL     1       7.407   6.877  16.754  0.00  0.00    +0.000 C 
ATOM     30  C   UNL     1       7.830   7.578  17.822  0.00  0.00    +0.000 C 
ATOM     31  C   UNL     1       8.348   6.958  19.091  0.00  0.00    +0.000 C 
ATOM     32  C   UNL     1       7.791   9.083  17.839  0.00  0.00    +0.000 C 
ENDBRANCH  28  29
ENDBRANCH   4  28
TORSDOF 8
ENDMDL
MODEL 7
REMARK VINA RESULT:      -8.4      1.519      2.461
REMARK  Name = 
REMARK  12 active torsions:
REMARK  status: ('A' for Active; 'I' for Inactive)
REMARK    1  A    between atoms: C_1  and  C_2
REMARK    2  A    between atoms: C_2  and  C_3
REMARK    3  A    between atoms: C_4  and  C_5
REMARK    4  A    between atoms: C_5  and  C_6
REMARK    5  A    between atoms: C_8  and  C_9
REMARK    6  A    between atoms: C_15  and  O_16
REMARK    7  A    between atoms: C_20  and  C_21
REMARK    8  A    between atoms: C_21  and  C_22
REMARK    9  A    between atoms: C_23  and  C_24
REMARK   10  A    between atoms: C_23  and  C_25
REMARK   11  A    between atoms: C_26  and  O_27
REMARK   12  A    between atoms: C_28  and  O_29
REMARK                            x       y       z     vdW  Elec       q    Type
REMARK                         _______ _______ _______ _____ _____    ______ ____
ROOT
ATOM      1  C   UNL     1       5.287   5.955  17.444  0.00  0.00    +0.000 A 
ATOM      2  C   UNL     1       4.172   6.771  17.691  0.00  0.00    +0.000 A 
ATOM      3  C   UNL     1       3.246   6.511  18.737  0.00  0.00    +0.000 A 
ATOM      4  C   UNL     1       3.440   5.357  19.549  0.00  0.00    +0.000 A 
ATOM      5  C   UNL     1       4.599   4.587  19.322  0.00  0.00    +0.000 A 
ATOM      6  C   UNL     1       5.506   4.890  18.302  0.00  0.00    +0.000 A 
ENDROOT
BRANCH   3   7
ATOM      7  C   UNL     1       2.104   7.526  18.889  0.00  0.00    +0.000 C 
ATOM      8  C   UNL     1       2.187   8.687  17.900  0.00  0.00    +0.000 C 
ATOM      9  C   UNL     1       0.919   9.515  17.994  0.00  0.00    +0.000 C 
ATOM     10  C   UNL     1       0.600   9.794  19.434  0.00  0.00    +0.000 A 
ATOM     11  C   UNL     1      -0.267  10.849  19.754  0.00  0.00    +0.000 A 
ATOM     12  C   UNL     1      -0.597  11.116  21.083  0.00  0.00    +0.000 A 
ATOM     13  C   UNL     1      -0.066  10.314  22.090  0.00  0.00    +0.000 A 
ATOM     14  C   UNL     1       0.799   9.265  21.790  0.00  0.00    +0.000 A 
ATOM     15  C   UNL     1       1.132   9.001  20.462  0.00  0.00    +0.000 A 
ATOM     16  O   UNL     1       2.023   7.977  20.250  0.00  0.00    +0.000 OA
BRANCH  13  17
ATOM     17  O   UNL     1      -0.376  10.538  23.401  0.00  0.00    +0.000 OA
ATOM     18  H   UNL     1       0.430  10.461  23.931  0.00  0.00    +0.000 HD
ENDBRANCH  13  17
ENDBRANCH   3   7
BRANCH   5  19
ATOM     19  O   UNL     1       4.920   3.474  20.061  0.00  0.00    +0.000 OA
ATOM     20  H   UNL     1       5.548   3.754  20.746  0.00  0.00    +0.000 HD
ENDBRANCH   5  19
BRANCH   6  21
ATOM     21  O   UNL     1       6.605   4.090  18.139  0.00  0.00    +0.000 OA
ATOM     22  H   UNL     1       7.357   4.649  18.420  0.00  0.00    +0.000 HD
ENDBRANCH   6  21
BRANCH   1  23
ATOM     23  C   UNL     1       6.220   6.251  16.298  0.00  0.00    +0.000 C 
BRANCH  23  27
ATOM     24  C   UNL     1       5.190   4.231  13.117  0.00  0.00    +0.000 C 
ATOM     25  C   UNL     1       5.799   4.540  14.456  0.00  0.00    +0.000 C 
ATOM     26  C   UNL     1       6.532   3.433  15.157  0.00  0.00    +0.000 C 
ATOM     27  C   UNL     1       5.674   5.775  14.979  0.00  0.00    +0.000 C 
ENDBRANCH  23  27
ENDBRANCH   1  23
BRANCH   4  28
ATOM     28  C   UNL     1       2.440   4.920  20.606  0.00  0.00    +0.000 C 
BRANCH  28  29
ATOM     29  C   UNL     1       1.763   3.595  20.352  0.00  0.00    +0.000 C 
ATOM     30  C   UNL     1       1.235   3.214  19.174  0.00  0.00    +0.000 C 
ATOM     31  C   UNL     1       1.359   3.998  17.896  0.00  0.00    +0.000 C 
ATOM     32  C   UNL     1       0.431   1.947  19.048  0.00  0.00    +0.000 C 
ENDBRANCH  28  29
ENDBRANCH   4  28
TORSDOF 8
ENDMDL
MODEL 8
REMARK VINA RESULT:      -8.1      1.480      2.160
REMARK  Name = 
REMARK  12 active torsions:
REMARK  status: ('A' for Active; 'I' for Inactive)
REMARK    1  A    between atoms: C_1  and  C_2
REMARK    2  A    between atoms: C_2  and  C_3
REMARK    3  A    between atoms: C_4  and  C_5
REMARK    4  A    between atoms: C_5  and  C_6
REMARK    5  A    between atoms: C_8  and  C_9
REMARK    6  A    between atoms: C_15  and  O_16
REMARK    7  A    between atoms: C_20  and  C_21
REMARK    8  A    between atoms: C_21  and  C_22
REMARK    9  A    between atoms: C_23  and  C_24
REMARK   10  A    between atoms: C_23  and  C_25
REMARK   11  A    between atoms: C_26  and  O_27
REMARK   12  A    between atoms: C_28  and  O_29
REMARK                            x       y       z     vdW  Elec       q    Type
REMARK                         _______ _______ _______ _____ _____    ______ ____
ROOT
ATOM      1  C   UNL     1       5.320   5.819  16.856  0.00  0.00    +0.000 A 
ATOM      2  C   UNL     1       4.547   6.777  17.529  0.00  0.00    +0.000 A 
ATOM      3  C   UNL     1       3.310   6.464  18.155  0.00  0.00    +0.000 A 
ATOM      4  C   UNL     1       2.818   5.130  18.066  0.00  0.00    +0.000 A 
ATOM      5  C   UNL     1       3.641   4.172  17.438  0.00  0.00    +0.000 A 
ATOM      6  C   UNL     1       4.868   4.510  16.860  0.00  0.00    +0.000 A 
ENDROOT
BRANCH   3   7
ATOM      7  C   UNL     1       2.613   7.624  18.879  0.00  0.00    +0.000 C 
ATOM      8  C   UNL     1       2.038   7.234  20.240  0.00  0.00    +0.000 C 
ATOM      9  C   UNL     1       1.555   8.482  20.955  0.00  0.00    +0.000 C 
ATOM     10  C   UNL     1       0.732   9.317  20.019  0.00  0.00    +0.000 A 
ATOM     11  C   UNL     1      -0.137  10.285  20.544  0.00  0.00    +0.000 A 
ATOM     12  C   UNL     1      -0.897  11.090  19.695  0.00  0.00    +0.000 A 
ATOM     13  C   UNL     1      -0.775  10.931  18.317  0.00  0.00    +0.000 A 
ATOM     14  C   UNL     1       0.079   9.973  17.779  0.00  0.00    +0.000 A 
ATOM     15  C   UNL     1       0.837   9.166  18.628  0.00  0.00    +0.000 A 
ATOM     16  O   UNL     1       1.624   8.216  18.023  0.00  0.00    +0.000 OA
BRANCH  13  17
ATOM     17  O   UNL     1      -1.495  11.708  17.456  0.00  0.00    +0.000 OA
ATOM     18  H   UNL     1      -0.969  12.486  17.223  0.00  0.00    +0.000 HD
ENDBRANCH  13  17
ENDBRANCH   3   7
BRANCH   5  19
ATOM     19  O   UNL     1       3.298   2.847  17.321  0.00  0.00    +0.000 OA
ATOM     20  H   UNL     1       2.358   2.771  17.551  0.00  0.00    +0.000 HD
ENDBRANCH   5  19
BRANCH   6  21
ATOM     21  O   UNL     1       5.606   3.525  16.260  0.00  0.00    +0.000 OA
ATOM     22  H   UNL     1       6.512   3.892  16.217  0.00  0.00    +0.000 HD
ENDBRANCH   6  21
BRANCH   1  23
ATOM     23  C   UNL     1       6.608   6.208  16.175  0.00  0.00    +0.000 C 
BRANCH  23  27
ATOM     24  C   UNL     1       8.468   8.737  18.500  0.00  0.00    +0.000 C 
ATOM     25  C   UNL     1       7.879   7.445  18.006  0.00  0.00    +0.000 C 
ATOM     26  C   UNL     1       8.021   6.237  18.885  0.00  0.00    +0.000 C 
ATOM     27  C   UNL     1       7.252   7.409  16.815  0.00  0.00    +0.000 C 
ENDBRANCH  23  27
ENDBRANCH   1  23
BRANCH   4  28
ATOM     28  C   UNL     1       1.450   4.723  18.586  0.00  0.00    +0.000 C 
BRANCH  28  29
ATOM     29  C   UNL     1       1.414   4.249  20.019  0.00  0.00    +0.000 C 
ATOM     30  C   UNL     1       1.378   2.959  20.402  0.00  0.00    +0.000 C 
ATOM     31  C   UNL     1       1.503   1.792  19.461  0.00  0.00    +0.000 C 
ATOM     32  C   UNL     1       1.175   2.575  21.843  0.00  0.00    +0.000 C 
ENDBRANCH  28  29
ENDBRANCH   4  28
TORSDOF 8
ENDMDL
MODEL 9
REMARK VINA RESULT:      -7.9      3.519      6.638
REMARK  Name = 
REMARK  12 active torsions:
REMARK  status: ('A' for Active; 'I' for Inactive)
REMARK    1  A    between atoms: C_1  and  C_2
REMARK    2  A    between atoms: C_2  and  C_3
REMARK    3  A    between atoms: C_4  and  C_5
REMARK    4  A    between atoms: C_5  and  C_6
REMARK    5  A    between atoms: C_8  and  C_9
REMARK    6  A    between atoms: C_15  and  O_16
REMARK    7  A    between atoms: C_20  and  C_21
REMARK    8  A    between atoms: C_21  and  C_22
REMARK    9  A    between atoms: C_23  and  C_24
REMARK   10  A    between atoms: C_23  and  C_25
REMARK   11  A    between atoms: C_26  and  O_27
REMARK   12  A    between atoms: C_28  and  O_29
REMARK                            x       y       z     vdW  Elec       q    Type
REMARK                         _______ _______ _______ _____ _____    ______ ____
ROOT
ATOM      1  C   UNL     1       5.380   3.795  13.140  0.00  0.00    +0.000 A 
ATOM      2  C   UNL     1       4.594   3.913  14.296  0.00  0.00    +0.000 A 
ATOM      3  C   UNL     1       5.068   4.522  15.490  0.00  0.00    +0.000 A 
ATOM      4  C   UNL     1       6.409   5.002  15.525  0.00  0.00    +0.000 A 
ATOM      5  C   UNL     1       7.159   4.928  14.333  0.00  0.00    +0.000 A 
ATOM      6  C   UNL     1       6.649   4.350  13.167  0.00  0.00    +0.000 A 
ENDROOT
BRANCH   3   7
ATOM      7  C   UNL     1       4.063   4.601  16.647  0.00  0.00    +0.000 C 
ATOM      8  C   UNL     1       3.805   6.026  17.133  0.00  0.00    +0.000 C 
ATOM      9  C   UNL     1       2.660   6.016  18.129  0.00  0.00    +0.000 C 
ATOM     10  C   UNL     1       2.871   4.921  19.134  0.00  0.00    +0.000 A 
ATOM     11  C   UNL     1       2.184   4.967  20.355  0.00  0.00    +0.000 A 
ATOM     12  C   UNL     1       2.345   3.951  21.297  0.00  0.00    +0.000 A 
ATOM     13  C   UNL     1       3.188   2.882  21.007  0.00  0.00    +0.000 A 
ATOM     14  C   UNL     1       3.880   2.822  19.801  0.00  0.00    +0.000 A 
ATOM     15  C   UNL     1       3.722   3.839  18.860  0.00  0.00    +0.000 A 
ATOM     16  O   UNL     1       4.471   3.730  17.713  0.00  0.00    +0.000 OA
BRANCH  13  17
ATOM     17  O   UNL     1       3.361   1.863  21.901  0.00  0.00    +0.000 OA
ATOM     18  H   UNL     1       2.909   2.090  22.725  0.00  0.00    +0.000 HD
ENDBRANCH  13  17
ENDBRANCH   3   7
BRANCH   5  19
ATOM     19  O   UNL     1       8.449   5.390  14.226  0.00  0.00    +0.000 OA
ATOM     20  H   UNL     1       8.571   5.692  13.311  0.00  0.00    +0.000 HD
ENDBRANCH   5  19
BRANCH   6  21
ATOM     21  O   UNL     1       7.442   4.307  12.052  0.00  0.00    +0.000 OA
ATOM     22  H   UNL     1       8.119   4.995  12.208  0.00  0.00    +0.000 HD
ENDBRANCH   6  21
BRANCH   1  23
ATOM     23  C   UNL     1       4.844   3.107  11.910  0.00  0.00    +0.000 C 
BRANCH  23  27
ATOM     24  C   UNL     1       2.570   4.835   9.245  0.00  0.00    +0.000 C 
ATOM     25  C   UNL     1       3.171   3.754  10.100  0.00  0.00    +0.000 C 
ATOM     26  C   UNL     1       2.650   2.357   9.919  0.00  0.00    +0.000 C 
ATOM     27  C   UNL     1       4.138   4.061  10.984  0.00  0.00    +0.000 C 
ENDBRANCH  23  27
ENDBRANCH   1  23
BRANCH   4  28
ATOM     28  C   UNL     1       7.052   5.549  16.787  0.00  0.00    +0.000 C 
BRANCH  28  29
ATOM     29  C   UNL     1       7.303   7.037  16.797  0.00  0.00    +0.000 C 
ATOM     30  C   UNL     1       7.835   7.722  17.826  0.00  0.00    +0.000 C 
ATOM     31  C   UNL     1       8.385   7.085  19.073  0.00  0.00    +0.000 C 
ATOM     32  C   UNL     1       7.897   9.226  17.819  0.00  0.00    +0.000 C 
ENDBRANCH  28  29
ENDBRANCH   4  28
TORSDOF 8
ENDMDL
