MODEL 1
REMARK VINA RESULT:      -7.7      0.000      0.000
REMARK  Name = 
REMARK  4 active torsions:
REMARK  status: ('A' for Active; 'I' for Inactive)
REMARK    1  A    between atoms: N_1  and  N_2
REMARK    2  A    between atoms: N_2  and  C_3
REMARK    3  A    between atoms: C_6  and  C_7
REMARK    4  A    between atoms: C_7  and  C_8
REMARK                            x       y       z     vdW  Elec       q    Type
REMARK                         _______ _______ _______ _____ _____    ______ ____
ROOT
ATOM      1  C   UNL     1       6.800   5.212  18.780  0.00  0.00    +0.000 A 
ATOM      2  N   UNL     1       5.873   5.561  19.702  0.00  0.00    +0.000 NA
ATOM      3  N   UNL     1       4.567   5.724  19.353  0.00  0.00    +0.000 NA
ATOM      4  C   UNL     1       4.183   5.583  18.064  0.00  0.00    +0.000 A 
ATOM      5  C   UNL     1       5.107   5.284  17.042  0.00  0.00    +0.000 A 
ATOM      6  C   UNL     1       4.765   5.191  15.669  0.00  0.00    +0.000 A 
ATOM      7  C   UNL     1       5.702   4.837  14.699  0.00  0.00    +0.000 A 
ATOM      8  C   UNL     1       7.007   4.556  15.074  0.00  0.00    +0.000 A 
ATOM      9  C   UNL     1       7.378   4.676  16.413  0.00  0.00    +0.000 A 
ATOM     10  C   UNL     1       6.451   5.054  17.418  0.00  0.00    +0.000 A 
ENDROOT
BRANCH   1  11
ATOM     11  N   UNL     1       8.161   5.024  19.188  0.00  0.00    +0.000 N 
ATOM     12  H   UNL     1       8.480   4.134  18.801  0.00  0.00    +0.000 HD
BRANCH  11  13
ATOM     13  N   UNL     1       8.449   5.227  20.557  0.00  0.00    +0.000 NA
ATOM     14  H   UNL     1       8.863   6.145  20.732  0.00  0.00    +0.000 HD
ATOM     15  H   UNL     1       9.089   4.511  20.910  0.00  0.00    +0.000 HD
ENDBRANCH  11  13
ENDBRANCH   1  11
BRANCH   4  16
ATOM     16  C   UNL     1       2.686   5.620  17.852  0.00  0.00    +0.000 C 
BRANCH  16  17
ATOM     17  C   UNL     1       1.981   4.474  18.548  0.00  0.00    +0.000 A 
ATOM     18  C   UNL     1       1.463   4.638  19.840  0.00  0.00    +0.000 A 
ATOM     19  C   UNL     1       0.893   3.549  20.477  0.00  0.00    +0.000 A 
ATOM     20  N   UNL     1       0.792   2.325  19.916  0.00  0.00    +0.000 NA
ATOM     21  C   UNL     1       1.275   2.190  18.666  0.00  0.00    +0.000 A 
ATOM     22  C   UNL     1       1.867   3.219  17.946  0.00  0.00    +0.000 A 
ENDBRANCH  16  17
ENDBRANCH   4  16
TORSDOF 4
ENDMDL
MODEL 2
REMARK VINA RESULT:      -7.5      0.094      1.081
REMARK  Name = 
REMARK  4 active torsions:
REMARK  status: ('A' for Active; 'I' for Inactive)
REMARK    1  A    between atoms: N_1  and  N_2
REMARK    2  A    between atoms: N_2  and  C_3
REMARK    3  A    between atoms: C_6  and  C_7
REMARK    4  A    between atoms: C_7  and  C_8
REMARK                            x       y       z     vdW  Elec       q    Type
REMARK                         _______ _______ _______ _____ _____    ______ ____
ROOT
ATOM      1  C   UNL     1       6.849   5.185  18.770  0.00  0.00    +0.000 A 
ATOM      2  N   UNL     1       5.928   5.524  19.702  0.00  0.00    +0.000 NA
ATOM      3  N   UNL     1       4.621   5.698  19.362  0.00  0.00    +0.000 NA
ATOM      4  C   UNL     1       4.230   5.579  18.074  0.00  0.00    +0.000 A 
ATOM      5  C   UNL     1       5.147   5.290  17.042  0.00  0.00    +0.000 A 
ATOM      6  C   UNL     1       4.798   5.220  15.671  0.00  0.00    +0.000 A 
ATOM      7  C   UNL     1       5.728   4.876  14.689  0.00  0.00    +0.000 A 
ATOM      8  C   UNL     1       7.033   4.583  15.053  0.00  0.00    +0.000 A 
ATOM      9  C   UNL     1       7.412   4.681  16.392  0.00  0.00    +0.000 A 
ATOM     10  C   UNL     1       6.492   5.049  17.408  0.00  0.00    +0.000 A 
ENDROOT
BRANCH   1  11
ATOM     11  N   UNL     1       8.211   4.984  19.168  0.00  0.00    +0.000 N 
ATOM     12  H   UNL     1       8.512   4.080  18.798  0.00  0.00    +0.000 HD
BRANCH  11  13
ATOM     13  N   UNL     1       8.517   5.214  20.529  0.00  0.00    +0.000 NA
ATOM     14  H   UNL     1       8.065   4.535  21.145  0.00  0.00    +0.000 HD
ATOM     15  H   UNL     1       8.231   6.153  20.818  0.00  0.00    +0.000 HD
ENDBRANCH  11  13
ENDBRANCH   1  11
BRANCH   4  16
ATOM     16  C   UNL     1       2.732   5.626  17.870  0.00  0.00    +0.000 C 
BRANCH  16  17
ATOM     17  C   UNL     1       2.021   4.495  18.583  0.00  0.00    +0.000 A 
ATOM     18  C   UNL     1       1.815   3.267  17.939  0.00  0.00    +0.000 A 
ATOM     19  C   UNL     1       1.094   2.281  18.591  0.00  0.00    +0.000 A 
ATOM     20  N   UNL     1       0.582   2.427  19.831  0.00  0.00    +0.000 NA
ATOM     21  C   UNL     1       0.808   3.604  20.445  0.00  0.00    +0.000 A 
ATOM     22  C   UNL     1       1.515   4.655  19.875  0.00  0.00    +0.000 A 
ENDBRANCH  16  17
ENDBRANCH   4  16
TORSDOF 4
ENDMDL
MODEL 3
REMARK VINA RESULT:      -7.3      2.080      5.651
REMARK  Name = 
REMARK  4 active torsions:
REMARK  status: ('A' for Active; 'I' for Inactive)
REMARK    1  A    between atoms: N_1  and  N_2
REMARK    2  A    between atoms: N_2  and  C_3
REMARK    3  A    between atoms: C_6  and  C_7
REMARK    4  A    between atoms: C_7  and  C_8
REMARK                            x       y       z     vdW  Elec       q    Type
REMARK                         _______ _______ _______ _____ _____    ______ ____
ROOT
ATOM      1  C   UNL     1       2.398   3.565  20.587  0.00  0.00    +0.000 A 
ATOM      2  N   UNL     1       2.694   2.473  19.845  0.00  0.00    +0.000 NA
ATOM      3  N   UNL     1       3.011   2.590  18.525  0.00  0.00    +0.000 NA
ATOM      4  C   UNL     1       2.989   3.800  17.923  0.00  0.00    +0.000 A 
ATOM      5  C   UNL     1       2.628   4.971  18.621  0.00  0.00    +0.000 A 
ATOM      6  C   UNL     1       2.527   6.250  18.020  0.00  0.00    +0.000 A 
ATOM      7  C   UNL     1       2.220   7.392  18.762  0.00  0.00    +0.000 A 
ATOM      8  C   UNL     1       2.014   7.287  20.128  0.00  0.00    +0.000 A 
ATOM      9  C   UNL     1       2.071   6.034  20.739  0.00  0.00    +0.000 A 
ATOM     10  C   UNL     1       2.360   4.854  20.005  0.00  0.00    +0.000 A 
ENDROOT
BRANCH   1  11
ATOM     11  N   UNL     1       2.095   3.408  21.979  0.00  0.00    +0.000 N 
ATOM     12  H   UNL     1       2.962   3.546  22.502  0.00  0.00    +0.000 HD
BRANCH  11  13
ATOM     13  N   UNL     1       1.344   2.266  22.341  0.00  0.00    +0.000 NA
ATOM     14  H   UNL     1       1.905   1.413  22.319  0.00  0.00    +0.000 HD
ATOM     15  H   UNL     1       0.540   2.142  21.720  0.00  0.00    +0.000 HD
ENDBRANCH  11  13
ENDBRANCH   1  11
BRANCH   4  16
ATOM     16  C   UNL     1       3.528   3.803  16.510  0.00  0.00    +0.000 C 
BRANCH  16  17
ATOM     17  C   UNL     1       4.996   4.172  16.458  0.00  0.00    +0.000 A 
ATOM     18  C   UNL     1       5.642   4.340  15.226  0.00  0.00    +0.000 A 
ATOM     19  C   UNL     1       7.002   4.601  15.212  0.00  0.00    +0.000 A 
ATOM     20  N   UNL     1       7.751   4.717  16.329  0.00  0.00    +0.000 NA
ATOM     21  C   UNL     1       7.111   4.574  17.506  0.00  0.00    +0.000 A 
ATOM     22  C   UNL     1       5.753   4.308  17.624  0.00  0.00    +0.000 A 
ENDBRANCH  16  17
ENDBRANCH   4  16
TORSDOF 4
ENDMDL
MODEL 4
REMARK VINA RESULT:      -7.3      1.854      5.777
REMARK  Name = 
REMARK  4 active torsions:
REMARK  status: ('A' for Active; 'I' for Inactive)
REMARK    1  A    between atoms: N_1  and  N_2
REMARK    2  A    between atoms: N_2  and  C_3
REMARK    3  A    between atoms: C_6  and  C_7
REMARK    4  A    between atoms: C_7  and  C_8
REMARK                            x       y       z     vdW  Elec       q    Type
REMARK                         _______ _______ _______ _____ _____    ______ ____
ROOT
ATOM      1  C   UNL     1       2.494   3.245  19.825  0.00  0.00    +0.000 A 
ATOM      2  N   UNL     1       3.188   2.518  18.919  0.00  0.00    +0.000 NA
ATOM      3  N   UNL     1       3.874   3.126  17.913  0.00  0.00    +0.000 NA
ATOM      4  C   UNL     1       3.834   4.471  17.776  0.00  0.00    +0.000 A 
ATOM      5  C   UNL     1       3.079   5.284  18.645  0.00  0.00    +0.000 A 
ATOM      6  C   UNL     1       2.953   6.689  18.504  0.00  0.00    +0.000 A 
ATOM      7  C   UNL     1       2.241   7.462  19.422  0.00  0.00    +0.000 A 
ATOM      8  C   UNL     1       1.641   6.852  20.513  0.00  0.00    +0.000 A 
ATOM      9  C   UNL     1       1.718   5.467  20.655  0.00  0.00    +0.000 A 
ATOM     10  C   UNL     1       2.419   4.655  19.726  0.00  0.00    +0.000 A 
ENDROOT
BRANCH   1  11
ATOM     11  N   UNL     1       1.804   2.573  20.887  0.00  0.00    +0.000 N 
ATOM     12  H   UNL     1       0.854   2.949  20.925  0.00  0.00    +0.000 HD
BRANCH  11  13
ATOM     13  N   UNL     1       2.474   2.492  22.129  0.00  0.00    +0.000 NA
ATOM     14  H   UNL     1       1.991   3.014  22.862  0.00  0.00    +0.000 HD
ATOM     15  H   UNL     1       3.431   2.847  22.056  0.00  0.00    +0.000 HD
ENDBRANCH  11  13
ENDBRANCH   1  11
BRANCH   4  16
ATOM     16  C   UNL     1       4.777   5.019  16.728  0.00  0.00    +0.000 C 
BRANCH  16  17
ATOM     17  C   UNL     1       5.988   5.690  17.342  0.00  0.00    +0.000 A 
ATOM     18  C   UNL     1       6.702   5.063  18.371  0.00  0.00    +0.000 A 
ATOM     19  C   UNL     1       7.757   5.737  18.963  0.00  0.00    +0.000 A 
ATOM     20  N   UNL     1       8.153   6.974  18.594  0.00  0.00    +0.000 NA
ATOM     21  C   UNL     1       7.470   7.554  17.588  0.00  0.00    +0.000 A 
ATOM     22  C   UNL     1       6.397   6.962  16.935  0.00  0.00    +0.000 A 
ENDBRANCH  16  17
ENDBRANCH   4  16
TORSDOF 4
ENDMDL
MODEL 5
REMARK VINA RESULT:      -7.3      2.382      3.395
REMARK  Name = 
REMARK  4 active torsions:
REMARK  status: ('A' for Active; 'I' for Inactive)
REMARK    1  A    between atoms: N_1  and  N_2
REMARK    2  A    between atoms: N_2  and  C_3
REMARK    3  A    between atoms: C_6  and  C_7
REMARK    4  A    between atoms: C_7  and  C_8
REMARK                            x       y       z     vdW  Elec       q    Type
REMARK                         _______ _______ _______ _____ _____    ______ ____
ROOT
ATOM      1  C   UNL     1       5.818   5.165  16.286  0.00  0.00    +0.000 A 
ATOM      2  N   UNL     1       5.857   3.814  16.253  0.00  0.00    +0.000 NA
ATOM      3  N   UNL     1       4.825   3.073  16.743  0.00  0.00    +0.000 NA
ATOM      4  C   UNL     1       3.761   3.680  17.315  0.00  0.00    +0.000 A 
ATOM      5  C   UNL     1       3.684   5.082  17.439  0.00  0.00    +0.000 A 
ATOM      6  C   UNL     1       2.622   5.762  18.087  0.00  0.00    +0.000 A 
ATOM      7  C   UNL     1       2.559   7.155  18.137  0.00  0.00    +0.000 A 
ATOM      8  C   UNL     1       3.553   7.909  17.534  0.00  0.00    +0.000 A 
ATOM      9  C   UNL     1       4.629   7.265  16.922  0.00  0.00    +0.000 A 
ATOM     10  C   UNL     1       4.729   5.850  16.873  0.00  0.00    +0.000 A 
ENDROOT
BRANCH   1  11
ATOM     11  N   UNL     1       6.911   5.914  15.738  0.00  0.00    +0.000 N 
ATOM     12  H   UNL     1       6.617   6.891  15.676  0.00  0.00    +0.000 HD
BRANCH  11  13
ATOM     13  N   UNL     1       7.520   5.390  14.574  0.00  0.00    +0.000 NA
ATOM     14  H   UNL     1       6.962   5.562  13.736  0.00  0.00    +0.000 HD
ATOM     15  H   UNL     1       7.673   4.382  14.660  0.00  0.00    +0.000 HD
ENDBRANCH  11  13
ENDBRANCH   1  11
BRANCH   4  16
ATOM     16  C   UNL     1       2.620   2.748  17.654  0.00  0.00    +0.000 C 
BRANCH  16  17
ATOM     17  C   UNL     1       2.371   2.667  19.146  0.00  0.00    +0.000 A 
ATOM     18  C   UNL     1       1.085   2.873  19.664  0.00  0.00    +0.000 A 
ATOM     19  C   UNL     1       0.906   2.869  21.037  0.00  0.00    +0.000 A 
ATOM     20  N   UNL     1       1.907   2.662  21.919  0.00  0.00    +0.000 NA
ATOM     21  C   UNL     1       3.132   2.444  21.405  0.00  0.00    +0.000 A 
ATOM     22  C   UNL     1       3.414   2.433  20.045  0.00  0.00    +0.000 A 
ENDBRANCH  16  17
ENDBRANCH   4  16
TORSDOF 4
ENDMDL
MODEL 6
REMARK VINA RESULT:      -7.3      2.188      5.776
REMARK  Name = 
REMARK  4 active torsions:
REMARK  status: ('A' for Active; 'I' for Inactive)
REMARK    1  A    between atoms: N_1  and  N_2
REMARK    2  A    between atoms: N_2  and  C_3
REMARK    3  A    between atoms: C_6  and  C_7
REMARK    4  A    between atoms: C_7  and  C_8
REMARK                            x       y       z     vdW  Elec       q    Type
REMARK                         _______ _______ _______ _____ _____    ______ ____
ROOT
ATOM      1  C   UNL     1       2.070   6.182  20.031  0.00  0.00    +0.000 A 
ATOM      2  N   UNL     1       2.602   6.810  18.957  0.00  0.00    +0.000 NA
ATOM      3  N   UNL     1       3.099   6.100  17.908  0.00  0.00    +0.000 NA
ATOM      4  C   UNL     1       3.111   4.748  17.943  0.00  0.00    +0.000 A 
ATOM      5  C   UNL     1       2.632   4.030  19.058  0.00  0.00    +0.000 A 
ATOM      6  C   UNL     1       2.682   2.618  19.170  0.00  0.00    +0.000 A 
ATOM      7  C   UNL     1       2.145   1.946  20.268  0.00  0.00    +0.000 A 
ATOM      8  C   UNL     1       1.532   2.666  21.281  0.00  0.00    +0.000 A 
ATOM      9  C   UNL     1       1.502   4.059  21.214  0.00  0.00    +0.000 A 
ATOM     10  C   UNL     1       2.059   4.770  20.119  0.00  0.00    +0.000 A 
ENDROOT
BRANCH   1  11
ATOM     11  N   UNL     1       1.532   6.961  21.107  0.00  0.00    +0.000 N 
ATOM     12  H   UNL     1       0.537   6.740  21.182  0.00  0.00    +0.000 HD
BRANCH  11  13
ATOM     13  N   UNL     1       1.848   8.340  21.114  0.00  0.00    +0.000 NA
ATOM     14  H   UNL     1       1.259   8.873  20.472  0.00  0.00    +0.000 HD
ATOM     15  H   UNL     1       2.827   8.495  20.859  0.00  0.00    +0.000 HD
ENDBRANCH  11  13
ENDBRANCH   1  11
BRANCH   4  16
ATOM     16  C   UNL     1       3.528   4.094  16.645  0.00  0.00    +0.000 C 
BRANCH  16  17
ATOM     17  C   UNL     1       5.008   4.262  16.369  0.00  0.00    +0.000 A 
ATOM     18  C   UNL     1       5.923   4.352  17.427  0.00  0.00    +0.000 A 
ATOM     19  C   UNL     1       7.258   4.582  17.142  0.00  0.00    +0.000 A 
ATOM     20  N   UNL     1       7.741   4.715  15.888  0.00  0.00    +0.000 NA
ATOM     21  C   UNL     1       6.853   4.604  14.882  0.00  0.00    +0.000 A 
ATOM     22  C   UNL     1       5.495   4.378  15.065  0.00  0.00    +0.000 A 
ENDBRANCH  16  17
ENDBRANCH   4  16
TORSDOF 4
ENDMDL
MODEL 7
REMARK VINA RESULT:      -7.3      1.827      5.839
REMARK  Name = 
REMARK  4 active torsions:
REMARK  status: ('A' for Active; 'I' for Inactive)
REMARK    1  A    between atoms: N_1  and  N_2
REMARK    2  A    between atoms: N_2  and  C_3
REMARK    3  A    between atoms: C_6  and  C_7
REMARK    4  A    between atoms: C_7  and  C_8
REMARK                            x       y       z     vdW  Elec       q    Type
REMARK                         _______ _______ _______ _____ _____    ______ ____
ROOT
ATOM      1  C   UNL     1       2.233   3.221  19.718  0.00  0.00    +0.000 A 
ATOM      2  N   UNL     1       2.916   2.509  18.793  0.00  0.00    +0.000 NA
ATOM      3  N   UNL     1       3.660   3.134  17.839  0.00  0.00    +0.000 NA
ATOM      4  C   UNL     1       3.691   4.484  17.775  0.00  0.00    +0.000 A 
ATOM      5  C   UNL     1       2.953   5.288  18.668  0.00  0.00    +0.000 A 
ATOM      6  C   UNL     1       2.901   6.703  18.601  0.00  0.00    +0.000 A 
ATOM      7  C   UNL     1       2.202   7.461  19.540  0.00  0.00    +0.000 A 
ATOM      8  C   UNL     1       1.541   6.825  20.580  0.00  0.00    +0.000 A 
ATOM      9  C   UNL     1       1.545   5.432  20.649  0.00  0.00    +0.000 A 
ATOM     10  C   UNL     1       2.231   4.636  19.695  0.00  0.00    +0.000 A 
ENDROOT
BRANCH   1  11
ATOM     11  N   UNL     1       1.480   2.529  20.723  0.00  0.00    +0.000 N 
ATOM     12  H   UNL     1       0.534   2.915  20.721  0.00  0.00    +0.000 HD
BRANCH  11  13
ATOM     13  N   UNL     1       2.082   2.408  21.997  0.00  0.00    +0.000 NA
ATOM     14  H   UNL     1       3.043   2.066  21.938  0.00  0.00    +0.000 HD
ATOM     15  H   UNL     1       1.549   1.773  22.597  0.00  0.00    +0.000 HD
ENDBRANCH  11  13
ENDBRANCH   1  11
BRANCH   4  16
ATOM     16  C   UNL     1       4.689   5.038  16.784  0.00  0.00    +0.000 C 
BRANCH  16  17
ATOM     17  C   UNL     1       5.866   5.705  17.467  0.00  0.00    +0.000 A 
ATOM     18  C   UNL     1       6.364   6.926  16.992  0.00  0.00    +0.000 A 
ATOM     19  C   UNL     1       7.488   7.469  17.591  0.00  0.00    +0.000 A 
ATOM     20  N   UNL     1       8.134   6.893  18.627  0.00  0.00    +0.000 NA
ATOM     21  C   UNL     1       7.629   5.732  19.085  0.00  0.00    +0.000 A 
ATOM     22  C   UNL     1       6.511   5.105  18.551  0.00  0.00    +0.000 A 
ENDBRANCH  16  17
ENDBRANCH   4  16
TORSDOF 4
ENDMDL
MODEL 8
REMARK VINA RESULT:      -7.2      2.085      5.561
REMARK  Name = 
REMARK  4 active torsions:
REMARK  status: ('A' for Active; 'I' for Inactive)
REMARK    1  A    between atoms: N_1  and  N_2
REMARK    2  A    between atoms: N_2  and  C_3
REMARK    3  A    between atoms: C_6  and  C_7
REMARK    4  A    between atoms: C_7  and  C_8
REMARK                            x       y       z     vdW  Elec       q    Type
REMARK                         _______ _______ _______ _____ _____    ______ ____
ROOT
ATOM      1  C   UNL     1       2.445   3.579  20.579  0.00  0.00    +0.000 A 
ATOM      2  N   UNL     1       2.733   2.499  19.817  0.00  0.00    +0.000 NA
ATOM      3  N   UNL     1       3.028   2.636  18.494  0.00  0.00    +0.000 NA
ATOM      4  C   UNL     1       2.992   3.855  17.910  0.00  0.00    +0.000 A 
ATOM      5  C   UNL     1       2.637   5.014  18.630  0.00  0.00    +0.000 A 
ATOM      6  C   UNL     1       2.521   6.301  18.049  0.00  0.00    +0.000 A 
ATOM      7  C   UNL     1       2.222   7.430  18.812  0.00  0.00    +0.000 A 
ATOM      8  C   UNL     1       2.038   7.306  20.180  0.00  0.00    +0.000 A 
ATOM      9  C   UNL     1       2.110   6.044  20.772  0.00  0.00    +0.000 A 
ATOM     10  C   UNL     1       2.392   4.876  20.017  0.00  0.00    +0.000 A 
ENDROOT
BRANCH   1  11
ATOM     11  N   UNL     1       2.164   3.401  21.973  0.00  0.00    +0.000 N 
ATOM     12  H   UNL     1       3.050   3.471  22.479  0.00  0.00    +0.000 HD
BRANCH  11  13
ATOM     13  N   UNL     1       1.353   2.296  22.323  0.00  0.00    +0.000 NA
ATOM     14  H   UNL     1       1.531   1.484  21.728  0.00  0.00    +0.000 HD
ATOM     15  H   UNL     1       0.360   2.533  22.258  0.00  0.00    +0.000 HD
ENDBRANCH  11  13
ENDBRANCH   1  11
BRANCH   4  16
ATOM     16  C   UNL     1       3.508   3.880  16.489  0.00  0.00    +0.000 C 
BRANCH  16  17
ATOM     17  C   UNL     1       5.001   4.129  16.426  0.00  0.00    +0.000 A 
ATOM     18  C   UNL     1       5.738   4.331  17.601  0.00  0.00    +0.000 A 
ATOM     19  C   UNL     1       7.085   4.632  17.504  0.00  0.00    +0.000 A 
ATOM     20  N   UNL     1       7.745   4.733  16.330  0.00  0.00    +0.000 NA
ATOM     21  C   UNL     1       7.028   4.515  15.211  0.00  0.00    +0.000 A 
ATOM     22  C   UNL     1       5.673   4.210  15.204  0.00  0.00    +0.000 A 
ENDBRANCH  16  17
ENDBRANCH   4  16
TORSDOF 4
ENDMDL
MODEL 9
REMARK VINA RESULT:      -7.2      2.185      5.863
REMARK  Name = 
REMARK  4 active torsions:
REMARK  status: ('A' for Active; 'I' for Inactive)
REMARK    1  A    between atoms: N_1  and  N_2
REMARK    2  A    between atoms: N_2  and  C_3
REMARK    3  A    between atoms: C_6  and  C_7
REMARK    4  A    between atoms: C_7  and  C_8
REMARK                            x       y       z     vdW  Elec       q    Type
REMARK                         _______ _______ _______ _____ _____    ______ ____
ROOT
ATOM      1  C   UNL     1       2.034   6.212  20.059  0.00  0.00    +0.000 A 
ATOM      2  N   UNL     1       2.573   6.858  19.000  0.00  0.00    +0.000 NA
ATOM      3  N   UNL     1       3.088   6.166  17.947  0.00  0.00    +0.000 NA
ATOM      4  C   UNL     1       3.108   4.814  17.964  0.00  0.00    +0.000 A 
ATOM      5  C   UNL     1       2.621   4.078  19.062  0.00  0.00    +0.000 A 
ATOM      6  C   UNL     1       2.680   2.665  19.156  0.00  0.00    +0.000 A 
ATOM      7  C   UNL     1       2.134   1.973  20.238  0.00  0.00    +0.000 A 
ATOM      8  C   UNL     1       1.505   2.676  21.254  0.00  0.00    +0.000 A 
ATOM      9  C   UNL     1       1.466   4.069  21.205  0.00  0.00    +0.000 A 
ATOM     10  C   UNL     1       2.031   4.799  20.127  0.00  0.00    +0.000 A 
ENDROOT
BRANCH   1  11
ATOM     11  N   UNL     1       1.478   6.973  21.139  0.00  0.00    +0.000 N 
ATOM     12  H   UNL     1       0.475   6.779  21.171  0.00  0.00    +0.000 HD
BRANCH  11  13
ATOM     13  N   UNL     1       1.833   8.340  21.203  0.00  0.00    +0.000 NA
ATOM     14  H   UNL     1       1.138   8.940  20.754  0.00  0.00    +0.000 HD
ATOM     15  H   UNL     1       2.739   8.506  20.759  0.00  0.00    +0.000 HD
ENDBRANCH  11  13
ENDBRANCH   1  11
BRANCH   4  16
ATOM     16  C   UNL     1       3.545   4.181  16.662  0.00  0.00    +0.000 C 
BRANCH  16  17
ATOM     17  C   UNL     1       5.017   4.401  16.383  0.00  0.00    +0.000 A 
ATOM     18  C   UNL     1       5.480   4.527  15.067  0.00  0.00    +0.000 A 
ATOM     19  C   UNL     1       6.841   4.650  14.843  0.00  0.00    +0.000 A 
ATOM     20  N   UNL     1       7.761   4.668  15.831  0.00  0.00    +0.000 NA
ATOM     21  C   UNL     1       7.298   4.568  17.092  0.00  0.00    +0.000 A 
ATOM     22  C   UNL     1       5.955   4.438  17.419  0.00  0.00    +0.000 A 
ENDBRANCH  16  17
ENDBRANCH   4  16
TORSDOF 4
ENDMDL
