MODEL 1
REMARK VINA RESULT:      -7.8      0.000      0.000
REMARK  Name = 
REMARK  9 active torsions:
REMARK  status: ('A' for Active; 'I' for Inactive)
REMARK    1  A    between atoms: C_1  and  O_2
REMARK    2  A    between atoms: O_2  and  C_3
REMARK    3  A    between atoms: C_6  and  C_7
REMARK    4  A    between atoms: C_7  and  C_8
REMARK    5  A    between atoms: C_9  and  C_10
REMARK    6  A    between atoms: C_18  and  N_19
REMARK    7  A    between atoms: N_19  and  C_20
REMARK    8  A    between atoms: C_23  and  N_24
REMARK    9  A    between atoms: N_27  and  C_28
REMARK                            x       y       z     vdW  Elec       q    Type
REMARK                         _______ _______ _______ _____ _____    ______ ____
ROOT
ATOM      1  C   UNL     1      -1.621  11.518  19.473  0.00  0.00    +0.000 A 
ATOM      2  C   UNL     1      -2.146  12.614  20.234  0.00  0.00    +0.000 A 
ATOM      3  N   UNL     1      -1.274  13.632  20.298  0.00  0.00    +0.000 NA
ATOM      4  N   UNL     1      -0.169  13.147  19.716  0.00  0.00    +0.000 N 
ATOM      5  C   UNL     1      -0.340  11.924  19.134  0.00  0.00    +0.000 A 
ATOM      6  H   UNL     1       0.681  13.699  19.735  0.00  0.00    +0.000 HD
ENDROOT
BRANCH   2   7
ATOM      7  C   UNL     1      -3.489  12.732  20.906  0.00  0.00    +0.000 A 
ATOM      8  C   UNL     1      -3.654  12.826  22.277  0.00  0.00    +0.000 A 
ATOM      9  C   UNL     1      -5.030  12.919  22.656  0.00  0.00    +0.000 A 
ATOM     10  C   UNL     1      -5.846  12.836  21.560  0.00  0.00    +0.000 A 
ATOM     11 CL   UNL     1      -7.562  12.856  21.544  0.00  0.00    +0.000 Cl
ATOM     12  S   UNL     1      -5.000  12.712  20.107  0.00  0.00    +0.000 S 
ENDBRANCH   2   7
BRANCH   5  13
ATOM     13  N   UNL     1       0.664  11.296  18.468  0.00  0.00    +0.000 N 
ATOM     14  H   UNL     1       1.366  11.859  17.994  0.00  0.00    +0.000 HD
BRANCH  13  15
ATOM     15  C   UNL     1       1.161  10.001  18.738  0.00  0.00    +0.000 A 
ATOM     16  C   UNL     1       1.735   9.262  17.704  0.00  0.00    +0.000 A 
ATOM     17  C   UNL     1       2.229   7.968  17.936  0.00  0.00    +0.000 A 
ATOM     18  C   UNL     1       2.203   7.368  19.207  0.00  0.00    +0.000 A 
ATOM     19  C   UNL     1       1.604   8.125  20.224  0.00  0.00    +0.000 A 
ATOM     20  C   UNL     1       1.088   9.409  19.997  0.00  0.00    +0.000 A 
BRANCH  18  21
ATOM     21  N   UNL     1       2.676   6.071  19.406  0.00  0.00    +0.000 N 
ATOM     22  C   UNL     1       4.130   5.826  19.257  0.00  0.00    +0.000 C 
ATOM     23  C   UNL     1       4.382   4.329  18.969  0.00  0.00    +0.000 C 
ATOM     24  N   UNL     1       3.857   3.456  20.043  0.00  0.00    +0.000 NA
ATOM     25  C   UNL     1       4.080   2.050  19.713  0.00  0.00    +0.000 C 
ATOM     26  C   UNL     1       2.414   3.727  20.215  0.00  0.00    +0.000 C 
ATOM     27  C   UNL     1       2.092   5.221  20.470  0.00  0.00    +0.000 C 
ENDBRANCH  18  21
ENDBRANCH  13  15
ENDBRANCH   5  13
BRANCH   1  28
ATOM     28  C   UNL     1      -2.315  10.278  19.020  0.00  0.00    +0.000 C 
BRANCH  28  32
ATOM     29  C   UNL     1      -3.368  10.416  14.819  0.00  0.00    +0.000 A 
ATOM     30  C   UNL     1      -2.292   9.648  15.264  0.00  0.00    +0.000 A 
ATOM     31  C   UNL     1      -1.963   9.622  16.621  0.00  0.00    +0.000 A 
ATOM     32  C   UNL     1      -2.676  10.395  17.556  0.00  0.00    +0.000 A 
ATOM     33  C   UNL     1      -3.740  11.176  17.084  0.00  0.00    +0.000 A 
ATOM     34  C   UNL     1      -4.074  11.195  15.729  0.00  0.00    +0.000 A 
BRANCH  29  36
ATOM     35  C   UNL     1      -4.773   9.579  13.133  0.00  0.00    +0.000 C 
ATOM     36  O   UNL     1      -3.629  10.356  13.477  0.00  0.00    +0.000 OA
ENDBRANCH  29  36
ENDBRANCH  28  32
ENDBRANCH   1  28
TORSDOF 7
ENDMDL
MODEL 2
REMARK VINA RESULT:      -7.8      0.760      1.146
REMARK  Name = 
REMARK  9 active torsions:
REMARK  status: ('A' for Active; 'I' for Inactive)
REMARK    1  A    between atoms: C_1  and  O_2
REMARK    2  A    between atoms: O_2  and  C_3
REMARK    3  A    between atoms: C_6  and  C_7
REMARK    4  A    between atoms: C_7  and  C_8
REMARK    5  A    between atoms: C_9  and  C_10
REMARK    6  A    between atoms: C_18  and  N_19
REMARK    7  A    between atoms: N_19  and  C_20
REMARK    8  A    between atoms: C_23  and  N_24
REMARK    9  A    between atoms: N_27  and  C_28
REMARK                            x       y       z     vdW  Elec       q    Type
REMARK                         _______ _______ _______ _____ _____    ______ ____
ROOT
ATOM      1  C   UNL     1      -1.166  11.325  19.810  0.00  0.00    +0.000 A 
ATOM      2  C   UNL     1      -1.457  12.419  20.690  0.00  0.00    +0.000 A 
ATOM      3  N   UNL     1      -0.457  13.313  20.713  0.00  0.00    +0.000 NA
ATOM      4  N   UNL     1       0.506  12.738  19.979  0.00  0.00    +0.000 N 
ATOM      5  C   UNL     1       0.113  11.591  19.350  0.00  0.00    +0.000 A 
ATOM      6  H   UNL     1       1.418  13.178  19.932  0.00  0.00    +0.000 HD
ENDROOT
BRANCH   2   7
ATOM      7  C   UNL     1      -2.693  12.654  21.519  0.00  0.00    +0.000 A 
ATOM      8  C   UNL     1      -2.742  12.471  22.890  0.00  0.00    +0.000 A 
ATOM      9  C   UNL     1      -4.035  12.753  23.432  0.00  0.00    +0.000 A 
ATOM     10  C   UNL     1      -4.920  13.084  22.441  0.00  0.00    +0.000 A 
ATOM     11 CL   UNL     1      -6.586  13.454  22.623  0.00  0.00    +0.000 Cl
ATOM     12  S   UNL     1      -4.221  13.118  20.908  0.00  0.00    +0.000 S 
ENDBRANCH   2   7
BRANCH   5  13
ATOM     13  N   UNL     1       0.949  10.894  18.536  0.00  0.00    +0.000 N 
ATOM     14  H   UNL     1       1.548  11.406  17.893  0.00  0.00    +0.000 HD
BRANCH  13  15
ATOM     15  C   UNL     1       1.469   9.604  18.784  0.00  0.00    +0.000 A 
ATOM     16  C   UNL     1       2.143   8.933  17.765  0.00  0.00    +0.000 A 
ATOM     17  C   UNL     1       2.662   7.645  17.974  0.00  0.00    +0.000 A 
ATOM     18  C   UNL     1       2.562   6.985  19.211  0.00  0.00    +0.000 A 
ATOM     19  C   UNL     1       1.864   7.674  20.214  0.00  0.00    +0.000 A 
ATOM     20  C   UNL     1       1.323   8.951  20.006  0.00  0.00    +0.000 A 
BRANCH  18  21
ATOM     21  N   UNL     1       3.064   5.695  19.387  0.00  0.00    +0.000 N 
ATOM     22  C   UNL     1       2.116   4.622  19.770  0.00  0.00    +0.000 C 
ATOM     23  C   UNL     1       2.884   3.458  20.436  0.00  0.00    +0.000 C 
ATOM     24  N   UNL     1       3.918   2.887  19.544  0.00  0.00    +0.000 NA
ATOM     25  C   UNL     1       4.646   1.818  20.225  0.00  0.00    +0.000 C 
ATOM     26  C   UNL     1       4.843   3.966  19.135  0.00  0.00    +0.000 C 
ATOM     27  C   UNL     1       4.127   5.181  18.493  0.00  0.00    +0.000 C 
ENDBRANCH  18  21
ENDBRANCH  13  15
ENDBRANCH   5  13
BRANCH   1  28
ATOM     28  C   UNL     1      -2.062  10.217  19.368  0.00  0.00    +0.000 C 
BRANCH  28  32
ATOM     29  C   UNL     1      -3.448  10.746  15.298  0.00  0.00    +0.000 A 
ATOM     30  C   UNL     1      -2.388   9.886  15.589  0.00  0.00    +0.000 A 
ATOM     31  C   UNL     1      -1.950   9.734  16.906  0.00  0.00    +0.000 A 
ATOM     32  C   UNL     1      -2.534  10.469  17.954  0.00  0.00    +0.000 A 
ATOM     33  C   UNL     1      -3.583  11.343  17.636  0.00  0.00    +0.000 A 
ATOM     34  C   UNL     1      -4.026  11.488  16.321  0.00  0.00    +0.000 A 
BRANCH  29  36
ATOM     35  C   UNL     1      -4.318   9.580  13.453  0.00  0.00    +0.000 C 
ATOM     36  O   UNL     1      -3.822  10.807  13.983  0.00  0.00    +0.000 OA
ENDBRANCH  29  36
ENDBRANCH  28  32
ENDBRANCH   1  28
TORSDOF 7
ENDMDL
MODEL 3
REMARK VINA RESULT:      -7.8      2.471      3.166
REMARK  Name = 
REMARK  9 active torsions:
REMARK  status: ('A' for Active; 'I' for Inactive)
REMARK    1  A    between atoms: C_1  and  O_2
REMARK    2  A    between atoms: O_2  and  C_3
REMARK    3  A    between atoms: C_6  and  C_7
REMARK    4  A    between atoms: C_7  and  C_8
REMARK    5  A    between atoms: C_9  and  C_10
REMARK    6  A    between atoms: C_18  and  N_19
REMARK    7  A    between atoms: N_19  and  C_20
REMARK    8  A    between atoms: C_23  and  N_24
REMARK    9  A    between atoms: N_27  and  C_28
REMARK                            x       y       z     vdW  Elec       q    Type
REMARK                         _______ _______ _______ _____ _____    ______ ____
ROOT
ATOM      1  C   UNL     1      -0.622  11.892  21.110  0.00  0.00    +0.000 A 
ATOM      2  C   UNL     1      -0.968  11.844  22.501  0.00  0.00    +0.000 A 
ATOM      3  N   UNL     1      -0.246  10.924  23.158  0.00  0.00    +0.000 NA
ATOM      4  N   UNL     1       0.443  10.304  22.190  0.00  0.00    +0.000 N 
ATOM      5  C   UNL     1       0.321  10.888  20.961  0.00  0.00    +0.000 A 
ATOM      6  H   UNL     1       0.993   9.485  22.423  0.00  0.00    +0.000 HD
ENDROOT
BRANCH   2   7
ATOM      7  C   UNL     1      -1.980  12.676  23.246  0.00  0.00    +0.000 A 
ATOM      8  C   UNL     1      -3.231  12.211  23.614  0.00  0.00    +0.000 A 
ATOM      9  C   UNL     1      -3.999  13.202  24.302  0.00  0.00    +0.000 A 
ATOM     10  C   UNL     1      -3.318  14.387  24.375  0.00  0.00    +0.000 A 
ATOM     11 CL   UNL     1      -3.870  15.857  25.068  0.00  0.00    +0.000 Cl
ATOM     12  S   UNL     1      -1.776  14.312  23.697  0.00  0.00    +0.000 S 
ENDBRANCH   2   7
BRANCH   5  13
ATOM     13  N   UNL     1       0.977  10.414  19.870  0.00  0.00    +0.000 N 
ATOM     14  H   UNL     1       1.527  11.061  19.308  0.00  0.00    +0.000 HD
BRANCH  13  15
ATOM     15  C   UNL     1       1.414   9.086  19.672  0.00  0.00    +0.000 A 
ATOM     16  C   UNL     1       1.904   8.708  18.423  0.00  0.00    +0.000 A 
ATOM     17  C   UNL     1       2.336   7.392  18.189  0.00  0.00    +0.000 A 
ATOM     18  C   UNL     1       2.328   6.408  19.192  0.00  0.00    +0.000 A 
ATOM     19  C   UNL     1       1.812   6.808  20.433  0.00  0.00    +0.000 A 
ATOM     20  C   UNL     1       1.358   8.114  20.668  0.00  0.00    +0.000 A 
BRANCH  18  21
ATOM     21  N   UNL     1       2.737   5.100  18.928  0.00  0.00    +0.000 N 
ATOM     22  C   UNL     1       1.707   4.111  18.532  0.00  0.00    +0.000 C 
ATOM     23  C   UNL     1       2.217   2.680  18.817  0.00  0.00    +0.000 C 
ATOM     24  N   UNL     1       3.473   2.379  18.094  0.00  0.00    +0.000 NA
ATOM     25  C   UNL     1       3.941   1.034  18.421  0.00  0.00    +0.000 C 
ATOM     26  C   UNL     1       4.489   3.388  18.463  0.00  0.00    +0.000 C 
ATOM     27  C   UNL     1       4.022   4.847  18.236  0.00  0.00    +0.000 C 
ENDBRANCH  18  21
ENDBRANCH  13  15
ENDBRANCH   5  13
BRANCH   1  28
ATOM     28  C   UNL     1      -1.056  12.871  20.072  0.00  0.00    +0.000 C 
BRANCH  28  32
ATOM     29  C   UNL     1      -4.728  11.641  18.130  0.00  0.00    +0.000 A 
ATOM     30  C   UNL     1      -4.752  12.284  19.367  0.00  0.00    +0.000 A 
ATOM     31  C   UNL     1      -3.558  12.666  19.982  0.00  0.00    +0.000 A 
ATOM     32  C   UNL     1      -2.314  12.377  19.392  0.00  0.00    +0.000 A 
ATOM     33  C   UNL     1      -2.312  11.712  18.159  0.00  0.00    +0.000 A 
ATOM     34  C   UNL     1      -3.506  11.337  17.541  0.00  0.00    +0.000 A 
BRANCH  29  36
ATOM     35  C   UNL     1      -6.876  10.775  18.526  0.00  0.00    +0.000 C 
ATOM     36  O   UNL     1      -5.950  11.330  17.596  0.00  0.00    +0.000 OA
ENDBRANCH  29  36
ENDBRANCH  28  32
ENDBRANCH   1  28
TORSDOF 7
ENDMDL
MODEL 4
REMARK VINA RESULT:      -7.8      1.389      1.861
REMARK  Name = 
REMARK  9 active torsions:
REMARK  status: ('A' for Active; 'I' for Inactive)
REMARK    1  A    between atoms: C_1  and  O_2
REMARK    2  A    between atoms: O_2  and  C_3
REMARK    3  A    between atoms: C_6  and  C_7
REMARK    4  A    between atoms: C_7  and  C_8
REMARK    5  A    between atoms: C_9  and  C_10
REMARK    6  A    between atoms: C_18  and  N_19
REMARK    7  A    between atoms: N_19  and  C_20
REMARK    8  A    between atoms: C_23  and  N_24
REMARK    9  A    between atoms: N_27  and  C_28
REMARK                            x       y       z     vdW  Elec       q    Type
REMARK                         _______ _______ _______ _____ _____    ______ ____
ROOT
ATOM      1  C   UNL     1      -0.737  11.411  19.786  0.00  0.00    +0.000 A 
ATOM      2  C   UNL     1      -0.967  12.546  20.632  0.00  0.00    +0.000 A 
ATOM      3  N   UNL     1      -0.005  13.470  20.492  0.00  0.00    +0.000 NA
ATOM      4  N   UNL     1       0.890  12.883  19.684  0.00  0.00    +0.000 N 
ATOM      5  C   UNL     1       0.472  11.690  19.168  0.00  0.00    +0.000 A 
ATOM      6  H   UNL     1       1.775  13.347  19.509  0.00  0.00    +0.000 HD
ENDROOT
BRANCH   2   7
ATOM      7  C   UNL     1      -2.110  12.790  21.584  0.00  0.00    +0.000 A 
ATOM      8  C   UNL     1      -3.064  13.776  21.397  0.00  0.00    +0.000 A 
ATOM      9  C   UNL     1      -4.032  13.803  22.449  0.00  0.00    +0.000 A 
ATOM     10  C   UNL     1      -3.737  12.874  23.410  0.00  0.00    +0.000 A 
ATOM     11 CL   UNL     1      -4.595  12.585  24.869  0.00  0.00    +0.000 Cl
ATOM     12  S   UNL     1      -2.376  11.948  23.047  0.00  0.00    +0.000 S 
ENDBRANCH   2   7
BRANCH   5  13
ATOM     13  N   UNL     1       1.235  10.972  18.303  0.00  0.00    +0.000 N 
ATOM     14  H   UNL     1       1.827  11.469  17.642  0.00  0.00    +0.000 HD
BRANCH  13  15
ATOM     15  C   UNL     1       1.707   9.656  18.503  0.00  0.00    +0.000 A 
ATOM     16  C   UNL     1       1.463   9.021  19.720  0.00  0.00    +0.000 A 
ATOM     17  C   UNL     1       1.927   7.716  19.954  0.00  0.00    +0.000 A 
ATOM     18  C   UNL     1       2.624   6.979  18.982  0.00  0.00    +0.000 A 
ATOM     19  C   UNL     1       2.873   7.647  17.774  0.00  0.00    +0.000 A 
ATOM     20  C   UNL     1       2.432   8.957  17.540  0.00  0.00    +0.000 A 
BRANCH  18  21
ATOM     21  N   UNL     1       3.098   5.693  19.248  0.00  0.00    +0.000 N 
ATOM     22  C   UNL     1       2.114   4.646  19.610  0.00  0.00    +0.000 C 
ATOM     23  C   UNL     1       2.821   3.506  20.378  0.00  0.00    +0.000 C 
ATOM     24  N   UNL     1       3.908   2.889  19.587  0.00  0.00    +0.000 NA
ATOM     25  C   UNL     1       4.575   1.845  20.363  0.00  0.00    +0.000 C 
ATOM     26  C   UNL     1       4.871   3.941  19.196  0.00  0.00    +0.000 C 
ATOM     27  C   UNL     1       4.215   5.133  18.454  0.00  0.00    +0.000 C 
ENDBRANCH  18  21
ENDBRANCH  13  15
ENDBRANCH   5  13
BRANCH   1  28
ATOM     28  C   UNL     1      -1.635  10.253  19.511  0.00  0.00    +0.000 C 
BRANCH  28  32
ATOM     29  C   UNL     1      -3.625  10.587  15.677  0.00  0.00    +0.000 A 
ATOM     30  C   UNL     1      -2.510   9.765  15.837  0.00  0.00    +0.000 A 
ATOM     31  C   UNL     1      -1.877   9.675  17.078  0.00  0.00    +0.000 A 
ATOM     32  C   UNL     1      -2.319  10.438  18.175  0.00  0.00    +0.000 A 
ATOM     33  C   UNL     1      -3.429  11.273  17.987  0.00  0.00    +0.000 A 
ATOM     34  C   UNL     1      -4.067  11.355  16.748  0.00  0.00    +0.000 A 
BRANCH  29  36
ATOM     35  C   UNL     1      -3.416   9.934  13.430  0.00  0.00    +0.000 C 
ATOM     36  O   UNL     1      -4.192  10.586  14.432  0.00  0.00    +0.000 OA
ENDBRANCH  29  36
ENDBRANCH  28  32
ENDBRANCH   1  28
TORSDOF 7
ENDMDL
MODEL 5
REMARK VINA RESULT:      -7.7      1.202      1.225
REMARK  Name = 
REMARK  9 active torsions:
REMARK  status: ('A' for Active; 'I' for Inactive)
REMARK    1  A    between atoms: C_1  and  O_2
REMARK    2  A    between atoms: O_2  and  C_3
REMARK    3  A    between atoms: C_6  and  C_7
REMARK    4  A    between atoms: C_7  and  C_8
REMARK    5  A    between atoms: C_9  and  C_10
REMARK    6  A    between atoms: C_18  and  N_19
REMARK    7  A    between atoms: N_19  and  C_20
REMARK    8  A    between atoms: C_23  and  N_24
REMARK    9  A    between atoms: N_27  and  C_28
REMARK                            x       y       z     vdW  Elec       q    Type
REMARK                         _______ _______ _______ _____ _____    ______ ____
ROOT
ATOM      1  C   UNL     1      -0.819  11.614  19.787  0.00  0.00    +0.000 A 
ATOM      2  C   UNL     1      -0.978  12.798  20.579  0.00  0.00    +0.000 A 
ATOM      3  N   UNL     1       0.038  13.655  20.396  0.00  0.00    +0.000 NA
ATOM      4  N   UNL     1       0.893  12.978  19.616  0.00  0.00    +0.000 N 
ATOM      5  C   UNL     1       0.402  11.790  19.157  0.00  0.00    +0.000 A 
ATOM      6  H   UNL     1       1.803  13.379  19.420  0.00  0.00    +0.000 HD
ENDROOT
BRANCH   2   7
ATOM      7  C   UNL     1      -2.101  13.156  21.518  0.00  0.00    +0.000 A 
ATOM      8  C   UNL     1      -2.467  12.380  22.604  0.00  0.00    +0.000 A 
ATOM      9  C   UNL     1      -3.568  12.939  23.327  0.00  0.00    +0.000 A 
ATOM     10  C   UNL     1      -4.019  14.082  22.724  0.00  0.00    +0.000 A 
ATOM     11 CL   UNL     1      -5.344  15.057  23.216  0.00  0.00    +0.000 Cl
ATOM     12  S   UNL     1      -3.121  14.519  21.366  0.00  0.00    +0.000 S 
ENDBRANCH   2   7
BRANCH   5  13
ATOM     13  N   UNL     1       1.118  10.987  18.326  0.00  0.00    +0.000 N 
ATOM     14  H   UNL     1       1.686  11.416  17.598  0.00  0.00    +0.000 HD
BRANCH  13  15
ATOM     15  C   UNL     1       1.584   9.687  18.621  0.00  0.00    +0.000 A 
ATOM     16  C   UNL     1       2.326   8.995  17.664  0.00  0.00    +0.000 A 
ATOM     17  C   UNL     1       2.794   7.695  17.920  0.00  0.00    +0.000 A 
ATOM     18  C   UNL     1       2.572   7.044  19.146  0.00  0.00    +0.000 A 
ATOM     19  C   UNL     1       1.807   7.753  20.083  0.00  0.00    +0.000 A 
ATOM     20  C   UNL     1       1.317   9.042  19.827  0.00  0.00    +0.000 A 
BRANCH  18  21
ATOM     21  N   UNL     1       3.024   5.742  19.367  0.00  0.00    +0.000 N 
ATOM     22  C   UNL     1       4.479   5.480  19.258  0.00  0.00    +0.000 C 
ATOM     23  C   UNL     1       4.721   3.977  18.987  0.00  0.00    +0.000 C 
ATOM     24  N   UNL     1       4.158   3.119  20.053  0.00  0.00    +0.000 NA
ATOM     25  C   UNL     1       4.373   1.707  19.738  0.00  0.00    +0.000 C 
ATOM     26  C   UNL     1       2.714   3.407  20.184  0.00  0.00    +0.000 C 
ATOM     27  C   UNL     1       2.403   4.907  20.420  0.00  0.00    +0.000 C 
ENDBRANCH  18  21
ENDBRANCH  13  15
ENDBRANCH   5  13
BRANCH   1  28
ATOM     28  C   UNL     1      -1.786  10.500  19.567  0.00  0.00    +0.000 C 
BRANCH  28  32
ATOM     29  C   UNL     1      -3.576  10.635  15.624  0.00  0.00    +0.000 A 
ATOM     30  C   UNL     1      -2.491   9.800  15.890  0.00  0.00    +0.000 A 
ATOM     31  C   UNL     1      -1.922   9.776  17.166  0.00  0.00    +0.000 A 
ATOM     32  C   UNL     1      -2.399  10.615  18.189  0.00  0.00    +0.000 A 
ATOM     33  C   UNL     1      -3.477  11.461  17.894  0.00  0.00    +0.000 A 
ATOM     34  C   UNL     1      -4.051  11.479  16.622  0.00  0.00    +0.000 A 
BRANCH  29  36
ATOM     35  C   UNL     1      -3.287   9.813  13.442  0.00  0.00    +0.000 C 
ATOM     36  O   UNL     1      -4.081  10.568  14.354  0.00  0.00    +0.000 OA
ENDBRANCH  29  36
ENDBRANCH  28  32
ENDBRANCH   1  28
TORSDOF 7
ENDMDL
MODEL 6
REMARK VINA RESULT:      -7.7      5.891     10.755
REMARK  Name = 
REMARK  9 active torsions:
REMARK  status: ('A' for Active; 'I' for Inactive)
REMARK    1  A    between atoms: C_1  and  O_2
REMARK    2  A    between atoms: O_2  and  C_3
REMARK    3  A    between atoms: C_6  and  C_7
REMARK    4  A    between atoms: C_7  and  C_8
REMARK    5  A    between atoms: C_9  and  C_10
REMARK    6  A    between atoms: C_18  and  N_19
REMARK    7  A    between atoms: N_19  and  C_20
REMARK    8  A    between atoms: C_23  and  N_24
REMARK    9  A    between atoms: N_27  and  C_28
REMARK                            x       y       z     vdW  Elec       q    Type
REMARK                         _______ _______ _______ _____ _____    ______ ____
ROOT
ATOM      1  C   UNL     1       4.995   4.709  16.168  0.00  0.00    +0.000 A 
ATOM      2  C   UNL     1       5.385   5.105  14.846  0.00  0.00    +0.000 A 
ATOM      3  N   UNL     1       5.500   6.438  14.744  0.00  0.00    +0.000 NA
ATOM      4  N   UNL     1       5.061   6.890  15.927  0.00  0.00    +0.000 N 
ATOM      5  C   UNL     1       4.822   5.907  16.843  0.00  0.00    +0.000 A 
ATOM      6  H   UNL     1       4.949   7.889  16.061  0.00  0.00    +0.000 HD
ENDROOT
BRANCH   2   7
ATOM      7  C   UNL     1       5.671   4.233  13.651  0.00  0.00    +0.000 A 
ATOM      8  C   UNL     1       4.686   3.600  12.912  0.00  0.00    +0.000 A 
ATOM      9  C   UNL     1       5.225   2.826  11.837  0.00  0.00    +0.000 A 
ATOM     10  C   UNL     1       6.593   2.864  11.844  0.00  0.00    +0.000 A 
ATOM     11 CL   UNL     1       7.657   2.050  10.770  0.00  0.00    +0.000 Cl
ATOM     12  S   UNL     1       7.227   3.844  13.060  0.00  0.00    +0.000 S 
ENDBRANCH   2   7
BRANCH   5  13
ATOM     13  N   UNL     1       4.406   6.185  18.106  0.00  0.00    +0.000 N 
ATOM     14  H   UNL     1       5.057   6.056  18.878  0.00  0.00    +0.000 HD
BRANCH  13  15
ATOM     15  C   UNL     1       3.378   7.085  18.466  0.00  0.00    +0.000 A 
ATOM     16  C   UNL     1       3.073   8.147  17.615  0.00  0.00    +0.000 A 
ATOM     17  C   UNL     1       2.065   9.066  17.948  0.00  0.00    +0.000 A 
ATOM     18  C   UNL     1       1.299   8.951  19.121  0.00  0.00    +0.000 A 
ATOM     19  C   UNL     1       1.638   7.886  19.968  0.00  0.00    +0.000 A 
ATOM     20  C   UNL     1       2.658   6.977  19.653  0.00  0.00    +0.000 A 
BRANCH  18  21
ATOM     21  N   UNL     1       0.320   9.892  19.443  0.00  0.00    +0.000 N 
ATOM     22  C   UNL     1       0.610  10.861  20.526  0.00  0.00    +0.000 C 
ATOM     23  C   UNL     1      -0.713  11.420  21.097  0.00  0.00    +0.000 C 
ATOM     24  N   UNL     1      -1.530  12.091  20.062  0.00  0.00    +0.000 NA
ATOM     25  C   UNL     1      -2.787  12.569  20.634  0.00  0.00    +0.000 C 
ATOM     26  C   UNL     1      -1.788  11.134  18.964  0.00  0.00    +0.000 C 
ATOM     27  C   UNL     1      -0.499  10.509  18.374  0.00  0.00    +0.000 C 
ENDBRANCH  18  21
ENDBRANCH  13  15
ENDBRANCH   5  13
BRANCH   1  28
ATOM     28  C   UNL     1       4.919   3.337  16.749  0.00  0.00    +0.000 C 
BRANCH  28  32
ATOM     29  C   UNL     1       1.739   3.253  19.690  0.00  0.00    +0.000 A 
ATOM     30  C   UNL     1       3.064   3.023  20.060  0.00  0.00    +0.000 A 
ATOM     31  C   UNL     1       4.075   3.047  19.097  0.00  0.00    +0.000 A 
ATOM     32  C   UNL     1       3.778   3.259  17.738  0.00  0.00    +0.000 A 
ATOM     33  C   UNL     1       2.437   3.467  17.386  0.00  0.00    +0.000 A 
ATOM     34  C   UNL     1       1.428   3.451  18.350  0.00  0.00    +0.000 A 
BRANCH  29  36
ATOM     35  C   UNL     1       1.281   2.602  21.901  0.00  0.00    +0.000 C 
ATOM     36  O   UNL     1       0.825   3.236  20.708  0.00  0.00    +0.000 OA
ENDBRANCH  29  36
ENDBRANCH  28  32
ENDBRANCH   1  28
TORSDOF 7
ENDMDL
MODEL 7
REMARK VINA RESULT:      -7.7      2.503      3.215
REMARK  Name = 
REMARK  9 active torsions:
REMARK  status: ('A' for Active; 'I' for Inactive)
REMARK    1  A    between atoms: C_1  and  O_2
REMARK    2  A    between atoms: O_2  and  C_3
REMARK    3  A    between atoms: C_6  and  C_7
REMARK    4  A    between atoms: C_7  and  C_8
REMARK    5  A    between atoms: C_9  and  C_10
REMARK    6  A    between atoms: C_18  and  N_19
REMARK    7  A    between atoms: N_19  and  C_20
REMARK    8  A    between atoms: C_23  and  N_24
REMARK    9  A    between atoms: N_27  and  C_28
REMARK                            x       y       z     vdW  Elec       q    Type
REMARK                         _______ _______ _______ _____ _____    ______ ____
ROOT
ATOM      1  C   UNL     1      -0.483  11.862  21.040  0.00  0.00    +0.000 A 
ATOM      2  C   UNL     1      -0.832  11.770  22.427  0.00  0.00    +0.000 A 
ATOM      3  N   UNL     1      -0.119  10.822  23.054  0.00  0.00    +0.000 NA
ATOM      4  N   UNL     1       0.567  10.229  22.067  0.00  0.00    +0.000 N 
ATOM      5  C   UNL     1       0.452  10.855  20.859  0.00  0.00    +0.000 A 
ATOM      6  H   UNL     1       1.109   9.398  22.274  0.00  0.00    +0.000 HD
ENDROOT
BRANCH   2   7
ATOM      7  C   UNL     1      -1.839  12.584  23.197  0.00  0.00    +0.000 A 
ATOM      8  C   UNL     1      -3.077  12.103  23.586  0.00  0.00    +0.000 A 
ATOM      9  C   UNL     1      -3.843  13.080  24.296  0.00  0.00    +0.000 A 
ATOM     10  C   UNL     1      -3.174  14.272  24.365  0.00  0.00    +0.000 A 
ATOM     11 CL   UNL     1      -3.728  15.731  25.080  0.00  0.00    +0.000 Cl
ATOM     12  S   UNL     1      -1.645  14.219  23.657  0.00  0.00    +0.000 S 
ENDBRANCH   2   7
BRANCH   5  13
ATOM     13  N   UNL     1       1.107  10.413  19.753  0.00  0.00    +0.000 N 
ATOM     14  H   UNL     1       1.691  11.064  19.235  0.00  0.00    +0.000 HD
BRANCH  13  15
ATOM     15  C   UNL     1       1.493   9.079  19.491  0.00  0.00    +0.000 A 
ATOM     16  C   UNL     1       1.442   8.140  20.520  0.00  0.00    +0.000 A 
ATOM     17  C   UNL     1       1.830   6.808  20.296  0.00  0.00    +0.000 A 
ATOM     18  C   UNL     1       2.252   6.349  19.037  0.00  0.00    +0.000 A 
ATOM     19  C   UNL     1       2.312   7.318  18.025  0.00  0.00    +0.000 A 
ATOM     20  C   UNL     1       1.948   8.654  18.245  0.00  0.00    +0.000 A 
BRANCH  18  21
ATOM     21  N   UNL     1       2.657   5.028  18.846  0.00  0.00    +0.000 N 
ATOM     22  C   UNL     1       1.768   3.946  19.331  0.00  0.00    +0.000 C 
ATOM     23  C   UNL     1       2.583   2.650  19.536  0.00  0.00    +0.000 C 
ATOM     24  N   UNL     1       3.246   2.202  18.292  0.00  0.00    +0.000 NA
ATOM     25  C   UNL     1       4.037   0.998  18.539  0.00  0.00    +0.000 C 
ATOM     26  C   UNL     1       4.107   3.295  17.790  0.00  0.00    +0.000 C 
ATOM     27  C   UNL     1       3.353   4.635  17.598  0.00  0.00    +0.000 C 
ENDBRANCH  18  21
ENDBRANCH  13  15
ENDBRANCH   5  13
BRANCH   1  28
ATOM     28  C   UNL     1      -0.906  12.879  20.034  0.00  0.00    +0.000 C 
BRANCH  28  32
ATOM     29  C   UNL     1      -4.661  11.563  18.318  0.00  0.00    +0.000 A 
ATOM     30  C   UNL     1      -3.445  11.243  17.713  0.00  0.00    +0.000 A 
ATOM     31  C   UNL     1      -2.245  11.683  18.277  0.00  0.00    +0.000 A 
ATOM     32  C   UNL     1      -2.237  12.485  19.433  0.00  0.00    +0.000 A 
ATOM     33  C   UNL     1      -3.471  12.812  20.012  0.00  0.00    +0.000 A 
ATOM     34  C   UNL     1      -4.670  12.365  19.453  0.00  0.00    +0.000 A 
BRANCH  29  36
ATOM     35  C   UNL     1      -6.821  10.683  18.602  0.00  0.00    +0.000 C 
ATOM     36  O   UNL     1      -5.779  11.064  17.707  0.00  0.00    +0.000 OA
ENDBRANCH  29  36
ENDBRANCH  28  32
ENDBRANCH   1  28
TORSDOF 7
ENDMDL
MODEL 8
REMARK VINA RESULT:      -7.6      1.726      2.262
REMARK  Name = 
REMARK  9 active torsions:
REMARK  status: ('A' for Active; 'I' for Inactive)
REMARK    1  A    between atoms: C_1  and  O_2
REMARK    2  A    between atoms: O_2  and  C_3
REMARK    3  A    between atoms: C_6  and  C_7
REMARK    4  A    between atoms: C_7  and  C_8
REMARK    5  A    between atoms: C_9  and  C_10
REMARK    6  A    between atoms: C_18  and  N_19
REMARK    7  A    between atoms: N_19  and  C_20
REMARK    8  A    between atoms: C_23  and  N_24
REMARK    9  A    between atoms: N_27  and  C_28
REMARK                            x       y       z     vdW  Elec       q    Type
REMARK                         _______ _______ _______ _____ _____    ______ ____
ROOT
ATOM      1  C   UNL     1      -1.746  12.300  21.243  0.00  0.00    +0.000 A 
ATOM      2  C   UNL     1      -2.614  12.150  22.374  0.00  0.00    +0.000 A 
ATOM      3  N   UNL     1      -2.016  11.479  23.370  0.00  0.00    +0.000 NA
ATOM      4  N   UNL     1      -0.849  11.089  22.840  0.00  0.00    +0.000 N 
ATOM      5  C   UNL     1      -0.598  11.614  21.605  0.00  0.00    +0.000 A 
ATOM      6  H   UNL     1      -0.251  10.464  23.370  0.00  0.00    +0.000 HD
ENDROOT
BRANCH   2   7
ATOM      7  C   UNL     1      -4.025  12.650  22.547  0.00  0.00    +0.000 A 
ATOM      8  C   UNL     1      -4.988  12.583  21.555  0.00  0.00    +0.000 A 
ATOM      9  C   UNL     1      -6.240  13.133  21.973  0.00  0.00    +0.000 A 
ATOM     10  C   UNL     1      -6.153  13.641  23.241  0.00  0.00    +0.000 A 
ATOM     11 CL   UNL     1      -7.392  14.435  24.125  0.00  0.00    +0.000 Cl
ATOM     12  S   UNL     1      -4.638  13.417  23.946  0.00  0.00    +0.000 S 
ENDBRANCH   2   7
BRANCH   5  13
ATOM     13  N   UNL     1       0.554  11.354  20.932  0.00  0.00    +0.000 N 
ATOM     14  H   UNL     1       1.342  11.988  21.042  0.00  0.00    +0.000 HD
BRANCH  13  15
ATOM     15  C   UNL     1       0.993  10.086  20.491  0.00  0.00    +0.000 A 
ATOM     16  C   UNL     1       1.080   9.038  21.407  0.00  0.00    +0.000 A 
ATOM     17  C   UNL     1       1.524   7.767  21.003  0.00  0.00    +0.000 A 
ATOM     18  C   UNL     1       1.868   7.478  19.672  0.00  0.00    +0.000 A 
ATOM     19  C   UNL     1       1.789   8.553  18.775  0.00  0.00    +0.000 A 
ATOM     20  C   UNL     1       1.369   9.830  19.174  0.00  0.00    +0.000 A 
BRANCH  18  21
ATOM     21  N   UNL     1       2.331   6.215  19.301  0.00  0.00    +0.000 N 
ATOM     22  C   UNL     1       3.396   6.134  18.274  0.00  0.00    +0.000 C 
ATOM     23  C   UNL     1       3.383   4.735  17.615  0.00  0.00    +0.000 C 
ATOM     24  N   UNL     1       3.587   3.651  18.601  0.00  0.00    +0.000 NA
ATOM     25  C   UNL     1       3.528   2.346  17.945  0.00  0.00    +0.000 C 
ATOM     26  C   UNL     1       2.544   3.754  19.645  0.00  0.00    +0.000 C 
ATOM     27  C   UNL     1       2.481   5.149  20.318  0.00  0.00    +0.000 C 
ENDBRANCH  18  21
ENDBRANCH  13  15
ENDBRANCH   5  13
BRANCH   1  28
ATOM     28  C   UNL     1      -1.950  13.112  20.009  0.00  0.00    +0.000 C 
BRANCH  28  32
ATOM     29  C   UNL     1      -3.080  10.412  16.814  0.00  0.00    +0.000 A 
ATOM     30  C   UNL     1      -1.748  10.780  17.005  0.00  0.00    +0.000 A 
ATOM     31  C   UNL     1      -1.404  11.658  18.035  0.00  0.00    +0.000 A 
ATOM     32  C   UNL     1      -2.388  12.218  18.870  0.00  0.00    +0.000 A 
ATOM     33  C   UNL     1      -3.722  11.851  18.647  0.00  0.00    +0.000 A 
ATOM     34  C   UNL     1      -4.065  10.967  17.623  0.00  0.00    +0.000 A 
BRANCH  29  36
ATOM     35  C   UNL     1      -3.256  10.099  14.492  0.00  0.00    +0.000 C 
ATOM     36  O   UNL     1      -3.314   9.527  15.797  0.00  0.00    +0.000 OA
ENDBRANCH  29  36
ENDBRANCH  28  32
ENDBRANCH   1  28
TORSDOF 7
ENDMDL
MODEL 9
REMARK VINA RESULT:      -7.6      1.806      2.310
REMARK  Name = 
REMARK  9 active torsions:
REMARK  status: ('A' for Active; 'I' for Inactive)
REMARK    1  A    between atoms: C_1  and  O_2
REMARK    2  A    between atoms: O_2  and  C_3
REMARK    3  A    between atoms: C_6  and  C_7
REMARK    4  A    between atoms: C_7  and  C_8
REMARK    5  A    between atoms: C_9  and  C_10
REMARK    6  A    between atoms: C_18  and  N_19
REMARK    7  A    between atoms: N_19  and  C_20
REMARK    8  A    between atoms: C_23  and  N_24
REMARK    9  A    between atoms: N_27  and  C_28
REMARK                            x       y       z     vdW  Elec       q    Type
REMARK                         _______ _______ _______ _____ _____    ______ ____
ROOT
ATOM      1  C   UNL     1      -1.308  11.967  21.091  0.00  0.00    +0.000 A 
ATOM      2  C   UNL     1      -2.153  11.967  22.249  0.00  0.00    +0.000 A 
ATOM      3  N   UNL     1      -1.584  11.314  23.274  0.00  0.00    +0.000 NA
ATOM      4  N   UNL     1      -0.470  10.791  22.745  0.00  0.00    +0.000 N 
ATOM      5  C   UNL     1      -0.211  11.211  21.471  0.00  0.00    +0.000 A 
ATOM      6  H   UNL     1       0.089  10.154  23.301  0.00  0.00    +0.000 HD
ENDROOT
BRANCH   2   7
ATOM      7  C   UNL     1      -3.512  12.595  22.421  0.00  0.00    +0.000 A 
ATOM      8  C   UNL     1      -4.521  12.506  21.478  0.00  0.00    +0.000 A 
ATOM      9  C   UNL     1      -5.706  13.197  21.881  0.00  0.00    +0.000 A 
ATOM     10  C   UNL     1      -5.522  13.823  23.085  0.00  0.00    +0.000 A 
ATOM     11 CL   UNL     1      -6.655  14.800  23.927  0.00  0.00    +0.000 Cl
ATOM     12  S   UNL     1      -3.999  13.548  23.753  0.00  0.00    +0.000 S 
ENDBRANCH   2   7
BRANCH   5  13
ATOM     13  N   UNL     1       0.895  10.811  20.791  0.00  0.00    +0.000 N 
ATOM     14  H   UNL     1       1.721  11.405  20.803  0.00  0.00    +0.000 HD
BRANCH  13  15
ATOM     15  C   UNL     1       1.243   9.478  20.478  0.00  0.00    +0.000 A 
ATOM     16  C   UNL     1       1.769   9.188  19.220  0.00  0.00    +0.000 A 
ATOM     17  C   UNL     1       2.116   7.871  18.873  0.00  0.00    +0.000 A 
ATOM     18  C   UNL     1       1.984   6.797  19.769  0.00  0.00    +0.000 A 
ATOM     19  C   UNL     1       1.435   7.113  21.021  0.00  0.00    +0.000 A 
ATOM     20  C   UNL     1       1.066   8.420  21.367  0.00  0.00    +0.000 A 
BRANCH  18  21
ATOM     21  N   UNL     1       2.310   5.494  19.392  0.00  0.00    +0.000 N 
ATOM     22  C   UNL     1       2.235   4.429  20.419  0.00  0.00    +0.000 C 
ATOM     23  C   UNL     1       3.121   3.234  20.000  0.00  0.00    +0.000 C 
ATOM     24  N   UNL     1       2.717   2.668  18.694  0.00  0.00    +0.000 NA
ATOM     25  C   UNL     1       3.604   1.568  18.318  0.00  0.00    +0.000 C 
ATOM     26  C   UNL     1       2.758   3.740  17.677  0.00  0.00    +0.000 C 
ATOM     27  C   UNL     1       1.917   4.985  18.058  0.00  0.00    +0.000 C 
ENDBRANCH  18  21
ENDBRANCH  13  15
ENDBRANCH   5  13
BRANCH   1  28
ATOM     28  C   UNL     1      -1.479  12.712  19.810  0.00  0.00    +0.000 C 
BRANCH  28  32
ATOM     29  C   UNL     1      -2.928  10.181  16.605  0.00  0.00    +0.000 A 
ATOM     30  C   UNL     1      -3.738  11.173  17.158  0.00  0.00    +0.000 A 
ATOM     31  C   UNL     1      -3.256  11.974  18.196  0.00  0.00    +0.000 A 
ATOM     32  C   UNL     1      -1.971  11.774  18.730  0.00  0.00    +0.000 A 
ATOM     33  C   UNL     1      -1.182  10.757  18.174  0.00  0.00    +0.000 A 
ATOM     34  C   UNL     1      -1.660   9.962  17.132  0.00  0.00    +0.000 A 
BRANCH  29  36
ATOM     35  C   UNL     1      -3.425  10.119  14.310  0.00  0.00    +0.000 C 
ATOM     36  O   UNL     1      -3.479   9.467  15.576  0.00  0.00    +0.000 OA
ENDBRANCH  29  36
ENDBRANCH  28  32
ENDBRANCH   1  28
TORSDOF 7
ENDMDL
