MODEL 1
REMARK VINA RESULT:      -7.5      0.000      0.000
REMARK  Name = 
REMARK  5 active torsions:
REMARK  status: ('A' for Active; 'I' for Inactive)
REMARK    1  A    between atoms: C_1  and  C_2
REMARK    2  A    between atoms: C_5  and  N_6
REMARK    3  A    between atoms: C_11  and  C_12
REMARK    4  A    between atoms: N_14  and  C_15
REMARK    5  A    between atoms: C_15  and  C_16
REMARK                            x       y       z     vdW  Elec       q    Type
REMARK                         _______ _______ _______ _____ _____    ______ ____
ROOT
ATOM      1  N   UNL     1       2.799   6.362  18.452  0.00  0.00    +0.000 N 
ATOM      2  C   UNL     1       2.107   5.522  19.456  0.00  0.00    +0.000 C 
ATOM      3  C   UNL     1       1.883   6.317  20.760  0.00  0.00    +0.000 C 
ATOM      4  C   UNL     1       1.209   7.642  20.436  0.00  0.00    +0.000 C 
ATOM      5  C   UNL     1       1.060   8.694  21.511  0.00  0.00    +0.000 C 
ATOM      6  C   UNL     1       0.986   9.993  20.689  0.00  0.00    +0.000 C 
ATOM      7  O   UNL     1       1.400   9.674  19.341  0.00  0.00    +0.000 OA
ATOM      8  C   UNL     1       2.051   8.413  19.445  0.00  0.00    +0.000 C 
ATOM      9  C   UNL     1       2.161   7.647  18.147  0.00  0.00    +0.000 C 
ENDROOT
BRANCH   1  14
ATOM     10  C   UNL     1       6.459   4.057  14.689  0.00  0.00    +0.000 C 
ATOM     11  C   UNL     1       5.530   4.656  15.696  0.00  0.00    +0.000 A 
ATOM     12  C   UNL     1       5.489   6.028  15.882  0.00  0.00    +0.000 A 
ATOM     13  C   UNL     1       4.564   6.588  16.767  0.00  0.00    +0.000 A 
ATOM     14  C   UNL     1       3.671   5.811  17.527  0.00  0.00    +0.000 A 
ATOM     15  C   UNL     1       3.760   4.431  17.354  0.00  0.00    +0.000 A 
ATOM     16  C   UNL     1       4.655   3.870  16.444  0.00  0.00    +0.000 A 
ENDBRANCH   1  14
BRANCH   6  17
ATOM     17  C   UNL     1      -0.410  10.614  20.689  0.00  0.00    +0.000 C 
ATOM     18  O   UNL     1      -0.995  10.900  21.736  0.00  0.00    +0.000 OA
ATOM     19  N   UNL     1      -0.974  10.776  19.440  0.00  0.00    +0.000 N 
ATOM     20  H   UNL     1      -0.335  10.741  18.650  0.00  0.00    +0.000 HD
BRANCH  19  21
ATOM     21  C   UNL     1      -2.168  11.570  19.291  0.00  0.00    +0.000 C 
BRANCH  21  22
ATOM     22  C   UNL     1      -2.817  11.274  17.995  0.00  0.00    +0.000 A 
ATOM     23  C   UNL     1      -2.415  10.545  16.894  0.00  0.00    +0.000 A 
ATOM     24  C   UNL     1      -3.482  10.596  15.968  0.00  0.00    +0.000 A 
ATOM     25  C   UNL     1      -4.468  11.350  16.562  0.00  0.00    +0.000 A 
ATOM     26  O   UNL     1      -4.075  11.766  17.794  0.00  0.00    +0.000 OA
ENDBRANCH  21  22
ENDBRANCH  19  21
ENDBRANCH   6  17
TORSDOF 4
ENDMDL
MODEL 2
REMARK VINA RESULT:      -7.4      1.176      1.601
REMARK  Name = 
REMARK  5 active torsions:
REMARK  status: ('A' for Active; 'I' for Inactive)
REMARK    1  A    between atoms: C_1  and  C_2
REMARK    2  A    between atoms: C_5  and  N_6
REMARK    3  A    between atoms: C_11  and  C_12
REMARK    4  A    between atoms: N_14  and  C_15
REMARK    5  A    between atoms: C_15  and  C_16
REMARK                            x       y       z     vdW  Elec       q    Type
REMARK                         _______ _______ _______ _____ _____    ______ ____
ROOT
ATOM      1  N   UNL     1       2.710   7.195  18.435  0.00  0.00    +0.000 N 
ATOM      2  C   UNL     1       1.927   6.687  19.583  0.00  0.00    +0.000 C 
ATOM      3  C   UNL     1       1.680   7.816  20.608  0.00  0.00    +0.000 C 
ATOM      4  C   UNL     1       1.092   9.025  19.897  0.00  0.00    +0.000 C 
ATOM      5  C   UNL     1       0.945  10.335  20.636  0.00  0.00    +0.000 C 
ATOM      6  C   UNL     1       0.978  11.363  19.490  0.00  0.00    +0.000 C 
ATOM      7  O   UNL     1       1.440  10.672  18.306  0.00  0.00    +0.000 OA
ATOM      8  C   UNL     1       2.020   9.466  18.787  0.00  0.00    +0.000 C 
ATOM      9  C   UNL     1       2.155   8.371  17.755  0.00  0.00    +0.000 C 
ENDROOT
BRANCH   1  14
ATOM     10  C   UNL     1       6.331   3.841  15.518  0.00  0.00    +0.000 C 
ATOM     11  C   UNL     1       5.363   4.714  16.251  0.00  0.00    +0.000 A 
ATOM     12  C   UNL     1       4.410   4.154  17.086  0.00  0.00    +0.000 A 
ATOM     13  C   UNL     1       3.559   4.978  17.829  0.00  0.00    +0.000 A 
ATOM     14  C   UNL     1       3.597   6.382  17.748  0.00  0.00    +0.000 A 
ATOM     15  C   UNL     1       4.535   6.919  16.870  0.00  0.00    +0.000 A 
ATOM     16  C   UNL     1       5.412   6.104  16.155  0.00  0.00    +0.000 A 
ENDBRANCH   1  14
BRANCH   6  17
ATOM     17  C   UNL     1      -0.383  12.010  19.237  0.00  0.00    +0.000 C 
ATOM     18  O   UNL     1      -0.498  13.217  19.016  0.00  0.00    +0.000 OA
ATOM     19  N   UNL     1      -1.461  11.152  19.328  0.00  0.00    +0.000 N 
ATOM     20  H   UNL     1      -1.250  10.158  19.271  0.00  0.00    +0.000 HD
BRANCH  19  21
ATOM     21  C   UNL     1      -2.758  11.582  18.870  0.00  0.00    +0.000 C 
BRANCH  21  22
ATOM     22  C   UNL     1      -3.008  11.077  17.501  0.00  0.00    +0.000 A 
ATOM     23  C   UNL     1      -2.406  10.089  16.747  0.00  0.00    +0.000 A 
ATOM     24  C   UNL     1      -3.107  10.042  15.519  0.00  0.00    +0.000 A 
ATOM     25  C   UNL     1      -4.090  11.000  15.602  0.00  0.00    +0.000 A 
ATOM     26  O   UNL     1      -4.040  11.635  16.803  0.00  0.00    +0.000 OA
ENDBRANCH  21  22
ENDBRANCH  19  21
ENDBRANCH   6  17
TORSDOF 4
ENDMDL
MODEL 3
REMARK VINA RESULT:      -7.3      3.071      8.833
REMARK  Name = 
REMARK  5 active torsions:
REMARK  status: ('A' for Active; 'I' for Inactive)
REMARK    1  A    between atoms: C_1  and  C_2
REMARK    2  A    between atoms: C_5  and  N_6
REMARK    3  A    between atoms: C_11  and  C_12
REMARK    4  A    between atoms: N_14  and  C_15
REMARK    5  A    between atoms: C_15  and  C_16
REMARK                            x       y       z     vdW  Elec       q    Type
REMARK                         _______ _______ _______ _____ _____    ______ ____
ROOT
ATOM      1  N   UNL     1       1.196   8.556  19.929  0.00  0.00    +0.000 N 
ATOM      2  C   UNL     1       1.442   7.728  21.132  0.00  0.00    +0.000 C 
ATOM      3  C   UNL     1       1.621   6.246  20.738  0.00  0.00    +0.000 C 
ATOM      4  C   UNL     1       2.669   6.137  19.640  0.00  0.00    +0.000 C 
ATOM      5  C   UNL     1       2.886   4.818  18.936  0.00  0.00    +0.000 C 
ATOM      6  C   UNL     1       3.453   5.262  17.575  0.00  0.00    +0.000 C 
ATOM      7  O   UNL     1       3.229   6.687  17.461  0.00  0.00    +0.000 OA
ATOM      8  C   UNL     1       2.261   6.988  18.459  0.00  0.00    +0.000 C 
ATOM      9  C   UNL     1       2.196   8.442  18.862  0.00  0.00    +0.000 C 
ENDROOT
BRANCH   1  14
ATOM     10  C   UNL     1      -2.032  13.289  20.128  0.00  0.00    +0.000 C 
ATOM     11  C   UNL     1      -1.161  12.075  20.078  0.00  0.00    +0.000 A 
ATOM     12  C   UNL     1      -0.747  11.461  21.248  0.00  0.00    +0.000 A 
ATOM     13  C   UNL     1       0.001  10.282  21.194  0.00  0.00    +0.000 A 
ATOM     14  C   UNL     1       0.399   9.688  19.982  0.00  0.00    +0.000 A 
ATOM     15  C   UNL     1       0.007  10.347  18.819  0.00  0.00    +0.000 A 
ATOM     16  C   UNL     1      -0.772  11.502  18.867  0.00  0.00    +0.000 A 
ENDBRANCH   1  14
BRANCH   6  17
ATOM     17  C   UNL     1       4.938   4.939  17.419  0.00  0.00    +0.000 C 
ATOM     18  O   UNL     1       5.485   4.056  18.083  0.00  0.00    +0.000 OA
ATOM     19  N   UNL     1       5.617   5.741  16.525  0.00  0.00    +0.000 N 
ATOM     20  H   UNL     1       5.045   6.262  15.863  0.00  0.00    +0.000 HD
BRANCH  19  21
ATOM     21  C   UNL     1       6.949   5.380  16.107  0.00  0.00    +0.000 C 
BRANCH  21  22
ATOM     22  C   UNL     1       6.926   4.868  14.719  0.00  0.00    +0.000 A 
ATOM     23  C   UNL     1       6.165   3.901  14.094  0.00  0.00    +0.000 A 
ATOM     24  C   UNL     1       6.579   3.879  12.742  0.00  0.00    +0.000 A 
ATOM     25  C   UNL     1       7.563   4.833  12.627  0.00  0.00    +0.000 A 
ATOM     26  O   UNL     1       7.782   5.441  13.822  0.00  0.00    +0.000 OA
ENDBRANCH  21  22
ENDBRANCH  19  21
ENDBRANCH   6  17
TORSDOF 4
ENDMDL
MODEL 4
REMARK VINA RESULT:      -7.2      2.904      8.920
REMARK  Name = 
REMARK  5 active torsions:
REMARK  status: ('A' for Active; 'I' for Inactive)
REMARK    1  A    between atoms: C_1  and  C_2
REMARK    2  A    between atoms: C_5  and  N_6
REMARK    3  A    between atoms: C_11  and  C_12
REMARK    4  A    between atoms: N_14  and  C_15
REMARK    5  A    between atoms: C_15  and  C_16
REMARK                            x       y       z     vdW  Elec       q    Type
REMARK                         _______ _______ _______ _____ _____    ______ ____
ROOT
ATOM      1  N   UNL     1       0.992   8.845  19.987  0.00  0.00    +0.000 N 
ATOM      2  C   UNL     1       1.294   8.043  21.193  0.00  0.00    +0.000 C 
ATOM      3  C   UNL     1       1.574   6.574  20.807  0.00  0.00    +0.000 C 
ATOM      4  C   UNL     1       2.627   6.532  19.709  0.00  0.00    +0.000 C 
ATOM      5  C   UNL     1       2.934   5.227  19.011  0.00  0.00    +0.000 C 
ATOM      6  C   UNL     1       3.468   5.702  17.648  0.00  0.00    +0.000 C 
ATOM      7  O   UNL     1       3.148   7.107  17.527  0.00  0.00    +0.000 OA
ATOM      8  C   UNL     1       2.161   7.346  18.524  0.00  0.00    +0.000 C 
ATOM      9  C   UNL     1       1.997   8.795  18.919  0.00  0.00    +0.000 C 
ENDROOT
BRANCH   1  14
ATOM     10  C   UNL     1      -2.684  13.239  20.215  0.00  0.00    +0.000 C 
ATOM     11  C   UNL     1      -1.752  12.070  20.160  0.00  0.00    +0.000 A 
ATOM     12  C   UNL     1      -1.470  11.457  18.950  0.00  0.00    +0.000 A 
ATOM     13  C   UNL     1      -0.539  10.416  18.893  0.00  0.00    +0.000 A 
ATOM     14  C   UNL     1       0.119   9.920  20.034  0.00  0.00    +0.000 A 
ATOM     15  C   UNL     1      -0.215  10.524  21.244  0.00  0.00    +0.000 A 
ATOM     16  C   UNL     1      -1.114  11.588  21.301  0.00  0.00    +0.000 A 
ENDBRANCH   1  14
BRANCH   6  17
ATOM     17  C   UNL     1       4.973   5.480  17.493  0.00  0.00    +0.000 C 
ATOM     18  O   UNL     1       5.720   5.382  18.468  0.00  0.00    +0.000 OA
ATOM     19  N   UNL     1       5.425   5.453  16.189  0.00  0.00    +0.000 N 
ATOM     20  H   UNL     1       4.720   5.300  15.472  0.00  0.00    +0.000 HD
BRANCH  19  21
ATOM     21  C   UNL     1       6.766   5.008  15.906  0.00  0.00    +0.000 C 
BRANCH  21  22
ATOM     22  C   UNL     1       6.917   4.737  14.459  0.00  0.00    +0.000 A 
ATOM     23  C   UNL     1       6.294   3.849  13.605  0.00  0.00    +0.000 A 
ATOM     24  C   UNL     1       6.839   4.079  12.321  0.00  0.00    +0.000 A 
ATOM     25  C   UNL     1       7.757   5.091  12.471  0.00  0.00    +0.000 A 
ATOM     26  O   UNL     1       7.813   5.500  13.766  0.00  0.00    +0.000 OA
ENDBRANCH  21  22
ENDBRANCH  19  21
ENDBRANCH   6  17
TORSDOF 4
ENDMDL
MODEL 5
REMARK VINA RESULT:      -7.2      2.934      4.735
REMARK  Name = 
REMARK  5 active torsions:
REMARK  status: ('A' for Active; 'I' for Inactive)
REMARK    1  A    between atoms: C_1  and  C_2
REMARK    2  A    between atoms: C_5  and  N_6
REMARK    3  A    between atoms: C_11  and  C_12
REMARK    4  A    between atoms: N_14  and  C_15
REMARK    5  A    between atoms: C_15  and  C_16
REMARK                            x       y       z     vdW  Elec       q    Type
REMARK                         _______ _______ _______ _____ _____    ______ ____
ROOT
ATOM      1  N   UNL     1       0.255   9.541  20.738  0.00  0.00    +0.000 N 
ATOM      2  C   UNL     1      -0.170   8.993  22.046  0.00  0.00    +0.000 C 
ATOM      3  C   UNL     1      -0.455  10.138  23.042  0.00  0.00    +0.000 C 
ATOM      4  C   UNL     1      -1.411  11.135  22.406  0.00  0.00    +0.000 C 
ATOM      5  C   UNL     1      -1.692  12.451  23.094  0.00  0.00    +0.000 C 
ATOM      6  C   UNL     1      -2.096  13.357  21.917  0.00  0.00    +0.000 C 
ATOM      7  O   UNL     1      -1.729  12.668  20.699  0.00  0.00    +0.000 OA
ATOM      8  C   UNL     1      -0.825  11.650  21.112  0.00  0.00    +0.000 C 
ATOM      9  C   UNL     1      -0.656  10.516  20.128  0.00  0.00    +0.000 C 
ENDROOT
BRANCH   1  14
ATOM     10  C   UNL     1       3.887   6.699  17.332  0.00  0.00    +0.000 C 
ATOM     11  C   UNL     1       2.912   7.421  18.207  0.00  0.00    +0.000 A 
ATOM     12  C   UNL     1       2.613   6.936  19.470  0.00  0.00    +0.000 A 
ATOM     13  C   UNL     1       1.763   7.656  20.313  0.00  0.00    +0.000 A 
ATOM     14  C   UNL     1       1.149   8.862  19.926  0.00  0.00    +0.000 A 
ATOM     15  C   UNL     1       1.432   9.306  18.637  0.00  0.00    +0.000 A 
ATOM     16  C   UNL     1       2.310   8.612  17.806  0.00  0.00    +0.000 A 
ENDBRANCH   1  14
BRANCH   6  17
ATOM     17  C   UNL     1      -3.587  13.694  21.914  0.00  0.00    +0.000 C 
ATOM     18  O   UNL     1      -3.994  14.839  21.709  0.00  0.00    +0.000 OA
ATOM     19  N   UNL     1      -4.423  12.636  22.207  0.00  0.00    +0.000 N 
ATOM     20  H   UNL     1      -4.019  11.706  22.120  0.00  0.00    +0.000 HD
BRANCH  19  21
ATOM     21  C   UNL     1      -5.842  12.764  21.993  0.00  0.00    +0.000 C 
BRANCH  21  22
ATOM     22  C   UNL     1      -6.253  11.966  20.816  0.00  0.00    +0.000 A 
ATOM     23  C   UNL     1      -6.043  12.125  19.461  0.00  0.00    +0.000 A 
ATOM     24  C   UNL     1      -6.654  11.017  18.829  0.00  0.00    +0.000 A 
ATOM     25  C   UNL     1      -7.196  10.253  19.837  0.00  0.00    +0.000 A 
ATOM     26  O   UNL     1      -6.958  10.820  21.048  0.00  0.00    +0.000 OA
ENDBRANCH  21  22
ENDBRANCH  19  21
ENDBRANCH   6  17
TORSDOF 4
ENDMDL
MODEL 6
REMARK VINA RESULT:      -7.2      1.423      1.646
REMARK  Name = 
REMARK  5 active torsions:
REMARK  status: ('A' for Active; 'I' for Inactive)
REMARK    1  A    between atoms: C_1  and  C_2
REMARK    2  A    between atoms: C_5  and  N_6
REMARK    3  A    between atoms: C_11  and  C_12
REMARK    4  A    between atoms: N_14  and  C_15
REMARK    5  A    between atoms: C_15  and  C_16
REMARK                            x       y       z     vdW  Elec       q    Type
REMARK                         _______ _______ _______ _____ _____    ______ ____
ROOT
ATOM      1  N   UNL     1       2.861   7.444  18.588  0.00  0.00    +0.000 N 
ATOM      2  C   UNL     1       1.995   6.924  19.670  0.00  0.00    +0.000 C 
ATOM      3  C   UNL     1       1.586   8.065  20.627  0.00  0.00    +0.000 C 
ATOM      4  C   UNL     1       1.008   9.218  19.821  0.00  0.00    +0.000 C 
ATOM      5  C   UNL     1       0.717  10.538  20.498  0.00  0.00    +0.000 C 
ATOM      6  C   UNL     1       0.810  11.533  19.328  0.00  0.00    +0.000 C 
ATOM      7  O   UNL     1       1.424  10.838  18.219  0.00  0.00    +0.000 OA
ATOM      8  C   UNL     1       2.017   9.680  18.795  0.00  0.00    +0.000 C 
ATOM      9  C   UNL     1       2.313   8.567  17.818  0.00  0.00    +0.000 C 
ENDROOT
BRANCH   1  14
ATOM     10  C   UNL     1       7.030   4.250  16.289  0.00  0.00    +0.000 C 
ATOM     11  C   UNL     1       5.968   5.104  16.904  0.00  0.00    +0.000 A 
ATOM     12  C   UNL     1       5.489   6.218  16.233  0.00  0.00    +0.000 A 
ATOM     13  C   UNL     1       4.442   6.966  16.777  0.00  0.00    +0.000 A 
ATOM     14  C   UNL     1       3.854   6.663  18.019  0.00  0.00    +0.000 A 
ATOM     15  C   UNL     1       4.381   5.564  18.694  0.00  0.00    +0.000 A 
ATOM     16  C   UNL     1       5.400   4.791  18.138  0.00  0.00    +0.000 A 
ENDBRANCH   1  14
BRANCH   6  17
ATOM     17  C   UNL     1      -0.552  12.095  18.920  0.00  0.00    +0.000 C 
ATOM     18  O   UNL     1      -0.676  13.232  18.462  0.00  0.00    +0.000 OA
ATOM     19  N   UNL     1      -1.621  11.254  19.153  0.00  0.00    +0.000 N 
ATOM     20  H   UNL     1      -1.398  10.272  19.299  0.00  0.00    +0.000 HD
BRANCH  19  21
ATOM     21  C   UNL     1      -2.912  11.563  18.590  0.00  0.00    +0.000 C 
BRANCH  21  22
ATOM     22  C   UNL     1      -3.033  10.968  17.240  0.00  0.00    +0.000 A 
ATOM     23  C   UNL     1      -2.364   9.937  16.611  0.00  0.00    +0.000 A 
ATOM     24  C   UNL     1      -2.947   9.804  15.330  0.00  0.00    +0.000 A 
ATOM     25  C   UNL     1      -3.934  10.760  15.258  0.00  0.00    +0.000 A 
ATOM     26  O   UNL     1      -3.996  11.472  16.414  0.00  0.00    +0.000 OA
ENDBRANCH  21  22
ENDBRANCH  19  21
ENDBRANCH   6  17
TORSDOF 4
ENDMDL
MODEL 7
REMARK VINA RESULT:      -7.1      3.320      8.680
REMARK  Name = 
REMARK  5 active torsions:
REMARK  status: ('A' for Active; 'I' for Inactive)
REMARK    1  A    between atoms: C_1  and  C_2
REMARK    2  A    between atoms: C_5  and  N_6
REMARK    3  A    between atoms: C_11  and  C_12
REMARK    4  A    between atoms: N_14  and  C_15
REMARK    5  A    between atoms: C_15  and  C_16
REMARK                            x       y       z     vdW  Elec       q    Type
REMARK                         _______ _______ _______ _____ _____    ______ ____
ROOT
ATOM      1  N   UNL     1       1.433   8.657  19.736  0.00  0.00    +0.000 N 
ATOM      2  C   UNL     1       1.549   7.910  21.009  0.00  0.00    +0.000 C 
ATOM      3  C   UNL     1       1.437   6.391  20.753  0.00  0.00    +0.000 C 
ATOM      4  C   UNL     1       2.419   5.988  19.663  0.00  0.00    +0.000 C 
ATOM      5  C   UNL     1       2.368   4.593  19.083  0.00  0.00    +0.000 C 
ATOM      6  C   UNL     1       2.974   4.798  17.683  0.00  0.00    +0.000 C 
ATOM      7  O   UNL     1       3.019   6.223  17.438  0.00  0.00    +0.000 OA
ATOM      8  C   UNL     1       2.149   6.790  18.411  0.00  0.00    +0.000 C 
ATOM      9  C   UNL     1       2.368   8.261  18.677  0.00  0.00    +0.000 C 
ENDROOT
BRANCH   1  14
ATOM     10  C   UNL     1      -0.989  13.848  19.491  0.00  0.00    +0.000 C 
ATOM     11  C   UNL     1      -0.378  12.483  19.528  0.00  0.00    +0.000 A 
ATOM     12  C   UNL     1       0.728  12.190  18.747  0.00  0.00    +0.000 A 
ATOM     13  C   UNL     1       1.342  10.938  18.845  0.00  0.00    +0.000 A 
ATOM     14  C   UNL     1       0.864   9.919  19.689  0.00  0.00    +0.000 A 
ATOM     15  C   UNL     1      -0.275  10.224  20.432  0.00  0.00    +0.000 A 
ATOM     16  C   UNL     1      -0.868  11.484  20.367  0.00  0.00    +0.000 A 
ENDBRANCH   1  14
BRANCH   6  17
ATOM     17  C   UNL     1       4.368   4.187  17.547  0.00  0.00    +0.000 C 
ATOM     18  O   UNL     1       4.570   2.983  17.720  0.00  0.00    +0.000 OA
ATOM     19  N   UNL     1       5.375   5.090  17.271  0.00  0.00    +0.000 N 
ATOM     20  H   UNL     1       5.080   5.996  16.912  0.00  0.00    +0.000 HD
BRANCH  19  21
ATOM     21  C   UNL     1       6.676   4.612  16.877  0.00  0.00    +0.000 C 
BRANCH  21  22
ATOM     22  C   UNL     1       6.760   4.521  15.402  0.00  0.00    +0.000 A 
ATOM     23  C   UNL     1       6.037   3.806  14.468  0.00  0.00    +0.000 A 
ATOM     24  C   UNL     1       6.560   4.156  13.203  0.00  0.00    +0.000 A 
ATOM     25  C   UNL     1       7.567   5.062  13.443  0.00  0.00    +0.000 A 
ATOM     26  O   UNL     1       7.697   5.292  14.776  0.00  0.00    +0.000 OA
ENDBRANCH  21  22
ENDBRANCH  19  21
ENDBRANCH   6  17
TORSDOF 4
ENDMDL
MODEL 8
REMARK VINA RESULT:      -7.1      2.368      3.428
REMARK  Name = 
REMARK  5 active torsions:
REMARK  status: ('A' for Active; 'I' for Inactive)
REMARK    1  A    between atoms: C_1  and  C_2
REMARK    2  A    between atoms: C_5  and  N_6
REMARK    3  A    between atoms: C_11  and  C_12
REMARK    4  A    between atoms: N_14  and  C_15
REMARK    5  A    between atoms: C_15  and  C_16
REMARK                            x       y       z     vdW  Elec       q    Type
REMARK                         _______ _______ _______ _____ _____    ______ ____
ROOT
ATOM      1  N   UNL     1       2.351   7.460  18.779  0.00  0.00    +0.000 N 
ATOM      2  C   UNL     1       1.750   7.034  20.063  0.00  0.00    +0.000 C 
ATOM      3  C   UNL     1       1.564   8.249  20.999  0.00  0.00    +0.000 C 
ATOM      4  C   UNL     1       0.819   9.349  20.258  0.00  0.00    +0.000 C 
ATOM      5  C   UNL     1       0.685  10.719  20.882  0.00  0.00    +0.000 C 
ATOM      6  C   UNL     1       0.513  11.625  19.650  0.00  0.00    +0.000 C 
ATOM      7  O   UNL     1       0.865  10.841  18.487  0.00  0.00    +0.000 OA
ATOM      8  C   UNL     1       1.573   9.719  19.001  0.00  0.00    +0.000 C 
ATOM      9  C   UNL     1       1.645   8.532  18.068  0.00  0.00    +0.000 C 
ENDROOT
BRANCH   1  14
ATOM     10  C   UNL     1       5.793   4.025  15.743  0.00  0.00    +0.000 C 
ATOM     11  C   UNL     1       4.873   4.922  16.507  0.00  0.00    +0.000 A 
ATOM     12  C   UNL     1       3.849   4.388  17.271  0.00  0.00    +0.000 A 
ATOM     13  C   UNL     1       3.042   5.226  18.045  0.00  0.00    +0.000 A 
ATOM     14  C   UNL     1       3.194   6.625  18.063  0.00  0.00    +0.000 A 
ATOM     15  C   UNL     1       4.202   7.142  17.253  0.00  0.00    +0.000 A 
ATOM     16  C   UNL     1       5.036   6.307  16.509  0.00  0.00    +0.000 A 
ENDBRANCH   1  14
BRANCH   6  17
ATOM     17  C   UNL     1      -0.907  12.176  19.515  0.00  0.00    +0.000 C 
ATOM     18  O   UNL     1      -1.391  12.461  18.418  0.00  0.00    +0.000 OA
ATOM     19  N   UNL     1      -1.570  12.374  20.708  0.00  0.00    +0.000 N 
ATOM     20  H   UNL     1      -1.190  11.891  21.520  0.00  0.00    +0.000 HD
BRANCH  19  21
ATOM     21  C   UNL     1      -2.985  12.650  20.704  0.00  0.00    +0.000 C 
BRANCH  21  22
ATOM     22  C   UNL     1      -3.509  12.638  22.088  0.00  0.00    +0.000 A 
ATOM     23  C   UNL     1      -2.951  12.267  23.295  0.00  0.00    +0.000 A 
ATOM     24  C   UNL     1      -3.933  12.512  24.282  0.00  0.00    +0.000 A 
ATOM     25  C   UNL     1      -5.026  13.017  23.617  0.00  0.00    +0.000 A 
ATOM     26  O   UNL     1      -4.779  13.100  22.283  0.00  0.00    +0.000 OA
ENDBRANCH  21  22
ENDBRANCH  19  21
ENDBRANCH   6  17
TORSDOF 4
ENDMDL
MODEL 9
REMARK VINA RESULT:      -7.0      2.213      3.136
REMARK  Name = 
REMARK  5 active torsions:
REMARK  status: ('A' for Active; 'I' for Inactive)
REMARK    1  A    between atoms: C_1  and  C_2
REMARK    2  A    between atoms: C_5  and  N_6
REMARK    3  A    between atoms: C_11  and  C_12
REMARK    4  A    between atoms: N_14  and  C_15
REMARK    5  A    between atoms: C_15  and  C_16
REMARK                            x       y       z     vdW  Elec       q    Type
REMARK                         _______ _______ _______ _____ _____    ______ ____
ROOT
ATOM      1  N   UNL     1       2.548   7.227  18.557  0.00  0.00    +0.000 N 
ATOM      2  C   UNL     1       1.942   6.701  19.801  0.00  0.00    +0.000 C 
ATOM      3  C   UNL     1       1.657   7.853  20.790  0.00  0.00    +0.000 C 
ATOM      4  C   UNL     1       0.865   8.942  20.083  0.00  0.00    +0.000 C 
ATOM      5  C   UNL     1       0.631  10.268  20.770  0.00  0.00    +0.000 C 
ATOM      6  C   UNL     1       0.434  11.223  19.579  0.00  0.00    +0.000 C 
ATOM      7  O   UNL     1       0.864  10.522  18.389  0.00  0.00    +0.000 OA
ATOM      8  C   UNL     1       1.626   9.420  18.868  0.00  0.00    +0.000 C 
ATOM      9  C   UNL     1       1.795   8.289  17.881  0.00  0.00    +0.000 C 
ENDROOT
BRANCH   1  14
ATOM     10  C   UNL     1       6.355   4.119  15.605  0.00  0.00    +0.000 C 
ATOM     11  C   UNL     1       5.384   4.929  16.404  0.00  0.00    +0.000 A 
ATOM     12  C   UNL     1       5.485   6.310  16.439  0.00  0.00    +0.000 A 
ATOM     13  C   UNL     1       4.528   7.065  17.122  0.00  0.00    +0.000 A 
ATOM     14  C   UNL     1       3.458   6.482  17.826  0.00  0.00    +0.000 A 
ATOM     15  C   UNL     1       3.402   5.090  17.812  0.00  0.00    +0.000 A 
ATOM     16  C   UNL     1       4.332   4.333  17.099  0.00  0.00    +0.000 A 
ENDBRANCH   1  14
BRANCH   6  17
ATOM     17  C   UNL     1      -1.013  11.694  19.431  0.00  0.00    +0.000 C 
ATOM     18  O   UNL     1      -1.727  11.314  18.501  0.00  0.00    +0.000 OA
ATOM     19  N   UNL     1      -1.428  12.606  20.379  0.00  0.00    +0.000 N 
ATOM     20  H   UNL     1      -0.862  12.667  21.223  0.00  0.00    +0.000 HD
BRANCH  19  21
ATOM     21  C   UNL     1      -2.827  12.932  20.495  0.00  0.00    +0.000 C 
BRANCH  21  22
ATOM     22  C   UNL     1      -3.268  12.788  21.900  0.00  0.00    +0.000 A 
ATOM     23  C   UNL     1      -2.722  12.137  22.989  0.00  0.00    +0.000 A 
ATOM     24  C   UNL     1      -3.587  12.385  24.079  0.00  0.00    +0.000 A 
ATOM     25  C   UNL     1      -4.604  13.170  23.589  0.00  0.00    +0.000 A 
ATOM     26  O   UNL     1      -4.421  13.422  22.267  0.00  0.00    +0.000 OA
ENDBRANCH  21  22
ENDBRANCH  19  21
ENDBRANCH   6  17
TORSDOF 4
ENDMDL
