MODEL 1
REMARK VINA RESULT:      -7.1      0.000      0.000
REMARK  Name = 
REMARK  4 active torsions:
REMARK  status: ('A' for Active; 'I' for Inactive)
REMARK    1  A    between atoms: C_1  and  C_2
REMARK    2  A    between atoms: C_7  and  N_8
REMARK    3  A    between atoms: N_8  and  C_9
REMARK    4  A    between atoms: C_10  and  C_12
REMARK                            x       y       z     vdW  Elec       q    Type
REMARK                         _______ _______ _______ _____ _____    ______ ____
ROOT
ATOM      1  C   UNL     1       0.918   9.592  18.774  0.00  0.00    +0.000 A 
ATOM      2  N   UNL     1       1.439  10.017  17.598  0.00  0.00    +0.000 NA
ATOM      3  O   UNL     1       2.409   9.083  17.236  0.00  0.00    +0.000 OA
ATOM      4  C   UNL     1       2.490   8.170  18.215  0.00  0.00    +0.000 A 
ATOM      5  C   UNL     1       1.626   8.449  19.225  0.00  0.00    +0.000 A 
ATOM      6  C   UNL     1       1.625   7.596  20.427  0.00  0.00    +0.000 C 
ATOM      7  O   UNL     1       2.219   6.272  20.223  0.00  0.00    +0.000 OA
ATOM      8  C   UNL     1       3.213   6.146  19.268  0.00  0.00    +0.000 A 
ATOM      9  C   UNL     1       4.045   5.034  19.369  0.00  0.00    +0.000 A 
ATOM     10  C   UNL     1       5.064   4.844  18.432  0.00  0.00    +0.000 A 
ATOM     11  C   UNL     1       5.228   5.743  17.372  0.00  0.00    +0.000 A 
ATOM     12  C   UNL     1       4.380   6.845  17.248  0.00  0.00    +0.000 A 
ATOM     13  C   UNL     1       3.385   7.053  18.200  0.00  0.00    +0.000 A 
ENDROOT
BRANCH   1  16
ATOM     14  N   UNL     1       0.170  11.363  20.385  0.00  0.00    +0.000 N 
ATOM     15  C   UNL     1       1.554  11.810  20.475  0.00  0.00    +0.000 C 
ATOM     16  C   UNL     1      -0.171  10.304  19.477  0.00  0.00    +0.000 C 
ATOM     17  O   UNL     1      -1.321   9.950  19.211  0.00  0.00    +0.000 OA
BRANCH  14  24
ATOM     18  C   UNL     1      -0.959  10.397  23.175  0.00  0.00    +0.000 C 
ATOM     19  C   UNL     1      -1.320  11.671  22.451  0.00  0.00    +0.000 A 
ATOM     20  C   UNL     1      -2.283  12.465  23.128  0.00  0.00    +0.000 A 
ATOM     21  C   UNL     1      -2.780  13.641  22.589  0.00  0.00    +0.000 A 
ATOM     22  C   UNL     1      -2.307  14.066  21.361  0.00  0.00    +0.000 A 
ATOM     23  C   UNL     1      -1.347  13.301  20.680  0.00  0.00    +0.000 A 
ATOM     24  C   UNL     1      -0.830  12.089  21.175  0.00  0.00    +0.000 A 
ENDBRANCH  14  24
ENDBRANCH   1  16
TORSDOF 2
ENDMDL
MODEL 2
REMARK VINA RESULT:      -7.0      2.517      4.470
REMARK  Name = 
REMARK  4 active torsions:
REMARK  status: ('A' for Active; 'I' for Inactive)
REMARK    1  A    between atoms: C_1  and  C_2
REMARK    2  A    between atoms: C_7  and  N_8
REMARK    3  A    between atoms: N_8  and  C_9
REMARK    4  A    between atoms: C_10  and  C_12
REMARK                            x       y       z     vdW  Elec       q    Type
REMARK                         _______ _______ _______ _____ _____    ______ ____
ROOT
ATOM      1  C   UNL     1      -0.880  11.006  22.620  0.00  0.00    +0.000 A 
ATOM      2  N   UNL     1      -0.244  10.138  23.443  0.00  0.00    +0.000 NA
ATOM      3  O   UNL     1       0.572   9.350  22.633  0.00  0.00    +0.000 OA
ATOM      4  C   UNL     1       0.364   9.714  21.359  0.00  0.00    +0.000 A 
ATOM      5  C   UNL     1      -0.561  10.705  21.271  0.00  0.00    +0.000 A 
ATOM      6  C   UNL     1      -0.976  11.186  19.942  0.00  0.00    +0.000 C 
ATOM      7  O   UNL     1      -0.026  10.880  18.869  0.00  0.00    +0.000 OA
ATOM      8  C   UNL     1       0.755   9.745  18.998  0.00  0.00    +0.000 A 
ATOM      9  C   UNL     1       1.325   9.237  17.832  0.00  0.00    +0.000 A 
ATOM     10  C   UNL     1       2.129   8.096  17.894  0.00  0.00    +0.000 A 
ATOM     11  C   UNL     1       2.398   7.485  19.124  0.00  0.00    +0.000 A 
ATOM     12  C   UNL     1       1.854   8.004  20.300  0.00  0.00    +0.000 A 
ATOM     13  C   UNL     1       1.024   9.121  20.235  0.00  0.00    +0.000 A 
ENDROOT
BRANCH   1  16
ATOM     14  N   UNL     1      -1.424  13.416  23.051  0.00  0.00    +0.000 N 
ATOM     15  C   UNL     1      -0.181  13.775  22.379  0.00  0.00    +0.000 C 
ATOM     16  C   UNL     1      -1.821  12.037  23.108  0.00  0.00    +0.000 C 
ATOM     17  O   UNL     1      -2.912  11.637  23.516  0.00  0.00    +0.000 OA
BRANCH  14  24
ATOM     18  C   UNL     1      -3.791  14.771  21.454  0.00  0.00    +0.000 C 
ATOM     19  C   UNL     1      -3.347  15.103  22.858  0.00  0.00    +0.000 A 
ATOM     20  C   UNL     1      -4.090  16.150  23.465  0.00  0.00    +0.000 A 
ATOM     21  C   UNL     1      -3.790  16.630  24.729  0.00  0.00    +0.000 A 
ATOM     22  C   UNL     1      -2.745  16.057  25.432  0.00  0.00    +0.000 A 
ATOM     23  C   UNL     1      -2.005  15.013  24.854  0.00  0.00    +0.000 A 
ATOM     24  C   UNL     1      -2.256  14.507  23.565  0.00  0.00    +0.000 A 
ENDBRANCH  14  24
ENDBRANCH   1  16
TORSDOF 2
ENDMDL
MODEL 3
REMARK VINA RESULT:      -6.9      1.948      8.140
REMARK  Name = 
REMARK  4 active torsions:
REMARK  status: ('A' for Active; 'I' for Inactive)
REMARK    1  A    between atoms: C_1  and  C_2
REMARK    2  A    between atoms: C_7  and  N_8
REMARK    3  A    between atoms: N_8  and  C_9
REMARK    4  A    between atoms: C_10  and  C_12
REMARK                            x       y       z     vdW  Elec       q    Type
REMARK                         _______ _______ _______ _____ _____    ______ ____
ROOT
ATOM      1  C   UNL     1       1.487   8.489  20.303  0.00  0.00    +0.000 A 
ATOM      2  N   UNL     1       1.597   8.311  21.642  0.00  0.00    +0.000 NA
ATOM      3  O   UNL     1       0.705   9.204  22.234  0.00  0.00    +0.000 OA
ATOM      4  C   UNL     1       0.136   9.928  21.258  0.00  0.00    +0.000 A 
ATOM      5  C   UNL     1       0.609   9.570  20.036  0.00  0.00    +0.000 A 
ATOM      6  C   UNL     1       0.154  10.308  18.845  0.00  0.00    +0.000 C 
ATOM      7  O   UNL     1      -1.101  11.040  19.035  0.00  0.00    +0.000 OA
ATOM      8  C   UNL     1      -1.400  11.497  20.307  0.00  0.00    +0.000 A 
ATOM      9  C   UNL     1      -2.340  12.521  20.403  0.00  0.00    +0.000 A 
ATOM     10  C   UNL     1      -2.690  13.024  21.659  0.00  0.00    +0.000 A 
ATOM     11  C   UNL     1      -2.133  12.479  22.821  0.00  0.00    +0.000 A 
ATOM     12  C   UNL     1      -1.212  11.434  22.734  0.00  0.00    +0.000 A 
ATOM     13  C   UNL     1      -0.836  10.955  21.481  0.00  0.00    +0.000 A 
ENDROOT
BRANCH   1  16
ATOM     14  N   UNL     1       2.481   6.304  19.579  0.00  0.00    +0.000 N 
ATOM     15  C   UNL     1       1.821   5.672  20.714  0.00  0.00    +0.000 C 
ATOM     16  C   UNL     1       2.258   7.698  19.320  0.00  0.00    +0.000 C 
ATOM     17  O   UNL     1       2.641   8.296  18.314  0.00  0.00    +0.000 OA
BRANCH  14  24
ATOM     18  C   UNL     1       1.286   4.162  17.585  0.00  0.00    +0.000 C 
ATOM     19  C   UNL     1       2.745   4.499  17.774  0.00  0.00    +0.000 A 
ATOM     20  C   UNL     1       3.623   3.732  16.964  0.00  0.00    +0.000 A 
ATOM     21  C   UNL     1       5.000   3.861  17.042  0.00  0.00    +0.000 A 
ATOM     22  C   UNL     1       5.536   4.783  17.922  0.00  0.00    +0.000 A 
ATOM     23  C   UNL     1       4.685   5.559  18.725  0.00  0.00    +0.000 A 
ATOM     24  C   UNL     1       3.283   5.448  18.699  0.00  0.00    +0.000 A 
ENDBRANCH  14  24
ENDBRANCH   1  16
TORSDOF 2
ENDMDL
MODEL 4
REMARK VINA RESULT:      -6.8      2.060      8.408
REMARK  Name = 
REMARK  4 active torsions:
REMARK  status: ('A' for Active; 'I' for Inactive)
REMARK    1  A    between atoms: C_1  and  C_2
REMARK    2  A    between atoms: C_7  and  N_8
REMARK    3  A    between atoms: N_8  and  C_9
REMARK    4  A    between atoms: C_10  and  C_12
REMARK                            x       y       z     vdW  Elec       q    Type
REMARK                         _______ _______ _______ _____ _____    ______ ____
ROOT
ATOM      1  C   UNL     1       2.428   7.300  19.213  0.00  0.00    +0.000 A 
ATOM      2  N   UNL     1       2.215   6.472  20.264  0.00  0.00    +0.000 NA
ATOM      3  O   UNL     1       1.381   7.159  21.145  0.00  0.00    +0.000 OA
ATOM      4  C   UNL     1       1.167   8.383  20.642  0.00  0.00    +0.000 A 
ATOM      5  C   UNL     1       1.825   8.558  19.467  0.00  0.00    +0.000 A 
ATOM      6  C   UNL     1       1.770   9.871  18.800  0.00  0.00    +0.000 C 
ATOM      7  O   UNL     1       0.646  10.711  19.222  0.00  0.00    +0.000 OA
ATOM      8  C   UNL     1       0.163  10.552  20.509  0.00  0.00    +0.000 A 
ATOM      9  C   UNL     1      -0.587  11.601  21.035  0.00  0.00    +0.000 A 
ATOM     10  C   UNL     1      -1.109  11.500  22.327  0.00  0.00    +0.000 A 
ATOM     11  C   UNL     1      -0.917  10.336  23.079  0.00  0.00    +0.000 A 
ATOM     12  C   UNL     1      -0.190   9.269  22.549  0.00  0.00    +0.000 A 
ATOM     13  C   UNL     1       0.359   9.382  21.274  0.00  0.00    +0.000 A 
ENDROOT
BRANCH   1  16
ATOM     14  N   UNL     1       4.221   5.876  18.189  0.00  0.00    +0.000 N 
ATOM     15  C   UNL     1       4.274   5.118  19.433  0.00  0.00    +0.000 C 
ATOM     16  C   UNL     1       3.247   6.920  18.041  0.00  0.00    +0.000 C 
ATOM     17  O   UNL     1       3.015   7.520  16.991  0.00  0.00    +0.000 OA
BRANCH  14  24
ATOM     18  C   UNL     1       7.007   7.234  17.567  0.00  0.00    +0.000 C 
ATOM     19  C   UNL     1       6.398   6.059  16.842  0.00  0.00    +0.000 A 
ATOM     20  C   UNL     1       7.189   5.570  15.769  0.00  0.00    +0.000 A 
ATOM     21  C   UNL     1       6.766   4.534  14.953  0.00  0.00    +0.000 A 
ATOM     22  C   UNL     1       5.541   3.943  15.204  0.00  0.00    +0.000 A 
ATOM     23  C   UNL     1       4.747   4.404  16.266  0.00  0.00    +0.000 A 
ATOM     24  C   UNL     1       5.123   5.468  17.108  0.00  0.00    +0.000 A 
ENDBRANCH  14  24
ENDBRANCH   1  16
TORSDOF 2
ENDMDL
MODEL 5
REMARK VINA RESULT:      -6.8      1.168      1.367
REMARK  Name = 
REMARK  4 active torsions:
REMARK  status: ('A' for Active; 'I' for Inactive)
REMARK    1  A    between atoms: C_1  and  C_2
REMARK    2  A    between atoms: C_7  and  N_8
REMARK    3  A    between atoms: N_8  and  C_9
REMARK    4  A    between atoms: C_10  and  C_12
REMARK                            x       y       z     vdW  Elec       q    Type
REMARK                         _______ _______ _______ _____ _____    ______ ____
ROOT
ATOM      1  C   UNL     1       1.323   9.963  19.396  0.00  0.00    +0.000 A 
ATOM      2  N   UNL     1       1.786  10.257  18.157  0.00  0.00    +0.000 NA
ATOM      3  O   UNL     1       2.340   9.081  17.653  0.00  0.00    +0.000 OA
ATOM      4  C   UNL     1       2.255   8.142  18.607  0.00  0.00    +0.000 A 
ATOM      5  C   UNL     1       1.677   8.632  19.735  0.00  0.00    +0.000 A 
ATOM      6  C   UNL     1       1.565   7.765  20.921  0.00  0.00    +0.000 C 
ATOM      7  O   UNL     1       1.663   6.333  20.628  0.00  0.00    +0.000 OA
ATOM      8  C   UNL     1       2.420   5.943  19.537  0.00  0.00    +0.000 A 
ATOM      9  C   UNL     1       2.852   4.619  19.511  0.00  0.00    +0.000 A 
ATOM     10  C   UNL     1       3.615   4.160  18.434  0.00  0.00    +0.000 A 
ATOM     11  C   UNL     1       3.913   5.011  17.364  0.00  0.00    +0.000 A 
ATOM     12  C   UNL     1       3.460   6.331  17.369  0.00  0.00    +0.000 A 
ATOM     13  C   UNL     1       2.728   6.799  18.458  0.00  0.00    +0.000 A 
ENDROOT
BRANCH   1  16
ATOM     14  N   UNL     1      -0.776  11.162  20.065  0.00  0.00    +0.000 N 
ATOM     15  C   UNL     1      -1.513  10.299  19.151  0.00  0.00    +0.000 C 
ATOM     16  C   UNL     1       0.632  10.950  20.253  0.00  0.00    +0.000 C 
ATOM     17  O   UNL     1       1.319  11.517  21.103  0.00  0.00    +0.000 OA
BRANCH  14  24
ATOM     18  C   UNL     1      -1.425  10.966  23.152  0.00  0.00    +0.000 C 
ATOM     19  C   UNL     1      -1.810  12.091  22.222  0.00  0.00    +0.000 A 
ATOM     20  C   UNL     1      -2.554  13.126  22.846  0.00  0.00    +0.000 A 
ATOM     21  C   UNL     1      -3.044  14.212  22.139  0.00  0.00    +0.000 A 
ATOM     22  C   UNL     1      -2.781  14.301  20.784  0.00  0.00    +0.000 A 
ATOM     23  C   UNL     1      -2.038  13.293  20.150  0.00  0.00    +0.000 A 
ATOM     24  C   UNL     1      -1.540  12.160  20.819  0.00  0.00    +0.000 A 
ENDBRANCH  14  24
ENDBRANCH   1  16
TORSDOF 2
ENDMDL
MODEL 6
REMARK VINA RESULT:      -6.8      0.337      1.439
REMARK  Name = 
REMARK  4 active torsions:
REMARK  status: ('A' for Active; 'I' for Inactive)
REMARK    1  A    between atoms: C_1  and  C_2
REMARK    2  A    between atoms: C_7  and  N_8
REMARK    3  A    between atoms: N_8  and  C_9
REMARK    4  A    between atoms: C_10  and  C_12
REMARK                            x       y       z     vdW  Elec       q    Type
REMARK                         _______ _______ _______ _____ _____    ______ ____
ROOT
ATOM      1  C   UNL     1       0.880   9.637  18.780  0.00  0.00    +0.000 A 
ATOM      2  N   UNL     1       1.407  10.042  17.600  0.00  0.00    +0.000 NA
ATOM      3  O   UNL     1       2.370   9.096  17.251  0.00  0.00    +0.000 OA
ATOM      4  C   UNL     1       2.442   8.195  18.243  0.00  0.00    +0.000 A 
ATOM      5  C   UNL     1       1.579   8.495  19.248  0.00  0.00    +0.000 A 
ATOM      6  C   UNL     1       1.569   7.658  20.460  0.00  0.00    +0.000 C 
ATOM      7  O   UNL     1       2.153   6.326  20.276  0.00  0.00    +0.000 OA
ATOM      8  C   UNL     1       3.147   6.180  19.324  0.00  0.00    +0.000 A 
ATOM      9  C   UNL     1       3.971   5.062  19.441  0.00  0.00    +0.000 A 
ATOM     10  C   UNL     1       4.990   4.852  18.508  0.00  0.00    +0.000 A 
ATOM     11  C   UNL     1       5.162   5.736  17.436  0.00  0.00    +0.000 A 
ATOM     12  C   UNL     1       4.323   6.842  17.296  0.00  0.00    +0.000 A 
ATOM     13  C   UNL     1       3.329   7.071  18.244  0.00  0.00    +0.000 A 
ENDROOT
BRANCH   1  16
ATOM     14  N   UNL     1       0.144  11.323  20.485  0.00  0.00    +0.000 N 
ATOM     15  C   UNL     1       1.546  11.660  20.698  0.00  0.00    +0.000 C 
ATOM     16  C   UNL     1      -0.204  10.367  19.471  0.00  0.00    +0.000 C 
ATOM     17  O   UNL     1      -1.354  10.118  19.106  0.00  0.00    +0.000 OA
BRANCH  14  24
ATOM     18  C   UNL     1      -0.971  14.188  19.750  0.00  0.00    +0.000 C 
ATOM     19  C   UNL     1      -1.386  13.336  20.924  0.00  0.00    +0.000 A 
ATOM     20  C   UNL     1      -2.361  13.941  21.759  0.00  0.00    +0.000 A 
ATOM     21  C   UNL     1      -2.821  13.333  22.917  0.00  0.00    +0.000 A 
ATOM     22  C   UNL     1      -2.329  12.087  23.258  0.00  0.00    +0.000 A 
ATOM     23  C   UNL     1      -1.371  11.466  22.441  0.00  0.00    +0.000 A 
ATOM     24  C   UNL     1      -0.856  12.053  21.270  0.00  0.00    +0.000 A 
ENDBRANCH  14  24
ENDBRANCH   1  16
TORSDOF 2
ENDMDL
MODEL 7
REMARK VINA RESULT:      -6.7      1.908      2.654
REMARK  Name = 
REMARK  4 active torsions:
REMARK  status: ('A' for Active; 'I' for Inactive)
REMARK    1  A    between atoms: C_1  and  C_2
REMARK    2  A    between atoms: C_7  and  N_8
REMARK    3  A    between atoms: N_8  and  C_9
REMARK    4  A    between atoms: C_10  and  C_12
REMARK                            x       y       z     vdW  Elec       q    Type
REMARK                         _______ _______ _______ _____ _____    ______ ____
ROOT
ATOM      1  C   UNL     1       1.828   8.038  19.817  0.00  0.00    +0.000 A 
ATOM      2  N   UNL     1       2.443   8.417  18.671  0.00  0.00    +0.000 NA
ATOM      3  O   UNL     1       2.772   7.244  17.993  0.00  0.00    +0.000 OA
ATOM      4  C   UNL     1       2.411   6.206  18.762  0.00  0.00    +0.000 A 
ATOM      5  C   UNL     1       1.861   6.625  19.931  0.00  0.00    +0.000 A 
ATOM      6  C   UNL     1       1.470   5.625  20.940  0.00  0.00    +0.000 C 
ATOM      7  O   UNL     1       1.282   4.273  20.405  0.00  0.00    +0.000 OA
ATOM      8  C   UNL     1       2.025   3.906  19.297  0.00  0.00    +0.000 A 
ATOM      9  C   UNL     1       2.165   2.540  19.057  0.00  0.00    +0.000 A 
ATOM     10  C   UNL     1       2.897   2.102  17.951  0.00  0.00    +0.000 A 
ATOM     11  C   UNL     1       3.457   3.026  17.061  0.00  0.00    +0.000 A 
ATOM     12  C   UNL     1       3.298   4.396  17.279  0.00  0.00    +0.000 A 
ATOM     13  C   UNL     1       2.596   4.834  18.400  0.00  0.00    +0.000 A 
ENDROOT
BRANCH   1  16
ATOM     14  N   UNL     1       0.404  10.032  20.349  0.00  0.00    +0.000 N 
ATOM     15  C   UNL     1      -0.075  10.008  18.973  0.00  0.00    +0.000 C 
ATOM     16  C   UNL     1       1.297   9.003  20.803  0.00  0.00    +0.000 C 
ATOM     17  O   UNL     1       1.644   8.841  21.973  0.00  0.00    +0.000 OA
BRANCH  14  24
ATOM     18  C   UNL     1       1.280  13.068  20.279  0.00  0.00    +0.000 C 
ATOM     19  C   UNL     1       0.242  12.453  21.185  0.00  0.00    +0.000 A 
ATOM     20  C   UNL     1      -0.351  13.372  22.089  0.00  0.00    +0.000 A 
ATOM     21  C   UNL     1      -1.283  12.979  23.036  0.00  0.00    +0.000 A 
ATOM     22  C   UNL     1      -1.662  11.650  23.089  0.00  0.00    +0.000 A 
ATOM     23  C   UNL     1      -1.095  10.726  22.197  0.00  0.00    +0.000 A 
ATOM     24  C   UNL     1      -0.129  11.073  21.234  0.00  0.00    +0.000 A 
ENDBRANCH  14  24
ENDBRANCH   1  16
TORSDOF 2
ENDMDL
MODEL 8
REMARK VINA RESULT:      -6.6      1.499      2.206
REMARK  Name = 
REMARK  4 active torsions:
REMARK  status: ('A' for Active; 'I' for Inactive)
REMARK    1  A    between atoms: C_1  and  C_2
REMARK    2  A    between atoms: C_7  and  N_8
REMARK    3  A    between atoms: N_8  and  C_9
REMARK    4  A    between atoms: C_10  and  C_12
REMARK                            x       y       z     vdW  Elec       q    Type
REMARK                         _______ _______ _______ _____ _____    ______ ____
ROOT
ATOM      1  C   UNL     1       1.382   9.983  19.053  0.00  0.00    +0.000 A 
ATOM      2  N   UNL     1       1.868  10.091  17.793  0.00  0.00    +0.000 NA
ATOM      3  O   UNL     1       2.366   8.835  17.452  0.00  0.00    +0.000 OA
ATOM      4  C   UNL     1       2.228   8.032  18.518  0.00  0.00    +0.000 A 
ATOM      5  C   UNL     1       1.667   8.692  19.565  0.00  0.00    +0.000 A 
ATOM      6  C   UNL     1       1.504   7.992  20.851  0.00  0.00    +0.000 C 
ATOM      7  O   UNL     1       1.532   6.531  20.747  0.00  0.00    +0.000 OA
ATOM      8  C   UNL     1       2.276   5.967  19.725  0.00  0.00    +0.000 A 
ATOM      9  C   UNL     1       2.641   4.631  19.876  0.00  0.00    +0.000 A 
ATOM     10  C   UNL     1       3.388   4.000  18.877  0.00  0.00    +0.000 A 
ATOM     11  C   UNL     1       3.735   4.689  17.710  0.00  0.00    +0.000 A 
ATOM     12  C   UNL     1       3.349   6.020  17.539  0.00  0.00    +0.000 A 
ATOM     13  C   UNL     1       2.634   6.660  18.549  0.00  0.00    +0.000 A 
ENDROOT
BRANCH   1  16
ATOM     14  N   UNL     1      -0.606  11.469  19.409  0.00  0.00    +0.000 N 
ATOM     15  C   UNL     1      -1.348  10.634  18.472  0.00  0.00    +0.000 C 
ATOM     16  C   UNL     1       0.736  11.106  19.766  0.00  0.00    +0.000 C 
ATOM     17  O   UNL     1       1.398  11.648  20.652  0.00  0.00    +0.000 OA
BRANCH  14  24
ATOM     18  C   UNL     1       0.031  14.505  18.806  0.00  0.00    +0.000 C 
ATOM     19  C   UNL     1      -1.048  13.978  19.719  0.00  0.00    +0.000 A 
ATOM     20  C   UNL     1      -1.807  14.991  20.360  0.00  0.00    +0.000 A 
ATOM     21  C   UNL     1      -2.804  14.698  21.278  0.00  0.00    +0.000 A 
ATOM     22  C   UNL     1      -3.081  13.374  21.563  0.00  0.00    +0.000 A 
ATOM     23  C   UNL     1      -2.349  12.356  20.932  0.00  0.00    +0.000 A 
ATOM     24  C   UNL     1      -1.313  12.603  20.012  0.00  0.00    +0.000 A 
ENDBRANCH  14  24
ENDBRANCH   1  16
TORSDOF 2
ENDMDL
MODEL 9
REMARK VINA RESULT:      -6.6      2.040      8.136
REMARK  Name = 
REMARK  4 active torsions:
REMARK  status: ('A' for Active; 'I' for Inactive)
REMARK    1  A    between atoms: C_1  and  C_2
REMARK    2  A    between atoms: C_7  and  N_8
REMARK    3  A    between atoms: N_8  and  C_9
REMARK    4  A    between atoms: C_10  and  C_12
REMARK                            x       y       z     vdW  Elec       q    Type
REMARK                         _______ _______ _______ _____ _____    ______ ____
ROOT
ATOM      1  C   UNL     1       1.541   8.313  20.293  0.00  0.00    +0.000 A 
ATOM      2  N   UNL     1       1.795   8.263  21.623  0.00  0.00    +0.000 NA
ATOM      3  O   UNL     1       0.998   9.241  22.215  0.00  0.00    +0.000 OA
ATOM      4  C   UNL     1       0.343   9.887  21.239  0.00  0.00    +0.000 A 
ATOM      5  C   UNL     1       0.667   9.394  20.015  0.00  0.00    +0.000 A 
ATOM      6  C   UNL     1       0.102  10.029  18.812  0.00  0.00    +0.000 C 
ATOM      7  O   UNL     1      -1.105  10.822  19.062  0.00  0.00    +0.000 OA
ATOM      8  C   UNL     1      -1.247  11.412  20.306  0.00  0.00    +0.000 A 
ATOM      9  C   UNL     1      -2.144  12.475  20.399  0.00  0.00    +0.000 A 
ATOM     10  C   UNL     1      -2.338  13.111  21.628  0.00  0.00    +0.000 A 
ATOM     11  C   UNL     1      -1.669  12.661  22.772  0.00  0.00    +0.000 A 
ATOM     12  C   UNL     1      -0.791  11.579  22.692  0.00  0.00    +0.000 A 
ATOM     13  C   UNL     1      -0.571  10.966  21.461  0.00  0.00    +0.000 A 
ENDROOT
BRANCH   1  16
ATOM     14  N   UNL     1       2.198   5.994  19.600  0.00  0.00    +0.000 N 
ATOM     15  C   UNL     1       1.466   5.485  20.753  0.00  0.00    +0.000 C 
ATOM     16  C   UNL     1       2.176   7.402  19.317  0.00  0.00    +0.000 C 
ATOM     17  O   UNL     1       2.631   7.920  18.296  0.00  0.00    +0.000 OA
BRANCH  14  24
ATOM     18  C   UNL     1       5.328   5.653  19.325  0.00  0.00    +0.000 C 
ATOM     19  C   UNL     1       4.270   4.837  18.623  0.00  0.00    +0.000 A 
ATOM     20  C   UNL     1       4.791   3.847  17.749  0.00  0.00    +0.000 A 
ATOM     21  C   UNL     1       3.971   3.040  16.976  0.00  0.00    +0.000 A 
ATOM     22  C   UNL     1       2.600   3.191  17.075  0.00  0.00    +0.000 A 
ATOM     23  C   UNL     1       2.064   4.157  17.941  0.00  0.00    +0.000 A 
ATOM     24  C   UNL     1       2.855   5.015  18.728  0.00  0.00    +0.000 A 
ENDBRANCH  14  24
ENDBRANCH   1  16
TORSDOF 2
ENDMDL
