MODEL 1
REMARK VINA RESULT:      -8.9      0.000      0.000
REMARK  Name = 
REMARK  5 active torsions:
REMARK  status: ('A' for Active; 'I' for Inactive)
REMARK    1  A    between atoms: C_2  and  C_3
REMARK    2  A    between atoms: C_4  and  C_5
REMARK    3  A    between atoms: C_14  and  C_15
REMARK    4  A    between atoms: C_17  and  C_18
REMARK    5  A    between atoms: C_25  and  O_26
REMARK                            x       y       z     vdW  Elec       q    Type
REMARK                         _______ _______ _______ _____ _____    ______ ____
ROOT
ATOM      1  C   UNL     1       3.612   4.527  19.570  0.00  0.00    +0.000 A 
ATOM      2  C   UNL     1       4.028   5.389  18.610  0.00  0.00    +0.000 A 
ATOM      3  C   UNL     1       3.423   6.709  18.525  0.00  0.00    +0.000 A 
ATOM      4  C   UNL     1       2.490   7.115  19.405  0.00  0.00    +0.000 A 
ATOM      5  N   UNL     1       2.075   6.234  20.371  0.00  0.00    +0.000 N 
ATOM      6  C   UNL     1       2.528   4.950  20.510  0.00  0.00    +0.000 A 
ATOM      7  O   UNL     1       2.066   4.198  21.361  0.00  0.00    +0.000 OA
ATOM      8  H   UNL     1       1.313   6.518  20.982  0.00  0.00    +0.000 HD
ENDROOT
BRANCH   2   9
ATOM      9  C   UNL     1       5.119   5.015  17.674  0.00  0.00    +0.000 A 
ATOM     10  C   UNL     1       4.792   4.653  16.357  0.00  0.00    +0.000 A 
ATOM     11  C   UNL     1       5.800   4.303  15.455  0.00  0.00    +0.000 A 
ATOM     12 CL   UNL     1       5.388   3.847  13.848  0.00  0.00    +0.000 Cl
ATOM     13  C   UNL     1       7.138   4.316  15.845  0.00  0.00    +0.000 A 
ATOM     14  C   UNL     1       7.474   4.687  17.146  0.00  0.00    +0.000 A 
ATOM     15  C   UNL     1       6.473   5.036  18.058  0.00  0.00    +0.000 A 
ATOM     16 CL   UNL     1       6.960   5.486  19.654  0.00  0.00    +0.000 Cl
ENDBRANCH   2   9
BRANCH   4  17
ATOM     17  C   UNL     1       1.882   8.465  19.354  0.00  0.00    +0.000 A 
ATOM     18  C   UNL     1       1.362   9.035  20.531  0.00  0.00    +0.000 A 
ATOM     19  C   UNL     1       0.780  10.312  20.554  0.00  0.00    +0.000 A 
ATOM     20  C   UNL     1       0.713  11.031  19.356  0.00  0.00    +0.000 A 
ATOM     21  C   UNL     1       1.200  10.481  18.167  0.00  0.00    +0.000 A 
ATOM     22  C   UNL     1       1.768   9.206  18.168  0.00  0.00    +0.000 A 
BRANCH  19  23
ATOM     23  C   UNL     1       0.239  10.898  21.838  0.00  0.00    +0.000 C 
ATOM     24  C   UNL     1      -0.406  12.278  21.678  0.00  0.00    +0.000 C 
ATOM     25  C   UNL     1      -1.218  12.449  22.958  0.00  0.00    +0.000 C 
ATOM     26  C   UNL     1      -1.628  11.042  23.387  0.00  0.00    +0.000 C 
ATOM     27  C   UNL     1      -0.892  10.075  22.464  0.00  0.00    +0.000 C 
ENDBRANCH  19  23
BRANCH  22  28
ATOM     28  O   UNL     1       2.211   8.671  16.986  0.00  0.00    +0.000 OA
ATOM     29  H   UNL     1       3.075   9.059  16.764  0.00  0.00    +0.000 HD
ENDBRANCH  22  28
ENDBRANCH   4  17
BRANCH   1  31
ATOM     30  N   UNL     1       4.654   2.187  19.853  0.00  0.00    +0.000 NA
ATOM     31  C   UNL     1       4.155   3.230  19.743  0.00  0.00    +0.000 C 
ENDBRANCH   1  31
TORSDOF 5
ENDMDL
MODEL 2
REMARK VINA RESULT:      -8.9      2.142      3.261
REMARK  Name = 
REMARK  5 active torsions:
REMARK  status: ('A' for Active; 'I' for Inactive)
REMARK    1  A    between atoms: C_2  and  C_3
REMARK    2  A    between atoms: C_4  and  C_5
REMARK    3  A    between atoms: C_14  and  C_15
REMARK    4  A    between atoms: C_17  and  C_18
REMARK    5  A    between atoms: C_25  and  O_26
REMARK                            x       y       z     vdW  Elec       q    Type
REMARK                         _______ _______ _______ _____ _____    ______ ____
ROOT
ATOM      1  C   UNL     1       3.287   4.843  19.848  0.00  0.00    +0.000 A 
ATOM      2  C   UNL     1       3.494   5.864  18.980  0.00  0.00    +0.000 A 
ATOM      3  C   UNL     1       2.740   7.098  19.137  0.00  0.00    +0.000 A 
ATOM      4  C   UNL     1       1.872   7.270  20.150  0.00  0.00    +0.000 A 
ATOM      5  N   UNL     1       1.669   6.230  21.020  0.00  0.00    +0.000 N 
ATOM      6  C   UNL     1       2.275   5.006  20.936  0.00  0.00    +0.000 A 
ATOM      7  O   UNL     1       1.997   4.100  21.716  0.00  0.00    +0.000 OA
ATOM      8  H   UNL     1       0.953   6.337  21.735  0.00  0.00    +0.000 HD
ENDROOT
BRANCH   2   9
ATOM      9  C   UNL     1       4.509   5.751  17.901  0.00  0.00    +0.000 A 
ATOM     10  C   UNL     1       5.648   6.571  17.950  0.00  0.00    +0.000 A 
ATOM     11  C   UNL     1       6.620   6.481  16.951  0.00  0.00    +0.000 A 
ATOM     12 CL   UNL     1       8.006   7.500  17.012  0.00  0.00    +0.000 Cl
ATOM     13  C   UNL     1       6.479   5.575  15.902  0.00  0.00    +0.000 A 
ATOM     14  C   UNL     1       5.358   4.746  15.851  0.00  0.00    +0.000 A 
ATOM     15  C   UNL     1       4.377   4.831  16.845  0.00  0.00    +0.000 A 
ATOM     16 CL   UNL     1       3.014   3.775  16.721  0.00  0.00    +0.000 Cl
ENDBRANCH   2   9
BRANCH   4  17
ATOM     17  C   UNL     1       1.115   8.529  20.346  0.00  0.00    +0.000 A 
ATOM     18  C   UNL     1       0.383   9.071  19.274  0.00  0.00    +0.000 A 
ATOM     19  C   UNL     1      -0.360  10.256  19.394  0.00  0.00    +0.000 A 
ATOM     20  C   UNL     1      -0.358  10.916  20.627  0.00  0.00    +0.000 A 
ATOM     21  C   UNL     1       0.379  10.415  21.703  0.00  0.00    +0.000 A 
ATOM     22  C   UNL     1       1.117   9.239  21.557  0.00  0.00    +0.000 A 
BRANCH  19  23
ATOM     23  C   UNL     1      -1.144  10.806  18.224  0.00  0.00    +0.000 C 
ATOM     24  C   UNL     1      -1.562   9.752  17.194  0.00  0.00    +0.000 C 
ATOM     25  C   UNL     1      -2.651  10.448  16.386  0.00  0.00    +0.000 C 
ATOM     26  C   UNL     1      -3.317  11.437  17.341  0.00  0.00    +0.000 C 
ATOM     27  C   UNL     1      -2.485  11.433  18.619  0.00  0.00    +0.000 C 
ENDBRANCH  19  23
BRANCH  22  28
ATOM     28  O   UNL     1       1.858   8.779  22.614  0.00  0.00    +0.000 OA
ATOM     29  H   UNL     1       1.537   9.192  23.433  0.00  0.00    +0.000 HD
ENDBRANCH  22  28
ENDBRANCH   4  17
BRANCH   1  31
ATOM     30  N   UNL     1       4.593   2.622  19.788  0.00  0.00    +0.000 NA
ATOM     31  C   UNL     1       3.987   3.613  19.786  0.00  0.00    +0.000 C 
ENDBRANCH   1  31
TORSDOF 5
ENDMDL
MODEL 3
REMARK VINA RESULT:      -8.5      1.721      2.772
REMARK  Name = 
REMARK  5 active torsions:
REMARK  status: ('A' for Active; 'I' for Inactive)
REMARK    1  A    between atoms: C_2  and  C_3
REMARK    2  A    between atoms: C_4  and  C_5
REMARK    3  A    between atoms: C_14  and  C_15
REMARK    4  A    between atoms: C_17  and  C_18
REMARK    5  A    between atoms: C_25  and  O_26
REMARK                            x       y       z     vdW  Elec       q    Type
REMARK                         _______ _______ _______ _____ _____    ______ ____
ROOT
ATOM      1  C   UNL     1       3.473   4.423  19.723  0.00  0.00    +0.000 A 
ATOM      2  C   UNL     1       3.760   5.423  18.853  0.00  0.00    +0.000 A 
ATOM      3  C   UNL     1       3.053   6.689  18.964  0.00  0.00    +0.000 A 
ATOM      4  C   UNL     1       2.151   6.911  19.936  0.00  0.00    +0.000 A 
ATOM      5  N   UNL     1       1.867   5.893  20.809  0.00  0.00    +0.000 N 
ATOM      6  C   UNL     1       2.424   4.643  20.766  0.00  0.00    +0.000 A 
ATOM      7  O   UNL     1       2.075   3.761  21.544  0.00  0.00    +0.000 OA
ATOM      8  H   UNL     1       1.127   6.039  21.492  0.00  0.00    +0.000 HD
ENDROOT
BRANCH   2   9
ATOM      9  C   UNL     1       4.813   5.252  17.820  0.00  0.00    +0.000 A 
ATOM     10  C   UNL     1       4.432   4.941  16.504  0.00  0.00    +0.000 A 
ATOM     11  C   UNL     1       5.403   4.780  15.513  0.00  0.00    +0.000 A 
ATOM     12 CL   UNL     1       4.927   4.384  13.907  0.00  0.00    +0.000 Cl
ATOM     13  C   UNL     1       6.755   4.936  15.810  0.00  0.00    +0.000 A 
ATOM     14  C   UNL     1       7.143   5.259  17.110  0.00  0.00    +0.000 A 
ATOM     15  C   UNL     1       6.180   5.418  18.112  0.00  0.00    +0.000 A 
ATOM     16 CL   UNL     1       6.730   5.818  19.701  0.00  0.00    +0.000 Cl
ENDBRANCH   2   9
BRANCH   4  17
ATOM     17  C   UNL     1       1.441   8.204  20.085  0.00  0.00    +0.000 A 
ATOM     18  C   UNL     1       0.735   8.736  18.991  0.00  0.00    +0.000 A 
ATOM     19  C   UNL     1       0.037   9.951  19.065  0.00  0.00    +0.000 A 
ATOM     20  C   UNL     1       0.057  10.652  20.276  0.00  0.00    +0.000 A 
ATOM     21  C   UNL     1       0.769  10.160  21.373  0.00  0.00    +0.000 A 
ATOM     22  C   UNL     1       1.463   8.953  21.271  0.00  0.00    +0.000 A 
BRANCH  19  23
ATOM     23  C   UNL     1      -0.719  10.490  17.873  0.00  0.00    +0.000 C 
ATOM     24  C   UNL     1      -1.486   9.427  17.080  0.00  0.00    +0.000 C 
ATOM     25  C   UNL     1      -2.463  10.240  16.237  0.00  0.00    +0.000 C 
ATOM     26  C   UNL     1      -2.767  11.501  17.043  0.00  0.00    +0.000 C 
ATOM     27  C   UNL     1      -1.822  11.489  18.240  0.00  0.00    +0.000 C 
ENDBRANCH  19  23
BRANCH  22  28
ATOM     28  O   UNL     1       2.181   8.502  22.348  0.00  0.00    +0.000 OA
ATOM     29  H   UNL     1       3.006   9.012  22.418  0.00  0.00    +0.000 HD
ENDBRANCH  22  28
ENDBRANCH   4  17
BRANCH   1  31
ATOM     30  N   UNL     1       4.625   2.118  19.748  0.00  0.00    +0.000 NA
ATOM     31  C   UNL     1       4.122   3.164  19.706  0.00  0.00    +0.000 C 
ENDBRANCH   1  31
TORSDOF 5
ENDMDL
MODEL 4
REMARK VINA RESULT:      -8.3      3.495      8.401
REMARK  Name = 
REMARK  5 active torsions:
REMARK  status: ('A' for Active; 'I' for Inactive)
REMARK    1  A    between atoms: C_2  and  C_3
REMARK    2  A    between atoms: C_4  and  C_5
REMARK    3  A    between atoms: C_14  and  C_15
REMARK    4  A    between atoms: C_17  and  C_18
REMARK    5  A    between atoms: C_25  and  O_26
REMARK                            x       y       z     vdW  Elec       q    Type
REMARK                         _______ _______ _______ _____ _____    ______ ____
ROOT
ATOM      1  C   UNL     1       0.593   9.951  21.261  0.00  0.00    +0.000 A 
ATOM      2  C   UNL     1       0.470   9.691  19.936  0.00  0.00    +0.000 A 
ATOM      3  C   UNL     1       1.135   8.525  19.374  0.00  0.00    +0.000 A 
ATOM      4  C   UNL     1       1.834   7.672  20.144  0.00  0.00    +0.000 A 
ATOM      5  N   UNL     1       1.952   7.946  21.482  0.00  0.00    +0.000 N 
ATOM      6  C   UNL     1       1.422   9.042  22.109  0.00  0.00    +0.000 A 
ATOM      7  O   UNL     1       1.622   9.255  23.301  0.00  0.00    +0.000 OA
ATOM      8  H   UNL     1       2.548   7.343  22.044  0.00  0.00    +0.000 HD
ENDROOT
BRANCH   2   9
ATOM      9  C   UNL     1      -0.366  10.555  19.065  0.00  0.00    +0.000 A 
ATOM     10  C   UNL     1      -1.637  10.102  18.675  0.00  0.00    +0.000 A 
ATOM     11  C   UNL     1      -2.446  10.898  17.860  0.00  0.00    +0.000 A 
ATOM     12 CL   UNL     1      -3.996  10.328  17.376  0.00  0.00    +0.000 Cl
ATOM     13  C   UNL     1      -2.009  12.150  17.433  0.00  0.00    +0.000 A 
ATOM     14  C   UNL     1      -0.755  12.616  17.825  0.00  0.00    +0.000 A 
ATOM     15  C   UNL     1       0.065  11.825  18.637  0.00  0.00    +0.000 A 
ATOM     16 CL   UNL     1       1.607  12.462  19.086  0.00  0.00    +0.000 Cl
ENDBRANCH   2   9
BRANCH   4  17
ATOM     17  C   UNL     1       2.494   6.463  19.597  0.00  0.00    +0.000 A 
ATOM     18  C   UNL     1       3.328   6.579  18.471  0.00  0.00    +0.000 A 
ATOM     19  C   UNL     1       3.989   5.476  17.907  0.00  0.00    +0.000 A 
ATOM     20  C   UNL     1       3.795   4.220  18.492  0.00  0.00    +0.000 A 
ATOM     21  C   UNL     1       2.954   4.069  19.597  0.00  0.00    +0.000 A 
ATOM     22  C   UNL     1       2.302   5.181  20.135  0.00  0.00    +0.000 A 
BRANCH  19  23
ATOM     23  C   UNL     1       4.886   5.638  16.701  0.00  0.00    +0.000 C 
ATOM     24  C   UNL     1       6.373   5.788  17.037  0.00  0.00    +0.000 C 
ATOM     25  C   UNL     1       7.073   5.511  15.712  0.00  0.00    +0.000 C 
ATOM     26  C   UNL     1       6.168   4.543  14.952  0.00  0.00    +0.000 C 
ATOM     27  C   UNL     1       4.880   4.427  15.761  0.00  0.00    +0.000 C 
ENDBRANCH  19  23
BRANCH  22  28
ATOM     28  O   UNL     1       1.456   5.008  21.200  0.00  0.00    +0.000 OA
ATOM     29  H   UNL     1       1.604   4.128  21.586  0.00  0.00    +0.000 HD
ENDBRANCH  22  28
ENDBRANCH   4  17
BRANCH   1  31
ATOM     30  N   UNL     1      -0.520  11.931  22.480  0.00  0.00    +0.000 NA
ATOM     31  C   UNL     1      -0.033  11.050  21.900  0.00  0.00    +0.000 C 
ENDBRANCH   1  31
TORSDOF 5
ENDMDL
MODEL 5
REMARK VINA RESULT:      -8.0      4.552      9.521
REMARK  Name = 
REMARK  5 active torsions:
REMARK  status: ('A' for Active; 'I' for Inactive)
REMARK    1  A    between atoms: C_2  and  C_3
REMARK    2  A    between atoms: C_4  and  C_5
REMARK    3  A    between atoms: C_14  and  C_15
REMARK    4  A    between atoms: C_17  and  C_18
REMARK    5  A    between atoms: C_25  and  O_26
REMARK                            x       y       z     vdW  Elec       q    Type
REMARK                         _______ _______ _______ _____ _____    ______ ____
ROOT
ATOM      1  C   UNL     1       0.246  12.524  18.709  0.00  0.00    +0.000 A 
ATOM      2  C   UNL     1      -0.630  11.509  18.904  0.00  0.00    +0.000 A 
ATOM      3  C   UNL     1      -0.128  10.150  19.037  0.00  0.00    +0.000 A 
ATOM      4  C   UNL     1       1.189   9.879  19.016  0.00  0.00    +0.000 A 
ATOM      5  N   UNL     1       2.066  10.914  18.816  0.00  0.00    +0.000 N 
ATOM      6  C   UNL     1       1.707  12.220  18.619  0.00  0.00    +0.000 A 
ATOM      7  O   UNL     1       2.545  13.085  18.384  0.00  0.00    +0.000 OA
ATOM      8  H   UNL     1       3.054  10.693  18.720  0.00  0.00    +0.000 HD
ENDROOT
BRANCH   2   9
ATOM      9  C   UNL     1      -2.087  11.773  19.025  0.00  0.00    +0.000 A 
ATOM     10  C   UNL     1      -2.580  12.332  20.216  0.00  0.00    +0.000 A 
ATOM     11  C   UNL     1      -3.946  12.595  20.353  0.00  0.00    +0.000 A 
ATOM     12 CL   UNL     1      -4.543  13.266  21.821  0.00  0.00    +0.000 Cl
ATOM     13  C   UNL     1      -4.830  12.319  19.313  0.00  0.00    +0.000 A 
ATOM     14  C   UNL     1      -4.349  11.777  18.122  0.00  0.00    +0.000 A 
ATOM     15  C   UNL     1      -2.985  11.506  17.975  0.00  0.00    +0.000 A 
ATOM     16 CL   UNL     1      -2.455  10.835  16.473  0.00  0.00    +0.000 Cl
ENDBRANCH   2   9
BRANCH   4  17
ATOM     17  C   UNL     1       1.723   8.506  19.179  0.00  0.00    +0.000 A 
ATOM     18  C   UNL     1       2.447   7.915  18.129  0.00  0.00    +0.000 A 
ATOM     19  C   UNL     1       2.986   6.622  18.220  0.00  0.00    +0.000 A 
ATOM     20  C   UNL     1       2.780   5.903  19.403  0.00  0.00    +0.000 A 
ATOM     21  C   UNL     1       2.045   6.455  20.455  0.00  0.00    +0.000 A 
ATOM     22  C   UNL     1       1.513   7.740  20.336  0.00  0.00    +0.000 A 
BRANCH  19  23
ATOM     23  C   UNL     1       3.767   6.021  17.075  0.00  0.00    +0.000 C 
ATOM     24  C   UNL     1       5.157   6.631  16.871  0.00  0.00    +0.000 C 
ATOM     25  C   UNL     1       5.873   5.614  15.988  0.00  0.00    +0.000 C 
ATOM     26  C   UNL     1       5.263   4.256  16.331  0.00  0.00    +0.000 C 
ATOM     27  C   UNL     1       4.083   4.532  17.258  0.00  0.00    +0.000 C 
ENDBRANCH  19  23
BRANCH  22  28
ATOM     28  O   UNL     1       0.768   8.252  21.366  0.00  0.00    +0.000 OA
ATOM     29  H   UNL     1       0.673   7.576  22.059  0.00  0.00    +0.000 HD
ENDBRANCH  22  28
ENDBRANCH   4  17
BRANCH   1  31
ATOM     30  N   UNL     1      -0.417  15.008  18.523  0.00  0.00    +0.000 NA
ATOM     31  C   UNL     1      -0.147  13.880  18.588  0.00  0.00    +0.000 C 
ENDBRANCH   1  31
TORSDOF 5
ENDMDL
MODEL 6
REMARK VINA RESULT:      -7.9      3.591      8.186
REMARK  Name = 
REMARK  5 active torsions:
REMARK  status: ('A' for Active; 'I' for Inactive)
REMARK    1  A    between atoms: C_2  and  C_3
REMARK    2  A    between atoms: C_4  and  C_5
REMARK    3  A    between atoms: C_14  and  C_15
REMARK    4  A    between atoms: C_17  and  C_18
REMARK    5  A    between atoms: C_25  and  O_26
REMARK                            x       y       z     vdW  Elec       q    Type
REMARK                         _______ _______ _______ _____ _____    ______ ____
ROOT
ATOM      1  C   UNL     1       0.471  10.019  21.424  0.00  0.00    +0.000 A 
ATOM      2  C   UNL     1       0.397   9.720  20.104  0.00  0.00    +0.000 A 
ATOM      3  C   UNL     1       1.069   8.530  19.604  0.00  0.00    +0.000 A 
ATOM      4  C   UNL     1       1.726   7.693  20.426  0.00  0.00    +0.000 A 
ATOM      5  N   UNL     1       1.796   8.007  21.759  0.00  0.00    +0.000 N 
ATOM      6  C   UNL     1       1.255   9.127  22.332  0.00  0.00    +0.000 A 
ATOM      7  O   UNL     1       1.411   9.375  23.523  0.00  0.00    +0.000 OA
ATOM      8  H   UNL     1       2.362   7.415  22.362  0.00  0.00    +0.000 HD
ENDROOT
BRANCH   2   9
ATOM      9  C   UNL     1      -0.394  10.567  19.175  0.00  0.00    +0.000 A 
ATOM     10  C   UNL     1      -1.657  10.118  18.754  0.00  0.00    +0.000 A 
ATOM     11  C   UNL     1      -2.424  10.898  17.884  0.00  0.00    +0.000 A 
ATOM     12 CL   UNL     1      -3.963  10.334  17.362  0.00  0.00    +0.000 Cl
ATOM     13  C   UNL     1      -1.954  12.129  17.433  0.00  0.00    +0.000 A 
ATOM     14  C   UNL     1      -0.707  12.590  17.855  0.00  0.00    +0.000 A 
ATOM     15  C   UNL     1       0.070  11.816  18.723  0.00  0.00    +0.000 A 
ATOM     16 CL   UNL     1       1.605  12.446  19.207  0.00  0.00    +0.000 Cl
ENDBRANCH   2   9
BRANCH   4  17
ATOM     17  C   UNL     1       2.392   6.461  19.942  0.00  0.00    +0.000 A 
ATOM     18  C   UNL     1       3.649   6.553  19.316  0.00  0.00    +0.000 A 
ATOM     19  C   UNL     1       4.337   5.425  18.842  0.00  0.00    +0.000 A 
ATOM     20  C   UNL     1       3.736   4.171  18.996  0.00  0.00    +0.000 A 
ATOM     21  C   UNL     1       2.479   4.051  19.593  0.00  0.00    +0.000 A 
ATOM     22  C   UNL     1       1.811   5.188  20.050  0.00  0.00    +0.000 A 
BRANCH  19  23
ATOM     23  C   UNL     1       5.690   5.559  18.182  0.00  0.00    +0.000 C 
ATOM     24  C   UNL     1       5.870   6.844  17.368  0.00  0.00    +0.000 C 
ATOM     25  C   UNL     1       7.379   6.943  17.177  0.00  0.00    +0.000 C 
ATOM     26  C   UNL     1       8.003   6.270  18.398  0.00  0.00    +0.000 C 
ATOM     27  C   UNL     1       6.856   5.629  19.173  0.00  0.00    +0.000 C 
ENDBRANCH  19  23
BRANCH  22  28
ATOM     28  O   UNL     1       0.565   5.054  20.604  0.00  0.00    +0.000 OA
ATOM     29  H   UNL     1       0.652   4.947  21.567  0.00  0.00    +0.000 HD
ENDBRANCH  22  28
ENDBRANCH   4  17
BRANCH   1  31
ATOM     30  N   UNL     1      -0.657  12.052  22.536  0.00  0.00    +0.000 NA
ATOM     31  C   UNL     1      -0.166  11.144  22.005  0.00  0.00    +0.000 C 
ENDBRANCH   1  31
TORSDOF 5
ENDMDL
MODEL 7
REMARK VINA RESULT:      -7.9      4.501      9.374
REMARK  Name = 
REMARK  5 active torsions:
REMARK  status: ('A' for Active; 'I' for Inactive)
REMARK    1  A    between atoms: C_2  and  C_3
REMARK    2  A    between atoms: C_4  and  C_5
REMARK    3  A    between atoms: C_14  and  C_15
REMARK    4  A    between atoms: C_17  and  C_18
REMARK    5  A    between atoms: C_25  and  O_26
REMARK                            x       y       z     vdW  Elec       q    Type
REMARK                         _______ _______ _______ _____ _____    ______ ____
ROOT
ATOM      1  C   UNL     1       0.335  12.539  18.742  0.00  0.00    +0.000 A 
ATOM      2  C   UNL     1      -0.546  11.567  19.084  0.00  0.00    +0.000 A 
ATOM      3  C   UNL     1      -0.075  10.199  19.236  0.00  0.00    +0.000 A 
ATOM      4  C   UNL     1       1.224   9.880  19.090  0.00  0.00    +0.000 A 
ATOM      5  N   UNL     1       2.105  10.870  18.742  0.00  0.00    +0.000 N 
ATOM      6  C   UNL     1       1.768  12.177  18.514  0.00  0.00    +0.000 A 
ATOM      7  O   UNL     1       2.602  12.998  18.145  0.00  0.00    +0.000 OA
ATOM      8  H   UNL     1       3.070  10.609  18.554  0.00  0.00    +0.000 HD
ENDROOT
BRANCH   2   9
ATOM      9  C   UNL     1      -1.972  11.890  19.343  0.00  0.00    +0.000 A 
ATOM     10  C   UNL     1      -2.927  11.594  18.356  0.00  0.00    +0.000 A 
ATOM     11  C   UNL     1      -4.276  11.884  18.578  0.00  0.00    +0.000 A 
ATOM     12 CL   UNL     1      -5.437  11.531  17.358  0.00  0.00    +0.000 Cl
ATOM     13  C   UNL     1      -4.692  12.457  19.778  0.00  0.00    +0.000 A 
ATOM     14  C   UNL     1      -3.754  12.742  20.769  0.00  0.00    +0.000 A 
ATOM     15  C   UNL     1      -2.400  12.460  20.557  0.00  0.00    +0.000 A 
ATOM     16 CL   UNL     1      -1.291  12.838  21.827  0.00  0.00    +0.000 Cl
ENDBRANCH   2   9
BRANCH   4  17
ATOM     17  C   UNL     1       1.729   8.498  19.270  0.00  0.00    +0.000 A 
ATOM     18  C   UNL     1       2.402   7.863  18.210  0.00  0.00    +0.000 A 
ATOM     19  C   UNL     1       2.912   6.560  18.316  0.00  0.00    +0.000 A 
ATOM     20  C   UNL     1       2.731   5.875  19.523  0.00  0.00    +0.000 A 
ATOM     21  C   UNL     1       2.046   6.471  20.585  0.00  0.00    +0.000 A 
ATOM     22  C   UNL     1       1.542   7.766  20.452  0.00  0.00    +0.000 A 
BRANCH  19  23
ATOM     23  C   UNL     1       3.637   5.911  17.160  0.00  0.00    +0.000 C 
ATOM     24  C   UNL     1       4.884   6.667  16.693  0.00  0.00    +0.000 C 
ATOM     25  C   UNL     1       5.639   5.641  15.857  0.00  0.00    +0.000 C 
ATOM     26  C   UNL     1       5.288   4.276  16.448  0.00  0.00    +0.000 C 
ATOM     27  C   UNL     1       4.196   4.521  17.484  0.00  0.00    +0.000 C 
ENDBRANCH  19  23
BRANCH  22  28
ATOM     28  O   UNL     1       0.846   8.322  21.494  0.00  0.00    +0.000 OA
ATOM     29  H   UNL     1       0.151   8.902  21.141  0.00  0.00    +0.000 HD
ENDBRANCH  22  28
ENDBRANCH   4  17
BRANCH   1  31
ATOM     30  N   UNL     1      -0.324  15.022  18.530  0.00  0.00    +0.000 NA
ATOM     31  C   UNL     1      -0.027  13.900  18.590  0.00  0.00    +0.000 C 
ENDBRANCH   1  31
TORSDOF 5
ENDMDL
MODEL 8
REMARK VINA RESULT:      -7.8      3.474      8.440
REMARK  Name = 
REMARK  5 active torsions:
REMARK  status: ('A' for Active; 'I' for Inactive)
REMARK    1  A    between atoms: C_2  and  C_3
REMARK    2  A    between atoms: C_4  and  C_5
REMARK    3  A    between atoms: C_14  and  C_15
REMARK    4  A    between atoms: C_17  and  C_18
REMARK    5  A    between atoms: C_25  and  O_26
REMARK                            x       y       z     vdW  Elec       q    Type
REMARK                         _______ _______ _______ _____ _____    ______ ____
ROOT
ATOM      1  C   UNL     1       0.538  10.189  21.483  0.00  0.00    +0.000 A 
ATOM      2  C   UNL     1       0.813  10.241  20.156  0.00  0.00    +0.000 A 
ATOM      3  C   UNL     1       1.439   9.096  19.513  0.00  0.00    +0.000 A 
ATOM      4  C   UNL     1       1.713   7.968  20.192  0.00  0.00    +0.000 A 
ATOM      5  N   UNL     1       1.432   7.927  21.533  0.00  0.00    +0.000 N 
ATOM      6  C   UNL     1       0.900   8.961  22.256  0.00  0.00    +0.000 A 
ATOM      7  O   UNL     1       0.733   8.875  23.468  0.00  0.00    +0.000 OA
ATOM      8  H   UNL     1       1.715   7.103  22.057  0.00  0.00    +0.000 HD
ENDROOT
BRANCH   2   9
ATOM      9  C   UNL     1       0.445  11.432  19.349  0.00  0.00    +0.000 A 
ATOM     10  C   UNL     1       1.318  12.533  19.324  0.00  0.00    +0.000 A 
ATOM     11  C   UNL     1       0.998  13.664  18.568  0.00  0.00    +0.000 A 
ATOM     12 CL   UNL     1       2.067  15.013  18.556  0.00  0.00    +0.000 Cl
ATOM     13  C   UNL     1      -0.179  13.712  17.825  0.00  0.00    +0.000 A 
ATOM     14  C   UNL     1      -1.046  12.619  17.832  0.00  0.00    +0.000 A 
ATOM     15  C   UNL     1      -0.737  11.483  18.588  0.00  0.00    +0.000 A 
ATOM     16 CL   UNL     1      -1.855  10.166  18.552  0.00  0.00    +0.000 Cl
ENDBRANCH   2   9
BRANCH   4  17
ATOM     17  C   UNL     1       2.323   6.780  19.549  0.00  0.00    +0.000 A 
ATOM     18  C   UNL     1       3.290   6.956  18.543  0.00  0.00    +0.000 A 
ATOM     19  C   UNL     1       3.912   5.875  17.899  0.00  0.00    +0.000 A 
ATOM     20  C   UNL     1       3.542   4.580  18.276  0.00  0.00    +0.000 A 
ATOM     21  C   UNL     1       2.568   4.373  19.256  0.00  0.00    +0.000 A 
ATOM     22  C   UNL     1       1.958   5.465  19.876  0.00  0.00    +0.000 A 
BRANCH  19  23
ATOM     23  C   UNL     1       4.954   6.101  16.828  0.00  0.00    +0.000 C 
ATOM     24  C   UNL     1       6.377   6.292  17.363  0.00  0.00    +0.000 C 
ATOM     25  C   UNL     1       7.257   6.076  16.137  0.00  0.00    +0.000 C 
ATOM     26  C   UNL     1       6.497   5.100  15.240  0.00  0.00    +0.000 C 
ATOM     27  C   UNL     1       5.118   4.919  15.867  0.00  0.00    +0.000 C 
ENDBRANCH  19  23
BRANCH  22  28
ATOM     28  O   UNL     1       0.982   5.242  20.812  0.00  0.00    +0.000 OA
ATOM     29  H   UNL     1       1.368   4.771  21.570  0.00  0.00    +0.000 HD
ENDBRANCH  22  28
ENDBRANCH   4  17
BRANCH   1  31
ATOM     30  N   UNL     1      -0.541  12.138  22.778  0.00  0.00    +0.000 NA
ATOM     31  C   UNL     1      -0.087  11.245  22.191  0.00  0.00    +0.000 C 
ENDBRANCH   1  31
TORSDOF 5
ENDMDL
MODEL 9
REMARK VINA RESULT:      -7.7      4.424      8.809
REMARK  Name = 
REMARK  5 active torsions:
REMARK  status: ('A' for Active; 'I' for Inactive)
REMARK    1  A    between atoms: C_2  and  C_3
REMARK    2  A    between atoms: C_4  and  C_5
REMARK    3  A    between atoms: C_14  and  C_15
REMARK    4  A    between atoms: C_17  and  C_18
REMARK    5  A    between atoms: C_25  and  O_26
REMARK                            x       y       z     vdW  Elec       q    Type
REMARK                         _______ _______ _______ _____ _____    ______ ____
ROOT
ATOM      1  C   UNL     1      -0.153  12.478  21.687  0.00  0.00    +0.000 A 
ATOM      2  C   UNL     1       0.710  12.682  20.662  0.00  0.00    +0.000 A 
ATOM      3  C   UNL     1       1.276  11.536  19.968  0.00  0.00    +0.000 A 
ATOM      4  C   UNL     1       0.930  10.276  20.287  0.00  0.00    +0.000 A 
ATOM      5  N   UNL     1       0.057  10.082  21.326  0.00  0.00    +0.000 N 
ATOM      6  C   UNL     1      -0.491  11.078  22.088  0.00  0.00    +0.000 A 
ATOM      7  O   UNL     1      -1.218  10.825  23.044  0.00  0.00    +0.000 OA
ATOM      8  H   UNL     1      -0.139   9.126  21.615  0.00  0.00    +0.000 HD
ENDROOT
BRANCH   2   9
ATOM      9  C   UNL     1       1.051  14.058  20.217  0.00  0.00    +0.000 A 
ATOM     10  C   UNL     1       0.130  14.763  19.424  0.00  0.00    +0.000 A 
ATOM     11  C   UNL     1       0.424  16.061  18.996  0.00  0.00    +0.000 A 
ATOM     12 CL   UNL     1      -0.703  16.912  18.013  0.00  0.00    +0.000 Cl
ATOM     13  C   UNL     1       1.622  16.673  19.356  0.00  0.00    +0.000 A 
ATOM     14  C   UNL     1       2.537  15.987  20.154  0.00  0.00    +0.000 A 
ATOM     15  C   UNL     1       2.255  14.686  20.585  0.00  0.00    +0.000 A 
ATOM     16 CL   UNL     1       3.432  13.893  21.571  0.00  0.00    +0.000 Cl
ENDBRANCH   2   9
BRANCH   4  17
ATOM     17  C   UNL     1       1.471   9.096  19.572  0.00  0.00    +0.000 A 
ATOM     18  C   UNL     1       1.660   7.890  20.271  0.00  0.00    +0.000 A 
ATOM     19  C   UNL     1       2.162   6.734  19.654  0.00  0.00    +0.000 A 
ATOM     20  C   UNL     1       2.490   6.799  18.295  0.00  0.00    +0.000 A 
ATOM     21  C   UNL     1       2.335   7.989  17.581  0.00  0.00    +0.000 A 
ATOM     22  C   UNL     1       1.841   9.128  18.219  0.00  0.00    +0.000 A 
BRANCH  19  23
ATOM     23  C   UNL     1       2.344   5.451  20.433  0.00  0.00    +0.000 C 
ATOM     24  C   UNL     1       1.079   4.593  20.540  0.00  0.00    +0.000 C 
ATOM     25  C   UNL     1       1.604   3.228  20.970  0.00  0.00    +0.000 C 
ATOM     26  C   UNL     1       3.012   3.116  20.389  0.00  0.00    +0.000 C 
ATOM     27  C   UNL     1       3.348   4.482  19.800  0.00  0.00    +0.000 C 
ENDBRANCH  19  23
BRANCH  22  28
ATOM     28  O   UNL     1       1.726  10.295  17.509  0.00  0.00    +0.000 OA
ATOM     29  H   UNL     1       1.179  10.922  18.012  0.00  0.00    +0.000 HD
ENDBRANCH  22  28
ENDBRANCH   4  17
BRANCH   1  31
ATOM     30  N   UNL     1      -1.251  14.366  23.055  0.00  0.00    +0.000 NA
ATOM     31  C   UNL     1      -0.769  13.531  22.409  0.00  0.00    +0.000 C 
ENDBRANCH   1  31
TORSDOF 5
ENDMDL
