MODEL 1
REMARK VINA RESULT:      -7.2      0.000      0.000
REMARK  Name = 
REMARK  12 active torsions:
REMARK  status: ('A' for Active; 'I' for Inactive)
REMARK    1  A    between atoms: C_1  and  O_2
REMARK    2  A    between atoms: O_2  and  C_3
REMARK    3  A    between atoms: C_7  and  N_8
REMARK    4  A    between atoms: N_8  and  C_15
REMARK    5  A    between atoms: C_9  and  C_11
REMARK    6  A    between atoms: C_11  and  C_12
REMARK    7  A    between atoms: C_12  and  C_13
REMARK    8  A    between atoms: C_12  and  C_14
REMARK    9  A    between atoms: N_18  and  C_19
REMARK   10  A    between atoms: C_19  and  C_20
REMARK   11  A    between atoms: C_23  and  C_24
REMARK   12  A    between atoms: C_25  and  C_26
REMARK                            x       y       z     vdW  Elec       q    Type
REMARK                         _______ _______ _______ _____ _____    ______ ____
ROOT
ATOM      1  N   UNL     1       4.001   4.367  19.118  0.00  0.00    +0.000 N 
ATOM      2  C   UNL     1       4.096   3.087  19.774  0.00  0.00    +0.000 C 
ATOM      3  O   UNL     1       5.128   2.443  19.934  0.00  0.00    +0.000 OA
ENDROOT
BRANCH   1   8
ATOM      4  C   UNL     1       6.600   5.790  16.655  0.00  0.00    +0.000 A 
ATOM      5  C   UNL     1       7.576   6.278  17.500  0.00  0.00    +0.000 A 
ATOM      6  C   UNL     1       7.393   6.145  18.869  0.00  0.00    +0.000 A 
ATOM      7  C   UNL     1       6.239   5.522  19.391  0.00  0.00    +0.000 A 
ATOM      8  C   UNL     1       5.220   5.002  18.576  0.00  0.00    +0.000 A 
ATOM      9  C   UNL     1       5.468   5.147  17.206  0.00  0.00    +0.000 A 
BRANCH   4  11
ATOM     10  C   UNL     1       6.059   4.750  14.596  0.00  0.00    +0.000 C 
ATOM     11  O   UNL     1       6.630   5.861  15.285  0.00  0.00    +0.000 OA
ENDBRANCH   4  11
ENDBRANCH   1   8
BRANCH   1  12
ATOM     12  C   UNL     1       2.668   5.071  19.095  0.00  0.00    +0.000 C 
ATOM     13  C   UNL     1       2.033   5.439  17.759  0.00  0.00    +0.000 C 
ATOM     14  C   UNL     1       2.149   6.900  17.372  0.00  0.00    +0.000 C 
ATOM     15  N   UNL     1       1.959   7.871  18.463  0.00  0.00    +0.000 NA
ATOM     16  C   UNL     1       2.549   7.538  19.768  0.00  0.00    +0.000 C 
ATOM     17  C   UNL     1       2.406   6.089  20.203  0.00  0.00    +0.000 C 
BRANCH  15  18
ATOM     18  C   UNL     1       2.488   9.189  18.038  0.00  0.00    +0.000 C 
BRANCH  18  19
ATOM     19  C   UNL     1       1.558  10.349  18.307  0.00  0.00    +0.000 A 
ATOM     20  C   UNL     1       0.206  10.117  18.565  0.00  0.00    +0.000 A 
ATOM     21  C   UNL     1      -0.632  11.172  18.917  0.00  0.00    +0.000 A 
ATOM     22  C   UNL     1      -0.139  12.483  19.020  0.00  0.00    +0.000 A 
ATOM     23  C   UNL     1      -1.070  13.568  19.486  0.00  0.00    +0.000 C 
ATOM     24  C   UNL     1       1.213  12.737  18.720  0.00  0.00    +0.000 A 
ATOM     25  C   UNL     1       1.831  14.107  18.792  0.00  0.00    +0.000 C 
ATOM     26  C   UNL     1       2.046  11.662  18.357  0.00  0.00    +0.000 A 
ENDBRANCH  18  19
ENDBRANCH  15  18
ENDBRANCH   1  12
BRANCH   2  27
ATOM     27  C   UNL     1       2.784   2.504  20.326  0.00  0.00    +0.000 C 
BRANCH  27  28
ATOM     28  C   UNL     1       1.840   1.772  19.362  0.00  0.00    +0.000 C 
ATOM     29  C   UNL     1       0.488   2.469  19.220  0.00  0.00    +0.000 C 
ATOM     30  C   UNL     1       2.520   1.716  17.984  0.00  0.00    +0.000 C 
ENDBRANCH  27  28
ENDBRANCH   2  27
TORSDOF 7
ENDMDL
MODEL 2
REMARK VINA RESULT:      -7.1      2.440      4.587
REMARK  Name = 
REMARK  12 active torsions:
REMARK  status: ('A' for Active; 'I' for Inactive)
REMARK    1  A    between atoms: C_1  and  O_2
REMARK    2  A    between atoms: O_2  and  C_3
REMARK    3  A    between atoms: C_7  and  N_8
REMARK    4  A    between atoms: N_8  and  C_15
REMARK    5  A    between atoms: C_9  and  C_11
REMARK    6  A    between atoms: C_11  and  C_12
REMARK    7  A    between atoms: C_12  and  C_13
REMARK    8  A    between atoms: C_12  and  C_14
REMARK    9  A    between atoms: N_18  and  C_19
REMARK   10  A    between atoms: C_19  and  C_20
REMARK   11  A    between atoms: C_23  and  C_24
REMARK   12  A    between atoms: C_25  and  C_26
REMARK                            x       y       z     vdW  Elec       q    Type
REMARK                         _______ _______ _______ _____ _____    ______ ____
ROOT
ATOM      1  N   UNL     1       6.108   5.574  16.171  0.00  0.00    +0.000 N 
ATOM      2  C   UNL     1       6.712   4.770  15.138  0.00  0.00    +0.000 C 
ATOM      3  O   UNL     1       7.906   4.503  15.049  0.00  0.00    +0.000 OA
ENDROOT
BRANCH   1   8
ATOM      4  C   UNL     1       8.163   8.070  18.266  0.00  0.00    +0.000 A 
ATOM      5  C   UNL     1       8.572   7.297  19.335  0.00  0.00    +0.000 A 
ATOM      6  C   UNL     1       8.182   5.967  19.376  0.00  0.00    +0.000 A 
ATOM      7  C   UNL     1       7.389   5.409  18.350  0.00  0.00    +0.000 A 
ATOM      8  C   UNL     1       6.954   6.147  17.237  0.00  0.00    +0.000 A 
ATOM      9  C   UNL     1       7.394   7.477  17.240  0.00  0.00    +0.000 A 
BRANCH   4  11
ATOM     10  C   UNL     1       9.260   9.994  19.108  0.00  0.00    +0.000 C 
ATOM     11  O   UNL     1       8.453   9.400  18.093  0.00  0.00    +0.000 OA
ENDBRANCH   4  11
ENDBRANCH   1   8
BRANCH   1  12
ATOM     12  C   UNL     1       4.608   5.721  16.189  0.00  0.00    +0.000 C 
ATOM     13  C   UNL     1       3.988   7.111  16.286  0.00  0.00    +0.000 C 
ATOM     14  C   UNL     1       3.452   7.481  17.654  0.00  0.00    +0.000 C 
ATOM     15  N   UNL     1       2.748   6.411  18.382  0.00  0.00    +0.000 NA
ATOM     16  C   UNL     1       3.315   5.057  18.296  0.00  0.00    +0.000 C 
ATOM     17  C   UNL     1       3.817   4.640  16.923  0.00  0.00    +0.000 C 
BRANCH  15  18
ATOM     18  C   UNL     1       2.646   6.781  19.813  0.00  0.00    +0.000 C 
BRANCH  18  19
ATOM     19  C   UNL     1       1.788   7.994  20.083  0.00  0.00    +0.000 A 
ATOM     20  C   UNL     1       1.439   8.851  19.039  0.00  0.00    +0.000 A 
ATOM     21  C   UNL     1       0.563   9.910  19.263  0.00  0.00    +0.000 A 
ATOM     22  C   UNL     1       0.014  10.137  20.536  0.00  0.00    +0.000 A 
ATOM     23  C   UNL     1      -0.991  11.242  20.700  0.00  0.00    +0.000 C 
ATOM     24  C   UNL     1       0.393   9.306  21.608  0.00  0.00    +0.000 A 
ATOM     25  C   UNL     1      -0.132   9.474  23.008  0.00  0.00    +0.000 C 
ATOM     26  C   UNL     1       1.285   8.245  21.368  0.00  0.00    +0.000 A 
ENDBRANCH  18  19
ENDBRANCH  15  18
ENDBRANCH   1  12
BRANCH   2  27
ATOM     27  C   UNL     1       5.760   4.195  14.076  0.00  0.00    +0.000 C 
BRANCH  27  28
ATOM     28  C   UNL     1       6.361   3.541  12.824  0.00  0.00    +0.000 C 
ATOM     29  C   UNL     1       5.294   2.993  11.877  0.00  0.00    +0.000 C 
ATOM     30  C   UNL     1       7.185   4.608  12.082  0.00  0.00    +0.000 C 
ENDBRANCH  27  28
ENDBRANCH   2  27
TORSDOF 7
ENDMDL
MODEL 3
REMARK VINA RESULT:      -7.0      0.428      1.287
REMARK  Name = 
REMARK  12 active torsions:
REMARK  status: ('A' for Active; 'I' for Inactive)
REMARK    1  A    between atoms: C_1  and  O_2
REMARK    2  A    between atoms: O_2  and  C_3
REMARK    3  A    between atoms: C_7  and  N_8
REMARK    4  A    between atoms: N_8  and  C_15
REMARK    5  A    between atoms: C_9  and  C_11
REMARK    6  A    between atoms: C_11  and  C_12
REMARK    7  A    between atoms: C_12  and  C_13
REMARK    8  A    between atoms: C_12  and  C_14
REMARK    9  A    between atoms: N_18  and  C_19
REMARK   10  A    between atoms: C_19  and  C_20
REMARK   11  A    between atoms: C_23  and  C_24
REMARK   12  A    between atoms: C_25  and  C_26
REMARK                            x       y       z     vdW  Elec       q    Type
REMARK                         _______ _______ _______ _____ _____    ______ ____
ROOT
ATOM      1  N   UNL     1       3.930   4.492  19.153  0.00  0.00    +0.000 N 
ATOM      2  C   UNL     1       4.052   3.240  19.856  0.00  0.00    +0.000 C 
ATOM      3  O   UNL     1       5.086   2.591  19.983  0.00  0.00    +0.000 OA
ENDROOT
BRANCH   1   8
ATOM      4  C   UNL     1       6.364   5.839  16.488  0.00  0.00    +0.000 A 
ATOM      5  C   UNL     1       7.420   6.293  17.251  0.00  0.00    +0.000 A 
ATOM      6  C   UNL     1       7.345   6.163  18.630  0.00  0.00    +0.000 A 
ATOM      7  C   UNL     1       6.218   5.575  19.244  0.00  0.00    +0.000 A 
ATOM      8  C   UNL     1       5.120   5.089  18.514  0.00  0.00    +0.000 A 
ATOM      9  C   UNL     1       5.261   5.230  17.128  0.00  0.00    +0.000 A 
BRANCH   4  11
ATOM     10  C   UNL     1       7.087   4.976  14.403  0.00  0.00    +0.000 C 
ATOM     11  O   UNL     1       6.285   5.912  15.120  0.00  0.00    +0.000 OA
ENDBRANCH   4  11
ENDBRANCH   1   8
BRANCH   1  12
ATOM     12  C   UNL     1       2.605   5.210  19.179  0.00  0.00    +0.000 C 
ATOM     13  C   UNL     1       1.882   5.506  17.869  0.00  0.00    +0.000 C 
ATOM     14  C   UNL     1       1.983   6.940  17.390  0.00  0.00    +0.000 C 
ATOM     15  N   UNL     1       1.877   7.976  18.431  0.00  0.00    +0.000 NA
ATOM     16  C   UNL     1       2.552   7.714  19.710  0.00  0.00    +0.000 C 
ATOM     17  C   UNL     1       2.427   6.294  20.240  0.00  0.00    +0.000 C 
BRANCH  15  18
ATOM     18  C   UNL     1       2.386   9.260  17.893  0.00  0.00    +0.000 C 
BRANCH  18  19
ATOM     19  C   UNL     1       1.568  10.467  18.287  0.00  0.00    +0.000 A 
ATOM     20  C   UNL     1       2.184  11.710  18.439  0.00  0.00    +0.000 A 
ATOM     21  C   UNL     1       1.419  12.845  18.698  0.00  0.00    +0.000 A 
ATOM     22  C   UNL     1       0.021  12.765  18.811  0.00  0.00    +0.000 A 
ATOM     23  C   UNL     1      -0.759  14.034  19.007  0.00  0.00    +0.000 C 
ATOM     24  C   UNL     1      -0.608  11.510  18.703  0.00  0.00    +0.000 A 
ATOM     25  C   UNL     1      -2.096  11.320  18.818  0.00  0.00    +0.000 C 
ATOM     26  C   UNL     1       0.179  10.371  18.450  0.00  0.00    +0.000 A 
ENDBRANCH  18  19
ENDBRANCH  15  18
ENDBRANCH   1  12
BRANCH   2  27
ATOM     27  C   UNL     1       2.770   2.695  20.508  0.00  0.00    +0.000 C 
BRANCH  27  28
ATOM     28  C   UNL     1       1.777   1.911  19.640  0.00  0.00    +0.000 C 
ATOM     29  C   UNL     1       0.438   2.631  19.483  0.00  0.00    +0.000 C 
ATOM     30  C   UNL     1       2.408   1.724  18.250  0.00  0.00    +0.000 C 
ENDBRANCH  27  28
ENDBRANCH   2  27
TORSDOF 7
ENDMDL
MODEL 4
REMARK VINA RESULT:      -6.9      3.961      9.036
REMARK  Name = 
REMARK  12 active torsions:
REMARK  status: ('A' for Active; 'I' for Inactive)
REMARK    1  A    between atoms: C_1  and  O_2
REMARK    2  A    between atoms: O_2  and  C_3
REMARK    3  A    between atoms: C_7  and  N_8
REMARK    4  A    between atoms: N_8  and  C_15
REMARK    5  A    between atoms: C_9  and  C_11
REMARK    6  A    between atoms: C_11  and  C_12
REMARK    7  A    between atoms: C_12  and  C_13
REMARK    8  A    between atoms: C_12  and  C_14
REMARK    9  A    between atoms: N_18  and  C_19
REMARK   10  A    between atoms: C_19  and  C_20
REMARK   11  A    between atoms: C_23  and  C_24
REMARK   12  A    between atoms: C_25  and  C_26
REMARK                            x       y       z     vdW  Elec       q    Type
REMARK                         _______ _______ _______ _____ _____    ______ ____
ROOT
ATOM      1  N   UNL     1      -0.040  12.332  21.296  0.00  0.00    +0.000 N 
ATOM      2  C   UNL     1      -0.754  12.878  22.423  0.00  0.00    +0.000 C 
ATOM      3  O   UNL     1      -0.687  14.039  22.815  0.00  0.00    +0.000 OA
ENDROOT
BRANCH   1   8
ATOM      4  C   UNL     1       3.094  14.235  20.112  0.00  0.00    +0.000 A 
ATOM      5  C   UNL     1       2.647  14.865  18.968  0.00  0.00    +0.000 A 
ATOM      6  C   UNL     1       1.329  14.674  18.580  0.00  0.00    +0.000 A 
ATOM      7  C   UNL     1       0.459  13.858  19.336  0.00  0.00    +0.000 A 
ATOM      8  C   UNL     1       0.860  13.202  20.512  0.00  0.00    +0.000 A 
ATOM      9  C   UNL     1       2.193  13.448  20.864  0.00  0.00    +0.000 A 
BRANCH   4  11
ATOM     10  C   UNL     1       4.482  14.232  22.033  0.00  0.00    +0.000 C 
ATOM     11  O   UNL     1       4.369  14.314  20.614  0.00  0.00    +0.000 OA
ENDBRANCH   4  11
ENDBRANCH   1   8
BRANCH   1  12
ATOM     12  C   UNL     1      -0.314  10.908  20.887  0.00  0.00    +0.000 C 
ATOM     13  C   UNL     1       0.610   9.794  21.367  0.00  0.00    +0.000 C 
ATOM     14  C   UNL     1       1.592   9.283  20.332  0.00  0.00    +0.000 C 
ATOM     15  N   UNL     1       1.067   9.137  18.963  0.00  0.00    +0.000 NA
ATOM     16  C   UNL     1       0.162  10.188  18.476  0.00  0.00    +0.000 C 
ATOM     17  C   UNL     1      -0.866  10.688  19.479  0.00  0.00    +0.000 C 
BRANCH  15  18
ATOM     18  C   UNL     1       2.201   9.026  18.016  0.00  0.00    +0.000 C 
BRANCH  18  19
ATOM     19  C   UNL     1       2.708   7.618  17.813  0.00  0.00    +0.000 A 
ATOM     20  C   UNL     1       4.018   7.401  17.386  0.00  0.00    +0.000 A 
ATOM     21  C   UNL     1       4.522   6.105  17.298  0.00  0.00    +0.000 A 
ATOM     22  C   UNL     1       3.728   4.996  17.635  0.00  0.00    +0.000 A 
ATOM     23  C   UNL     1       4.350   3.629  17.603  0.00  0.00    +0.000 C 
ATOM     24  C   UNL     1       2.390   5.200  18.026  0.00  0.00    +0.000 A 
ATOM     25  C   UNL     1       1.459   4.078  18.396  0.00  0.00    +0.000 C 
ATOM     26  C   UNL     1       1.893   6.514  18.101  0.00  0.00    +0.000 A 
ENDBRANCH  18  19
ENDBRANCH  15  18
ENDBRANCH   1  12
BRANCH   2  27
ATOM     27  C   UNL     1      -1.684  11.912  23.175  0.00  0.00    +0.000 C 
BRANCH  27  28
ATOM     28  C   UNL     1      -3.192  12.199  23.186  0.00  0.00    +0.000 C 
ATOM     29  C   UNL     1      -3.580  13.264  24.211  0.00  0.00    +0.000 C 
ATOM     30  C   UNL     1      -3.592  12.688  21.784  0.00  0.00    +0.000 C 
ENDBRANCH  27  28
ENDBRANCH   2  27
TORSDOF 7
ENDMDL
MODEL 5
REMARK VINA RESULT:      -6.9      3.851      9.207
REMARK  Name = 
REMARK  12 active torsions:
REMARK  status: ('A' for Active; 'I' for Inactive)
REMARK    1  A    between atoms: C_1  and  O_2
REMARK    2  A    between atoms: O_2  and  C_3
REMARK    3  A    between atoms: C_7  and  N_8
REMARK    4  A    between atoms: N_8  and  C_15
REMARK    5  A    between atoms: C_9  and  C_11
REMARK    6  A    between atoms: C_11  and  C_12
REMARK    7  A    between atoms: C_12  and  C_13
REMARK    8  A    between atoms: C_12  and  C_14
REMARK    9  A    between atoms: N_18  and  C_19
REMARK   10  A    between atoms: C_19  and  C_20
REMARK   11  A    between atoms: C_23  and  C_24
REMARK   12  A    between atoms: C_25  and  C_26
REMARK                            x       y       z     vdW  Elec       q    Type
REMARK                         _______ _______ _______ _____ _____    ______ ____
ROOT
ATOM      1  N   UNL     1      -0.639  12.657  20.082  0.00  0.00    +0.000 N 
ATOM      2  C   UNL     1      -1.741  13.546  20.351  0.00  0.00    +0.000 C 
ATOM      3  O   UNL     1      -1.670  14.770  20.419  0.00  0.00    +0.000 OA
ENDROOT
BRANCH   1   8
ATOM      4  C   UNL     1       2.992  13.798  20.679  0.00  0.00    +0.000 A 
ATOM      5  C   UNL     1       3.368  14.260  19.434  0.00  0.00    +0.000 A 
ATOM      6  C   UNL     1       2.445  14.204  18.401  0.00  0.00    +0.000 A 
ATOM      7  C   UNL     1       1.147  13.689  18.612  0.00  0.00    +0.000 A 
ATOM      8  C   UNL     1       0.711  13.214  19.860  0.00  0.00    +0.000 A 
ATOM      9  C   UNL     1       1.677  13.315  20.868  0.00  0.00    +0.000 A 
BRANCH   4  11
ATOM     10  C   UNL     1       4.750  14.828  21.888  0.00  0.00    +0.000 C 
ATOM     11  O   UNL     1       3.795  13.773  21.792  0.00  0.00    +0.000 OA
ENDBRANCH   4  11
ENDBRANCH   1   8
BRANCH   1  12
ATOM     12  C   UNL     1      -0.919  11.184  19.932  0.00  0.00    +0.000 C 
ATOM     13  C   UNL     1      -0.425  10.210  20.997  0.00  0.00    +0.000 C 
ATOM     14  C   UNL     1       0.808   9.416  20.619  0.00  0.00    +0.000 C 
ATOM     15  N   UNL     1       0.860   8.928  19.230  0.00  0.00    +0.000 NA
ATOM     16  C   UNL     1       0.378   9.839  18.181  0.00  0.00    +0.000 C 
ATOM     17  C   UNL     1      -0.886  10.615  18.515  0.00  0.00    +0.000 C 
BRANCH  15  18
ATOM     18  C   UNL     1       2.251   8.539  18.902  0.00  0.00    +0.000 C 
BRANCH  18  19
ATOM     19  C   UNL     1       2.488   7.048  18.864  0.00  0.00    +0.000 A 
ATOM     20  C   UNL     1       3.109   6.466  17.758  0.00  0.00    +0.000 A 
ATOM     21  C   UNL     1       3.425   5.109  17.764  0.00  0.00    +0.000 A 
ATOM     22  C   UNL     1       3.128   4.302  18.874  0.00  0.00    +0.000 A 
ATOM     23  C   UNL     1       3.566   2.865  18.859  0.00  0.00    +0.000 C 
ATOM     24  C   UNL     1       2.461   4.868  19.979  0.00  0.00    +0.000 A 
ATOM     25  C   UNL     1       2.091   4.085  21.210  0.00  0.00    +0.000 C 
ATOM     26  C   UNL     1       2.141   6.238  19.955  0.00  0.00    +0.000 A 
ENDBRANCH  18  19
ENDBRANCH  15  18
ENDBRANCH   1  12
BRANCH   2  27
ATOM     27  C   UNL     1      -3.116  12.888  20.552  0.00  0.00    +0.000 C 
BRANCH  27  28
ATOM     28  C   UNL     1      -3.881  13.161  21.855  0.00  0.00    +0.000 C 
ATOM     29  C   UNL     1      -5.350  12.751  21.772  0.00  0.00    +0.000 C 
ATOM     30  C   UNL     1      -3.203  12.359  22.979  0.00  0.00    +0.000 C 
ENDBRANCH  27  28
ENDBRANCH   2  27
TORSDOF 7
ENDMDL
MODEL 6
REMARK VINA RESULT:      -6.8      4.681     10.834
REMARK  Name = 
REMARK  12 active torsions:
REMARK  status: ('A' for Active; 'I' for Inactive)
REMARK    1  A    between atoms: C_1  and  O_2
REMARK    2  A    between atoms: O_2  and  C_3
REMARK    3  A    between atoms: C_7  and  N_8
REMARK    4  A    between atoms: N_8  and  C_15
REMARK    5  A    between atoms: C_9  and  C_11
REMARK    6  A    between atoms: C_11  and  C_12
REMARK    7  A    between atoms: C_12  and  C_13
REMARK    8  A    between atoms: C_12  and  C_14
REMARK    9  A    between atoms: N_18  and  C_19
REMARK   10  A    between atoms: C_19  and  C_20
REMARK   11  A    between atoms: C_23  and  C_24
REMARK   12  A    between atoms: C_25  and  C_26
REMARK                            x       y       z     vdW  Elec       q    Type
REMARK                         _______ _______ _______ _____ _____    ______ ____
ROOT
ATOM      1  N   UNL     1      -1.039  14.343  19.980  0.00  0.00    +0.000 N 
ATOM      2  C   UNL     1      -1.099  15.777  19.846  0.00  0.00    +0.000 C 
ATOM      3  O   UNL     1      -1.675  16.541  20.614  0.00  0.00    +0.000 OA
ENDROOT
BRANCH   1   8
ATOM      4  C   UNL     1      -3.729  12.682  22.182  0.00  0.00    +0.000 A 
ATOM      5  C   UNL     1      -3.026  12.370  23.328  0.00  0.00    +0.000 A 
ATOM      6  C   UNL     1      -1.680  12.699  23.388  0.00  0.00    +0.000 A 
ATOM      7  C   UNL     1      -1.039  13.341  22.307  0.00  0.00    +0.000 A 
ATOM      8  C   UNL     1      -1.709  13.688  21.122  0.00  0.00    +0.000 A 
ATOM      9  C   UNL     1      -3.068  13.350  21.127  0.00  0.00    +0.000 A 
BRANCH   4  11
ATOM     10  C   UNL     1      -5.979  13.167  22.747  0.00  0.00    +0.000 C 
ATOM     11  O   UNL     1      -5.056  12.408  21.967  0.00  0.00    +0.000 OA
ENDBRANCH   4  11
ENDBRANCH   1   8
BRANCH   1  12
ATOM     12  C   UNL     1      -0.203  13.559  19.001  0.00  0.00    +0.000 C 
ATOM     13  C   UNL     1      -0.841  12.432  18.197  0.00  0.00    +0.000 C 
ATOM     14  C   UNL     1      -0.524  11.033  18.686  0.00  0.00    +0.000 C 
ATOM     15  N   UNL     1       0.863  10.803  19.124  0.00  0.00    +0.000 NA
ATOM     16  C   UNL     1       1.511  11.878  19.891  0.00  0.00    +0.000 C 
ATOM     17  C   UNL     1       1.249  13.290  19.393  0.00  0.00    +0.000 C 
BRANCH  15  18
ATOM     18  C   UNL     1       0.920   9.560  19.930  0.00  0.00    +0.000 C 
BRANCH  18  19
ATOM     19  C   UNL     1       1.710   8.442  19.294  0.00  0.00    +0.000 A 
ATOM     20  C   UNL     1       2.312   8.630  18.049  0.00  0.00    +0.000 A 
ATOM     21  C   UNL     1       3.129   7.641  17.507  0.00  0.00    +0.000 A 
ATOM     22  C   UNL     1       3.363   6.439  18.197  0.00  0.00    +0.000 A 
ATOM     23  C   UNL     1       4.320   5.443  17.604  0.00  0.00    +0.000 C 
ATOM     24  C   UNL     1       2.726   6.219  19.434  0.00  0.00    +0.000 A 
ATOM     25  C   UNL     1       2.907   4.963  20.242  0.00  0.00    +0.000 C 
ATOM     26  C   UNL     1       1.898   7.225  19.964  0.00  0.00    +0.000 A 
ENDBRANCH  18  19
ENDBRANCH  15  18
ENDBRANCH   1  12
BRANCH   2  27
ATOM     27  C   UNL     1      -0.360  16.381  18.640  0.00  0.00    +0.000 C 
BRANCH  27  28
ATOM     28  C   UNL     1       0.924  17.183  18.888  0.00  0.00    +0.000 C 
ATOM     29  C   UNL     1       2.128  16.612  18.139  0.00  0.00    +0.000 C 
ATOM     30  C   UNL     1       0.681  18.626  18.414  0.00  0.00    +0.000 C 
ENDBRANCH  27  28
ENDBRANCH   2  27
TORSDOF 7
ENDMDL
MODEL 7
REMARK VINA RESULT:      -6.8      3.960      9.079
REMARK  Name = 
REMARK  12 active torsions:
REMARK  status: ('A' for Active; 'I' for Inactive)
REMARK    1  A    between atoms: C_1  and  O_2
REMARK    2  A    between atoms: O_2  and  C_3
REMARK    3  A    between atoms: C_7  and  N_8
REMARK    4  A    between atoms: N_8  and  C_15
REMARK    5  A    between atoms: C_9  and  C_11
REMARK    6  A    between atoms: C_11  and  C_12
REMARK    7  A    between atoms: C_12  and  C_13
REMARK    8  A    between atoms: C_12  and  C_14
REMARK    9  A    between atoms: N_18  and  C_19
REMARK   10  A    between atoms: C_19  and  C_20
REMARK   11  A    between atoms: C_23  and  C_24
REMARK   12  A    between atoms: C_25  and  C_26
REMARK                            x       y       z     vdW  Elec       q    Type
REMARK                         _______ _______ _______ _____ _____    ______ ____
ROOT
ATOM      1  N   UNL     1      -0.319  12.497  21.253  0.00  0.00    +0.000 N 
ATOM      2  C   UNL     1      -0.971  12.990  22.440  0.00  0.00    +0.000 C 
ATOM      3  O   UNL     1      -0.910  14.141  22.861  0.00  0.00    +0.000 OA
ENDROOT
BRANCH   1   8
ATOM      4  C   UNL     1       2.716  14.312  19.724  0.00  0.00    +0.000 A 
ATOM      5  C   UNL     1       2.126  15.171  18.819  0.00  0.00    +0.000 A 
ATOM      6  C   UNL     1       0.743  15.163  18.704  0.00  0.00    +0.000 A 
ATOM      7  C   UNL     1      -0.047  14.301  19.496  0.00  0.00    +0.000 A 
ATOM      8  C   UNL     1       0.502  13.415  20.437  0.00  0.00    +0.000 A 
ATOM      9  C   UNL     1       1.898  13.481  20.522  0.00  0.00    +0.000 A 
BRANCH   4  11
ATOM     10  C   UNL     1       4.744  15.396  20.298  0.00  0.00    +0.000 C 
ATOM     11  O   UNL     1       4.066  14.193  19.939  0.00  0.00    +0.000 OA
ENDBRANCH   4  11
ENDBRANCH   1   8
BRANCH   1  12
ATOM     12  C   UNL     1      -0.580  11.077  20.821  0.00  0.00    +0.000 C 
ATOM     13  C   UNL     1       0.307   9.954  21.349  0.00  0.00    +0.000 C 
ATOM     14  C   UNL     1       1.343   9.439  20.370  0.00  0.00    +0.000 C 
ATOM     15  N   UNL     1       0.898   9.304  18.973  0.00  0.00    +0.000 NA
ATOM     16  C   UNL     1       0.031  10.364  18.439  0.00  0.00    +0.000 C 
ATOM     17  C   UNL     1      -1.050  10.867  19.383  0.00  0.00    +0.000 C 
BRANCH  15  18
ATOM     18  C   UNL     1       2.085   9.189  18.093  0.00  0.00    +0.000 C 
BRANCH  18  19
ATOM     19  C   UNL     1       2.629   7.786  17.961  0.00  0.00    +0.000 A 
ATOM     20  C   UNL     1       1.863   6.696  18.377  0.00  0.00    +0.000 A 
ATOM     21  C   UNL     1       2.315   5.397  18.161  0.00  0.00    +0.000 A 
ATOM     22  C   UNL     1       3.544   5.156  17.524  0.00  0.00    +0.000 A 
ATOM     23  C   UNL     1       3.942   3.735  17.242  0.00  0.00    +0.000 C 
ATOM     24  C   UNL     1       4.347   6.248  17.139  0.00  0.00    +0.000 A 
ATOM     25  C   UNL     1       5.681   6.092  16.461  0.00  0.00    +0.000 C 
ATOM     26  C   UNL     1       3.880   7.554  17.372  0.00  0.00    +0.000 A 
ENDBRANCH  18  19
ENDBRANCH  15  18
ENDBRANCH   1  12
BRANCH   2  27
ATOM     27  C   UNL     1      -1.821  11.976  23.223  0.00  0.00    +0.000 C 
BRANCH  27  28
ATOM     28  C   UNL     1      -3.337  12.197  23.310  0.00  0.00    +0.000 C 
ATOM     29  C   UNL     1      -3.728  13.169  24.422  0.00  0.00    +0.000 C 
ATOM     30  C   UNL     1      -3.811  12.766  21.962  0.00  0.00    +0.000 C 
ENDBRANCH  27  28
ENDBRANCH   2  27
TORSDOF 7
ENDMDL
MODEL 8
REMARK VINA RESULT:      -6.7      0.952      1.950
REMARK  Name = 
REMARK  12 active torsions:
REMARK  status: ('A' for Active; 'I' for Inactive)
REMARK    1  A    between atoms: C_1  and  O_2
REMARK    2  A    between atoms: O_2  and  C_3
REMARK    3  A    between atoms: C_7  and  N_8
REMARK    4  A    between atoms: N_8  and  C_15
REMARK    5  A    between atoms: C_9  and  C_11
REMARK    6  A    between atoms: C_11  and  C_12
REMARK    7  A    between atoms: C_12  and  C_13
REMARK    8  A    between atoms: C_12  and  C_14
REMARK    9  A    between atoms: N_18  and  C_19
REMARK   10  A    between atoms: C_19  and  C_20
REMARK   11  A    between atoms: C_23  and  C_24
REMARK   12  A    between atoms: C_25  and  C_26
REMARK                            x       y       z     vdW  Elec       q    Type
REMARK                         _______ _______ _______ _____ _____    ______ ____
ROOT
ATOM      1  N   UNL     1       3.875   4.331  19.014  0.00  0.00    +0.000 N 
ATOM      2  C   UNL     1       4.053   3.224  19.919  0.00  0.00    +0.000 C 
ATOM      3  O   UNL     1       5.078   2.560  20.042  0.00  0.00    +0.000 OA
ENDROOT
BRANCH   1   8
ATOM      4  C   UNL     1       7.044   6.094  17.713  0.00  0.00    +0.000 A 
ATOM      5  C   UNL     1       7.204   5.535  16.461  0.00  0.00    +0.000 A 
ATOM      6  C   UNL     1       6.284   4.587  16.037  0.00  0.00    +0.000 A 
ATOM      7  C   UNL     1       5.204   4.202  16.862  0.00  0.00    +0.000 A 
ATOM      8  C   UNL     1       4.991   4.745  18.139  0.00  0.00    +0.000 A 
ATOM      9  C   UNL     1       5.938   5.710  18.505  0.00  0.00    +0.000 A 
BRANCH   4  11
ATOM     10  C   UNL     1       7.833   8.328  17.690  0.00  0.00    +0.000 C 
ATOM     11  O   UNL     1       7.876   7.028  18.276  0.00  0.00    +0.000 OA
ENDBRANCH   4  11
ENDBRANCH   1   8
BRANCH   1  12
ATOM     12  C   UNL     1       2.582   5.104  19.062  0.00  0.00    +0.000 C 
ATOM     13  C   UNL     1       1.872   5.468  17.762  0.00  0.00    +0.000 C 
ATOM     14  C   UNL     1       2.035   6.909  17.323  0.00  0.00    +0.000 C 
ATOM     15  N   UNL     1       1.972   7.919  18.393  0.00  0.00    +0.000 NA
ATOM     16  C   UNL     1       2.636   7.592  19.664  0.00  0.00    +0.000 C 
ATOM     17  C   UNL     1       2.450   6.164  20.154  0.00  0.00    +0.000 C 
BRANCH  15  18
ATOM     18  C   UNL     1       2.535   9.195  17.892  0.00  0.00    +0.000 C 
BRANCH  18  19
ATOM     19  C   UNL     1       1.728  10.418  18.258  0.00  0.00    +0.000 A 
ATOM     20  C   UNL     1       2.325  11.679  18.246  0.00  0.00    +0.000 A 
ATOM     21  C   UNL     1       1.560  12.820  18.478  0.00  0.00    +0.000 A 
ATOM     22  C   UNL     1       0.181  12.727  18.728  0.00  0.00    +0.000 A 
ATOM     23  C   UNL     1      -0.610  13.994  18.889  0.00  0.00    +0.000 C 
ATOM     24  C   UNL     1      -0.425  11.456  18.786  0.00  0.00    +0.000 A 
ATOM     25  C   UNL     1      -1.891  11.252  19.057  0.00  0.00    +0.000 C 
ATOM     26  C   UNL     1       0.363  10.313  18.558  0.00  0.00    +0.000 A 
ENDBRANCH  18  19
ENDBRANCH  15  18
ENDBRANCH   1  12
BRANCH   2  27
ATOM     27  C   UNL     1       2.849   2.868  20.809  0.00  0.00    +0.000 C 
BRANCH  27  28
ATOM     28  C   UNL     1       1.669   2.113  20.184  0.00  0.00    +0.000 C 
ATOM     29  C   UNL     1       0.410   2.972  20.078  0.00  0.00    +0.000 C 
ATOM     30  C   UNL     1       2.086   1.664  18.773  0.00  0.00    +0.000 C 
ENDBRANCH  27  28
ENDBRANCH   2  27
TORSDOF 7
ENDMDL
MODEL 9
REMARK VINA RESULT:      -6.7      3.790      9.078
REMARK  Name = 
REMARK  12 active torsions:
REMARK  status: ('A' for Active; 'I' for Inactive)
REMARK    1  A    between atoms: C_1  and  O_2
REMARK    2  A    between atoms: O_2  and  C_3
REMARK    3  A    between atoms: C_7  and  N_8
REMARK    4  A    between atoms: N_8  and  C_15
REMARK    5  A    between atoms: C_9  and  C_11
REMARK    6  A    between atoms: C_11  and  C_12
REMARK    7  A    between atoms: C_12  and  C_13
REMARK    8  A    between atoms: C_12  and  C_14
REMARK    9  A    between atoms: N_18  and  C_19
REMARK   10  A    between atoms: C_19  and  C_20
REMARK   11  A    between atoms: C_23  and  C_24
REMARK   12  A    between atoms: C_25  and  C_26
REMARK                            x       y       z     vdW  Elec       q    Type
REMARK                         _______ _______ _______ _____ _____    ______ ____
ROOT
ATOM      1  N   UNL     1      -0.269  12.531  20.109  0.00  0.00    +0.000 N 
ATOM      2  C   UNL     1      -1.391  13.342  20.509  0.00  0.00    +0.000 C 
ATOM      3  O   UNL     1      -1.397  14.568  20.575  0.00  0.00    +0.000 OA
ENDROOT
BRANCH   1   8
ATOM      4  C   UNL     1       3.231  14.124  20.342  0.00  0.00    +0.000 A 
ATOM      5  C   UNL     1       3.518  14.410  19.022  0.00  0.00    +0.000 A 
ATOM      6  C   UNL     1       2.576  14.087  18.056  0.00  0.00    +0.000 A 
ATOM      7  C   UNL     1       1.349  13.484  18.409  0.00  0.00    +0.000 A 
ATOM      8  C   UNL     1       1.005  13.180  19.736  0.00  0.00    +0.000 A 
ATOM      9  C   UNL     1       1.984  13.546  20.668  0.00  0.00    +0.000 A 
BRANCH   4  11
ATOM     10  C   UNL     1       3.543  15.230  22.414  0.00  0.00    +0.000 C 
ATOM     11  O   UNL     1       4.064  14.369  21.404  0.00  0.00    +0.000 OA
ENDBRANCH   4  11
ENDBRANCH   1   8
BRANCH   1  12
ATOM     12  C   UNL     1      -0.461  11.041  19.985  0.00  0.00    +0.000 C 
ATOM     13  C   UNL     1       0.345  10.100  20.873  0.00  0.00    +0.000 C 
ATOM     14  C   UNL     1       1.512   9.414  20.191  0.00  0.00    +0.000 C 
ATOM     15  N   UNL     1       1.270   8.948  18.815  0.00  0.00    +0.000 NA
ATOM     16  C   UNL     1       0.483   9.828  17.938  0.00  0.00    +0.000 C 
ATOM     17  C   UNL     1      -0.722  10.493  18.583  0.00  0.00    +0.000 C 
BRANCH  15  18
ATOM     18  C   UNL     1       2.569   8.679  18.156  0.00  0.00    +0.000 C 
BRANCH  18  19
ATOM     19  C   UNL     1       2.926   7.215  18.059  0.00  0.00    +0.000 A 
ATOM     20  C   UNL     1       2.134   6.257  18.694  0.00  0.00    +0.000 A 
ATOM     21  C   UNL     1       2.397   4.901  18.520  0.00  0.00    +0.000 A 
ATOM     22  C   UNL     1       3.459   4.469  17.708  0.00  0.00    +0.000 A 
ATOM     23  C   UNL     1       3.644   2.994  17.489  0.00  0.00    +0.000 C 
ATOM     24  C   UNL     1       4.293   5.426  17.097  0.00  0.00    +0.000 A 
ATOM     25  C   UNL     1       5.459   5.063  16.217  0.00  0.00    +0.000 C 
ATOM     26  C   UNL     1       4.019   6.792  17.288  0.00  0.00    +0.000 A 
ENDBRANCH  18  19
ENDBRANCH  15  18
ENDBRANCH   1  12
BRANCH   2  27
ATOM     27  C   UNL     1      -2.685  12.591  20.863  0.00  0.00    +0.000 C 
BRANCH  27  28
ATOM     28  C   UNL     1      -2.992  12.308  22.340  0.00  0.00    +0.000 C 
ATOM     29  C   UNL     1      -1.782  12.532  23.246  0.00  0.00    +0.000 C 
ATOM     30  C   UNL     1      -4.124  13.252  22.778  0.00  0.00    +0.000 C 
ENDBRANCH  27  28
ENDBRANCH   2  27
TORSDOF 7
ENDMDL
