MODEL 1
REMARK VINA RESULT:      -6.5      0.000      0.000
REMARK  Name = 
REMARK  10 active torsions:
REMARK  status: ('A' for Active; 'I' for Inactive)
REMARK    1  A    between atoms: C_1  and  C_2
REMARK    2  A    between atoms: C_2  and  N_3
REMARK    3  A    between atoms: N_3  and  C_4
REMARK    4  A    between atoms: N_3  and  C_6
REMARK    5  A    between atoms: C_4  and  C_5
REMARK    6  A    between atoms: C_6  and  C_7
REMARK    7  A    between atoms: N_9  and  C_10
REMARK    8  A    between atoms: C_10  and  C_11
REMARK    9  A    between atoms: N_15  and  C_16
REMARK   10  A    between atoms: C_17  and  C_18
REMARK                            x       y       z     vdW  Elec       q    Type
REMARK                         _______ _______ _______ _____ _____    ______ ____
ROOT
ATOM      1  C   UNL     1       3.674   4.407  20.286  0.00  0.00    +0.000 C 
ATOM      2  C   UNL     1       2.720   3.946  21.400  0.00  0.00    +0.000 C 
ATOM      3  C   UNL     1       1.505   3.172  20.881  0.00  0.00    +0.000 C 
ATOM      4  C   UNL     1       0.906   3.690  19.564  0.00  0.00    +0.000 C 
ATOM      5  N   UNL     1       1.899   4.129  18.582  0.00  0.00    +0.000 NA
ATOM      6  C   UNL     1       1.280   4.606  17.348  0.00  0.00    +0.000 C 
ATOM      7  C   UNL     1       2.902   5.074  19.118  0.00  0.00    +0.000 C 
ENDROOT
BRANCH   7   8
ATOM      8  C   UNL     1       2.337   6.455  19.479  0.00  0.00    +0.000 A 
ATOM      9  C   UNL     1       1.677   6.896  20.616  0.00  0.00    +0.000 A 
ATOM     10  C   UNL     1       1.227   8.242  20.527  0.00  0.00    +0.000 A 
ATOM     11  C   UNL     1       1.583   8.818  19.332  0.00  0.00    +0.000 A 
ATOM     12  S   UNL     1       2.458   7.742  18.334  0.00  0.00    +0.000 S 
ENDBRANCH   7   8
BRANCH   1  13
ATOM     13  C   UNL     1       4.571   3.236  19.804  0.00  0.00    +0.000 C 
BRANCH  13  16
ATOM     14  C   UNL     1       6.432   4.512  18.734  0.00  0.00    +0.000 C 
ATOM     15  O   UNL     1       6.764   5.100  19.765  0.00  0.00    +0.000 OA
ATOM     16  N   UNL     1       5.428   3.578  18.692  0.00  0.00    +0.000 N 
ATOM     17  H   UNL     1       5.158   3.250  17.763  0.00  0.00    +0.000 HD
BRANCH  14  18
ATOM     18  C   UNL     1       7.178   4.712  17.406  0.00  0.00    +0.000 C 
BRANCH  18  19
ATOM     19  N   UNL     1       6.585   5.771  16.546  0.00  0.00    +0.000 NA
BRANCH  19  21
ATOM     20  C   UNL     1       5.557   4.414  14.700  0.00  0.00    +0.000 C 
ATOM     21  C   UNL     1       5.333   5.307  15.917  0.00  0.00    +0.000 C 
ENDBRANCH  19  21
BRANCH  19  22
ATOM     22  C   UNL     1       6.424   7.029  17.304  0.00  0.00    +0.000 C 
ATOM     23  C   UNL     1       7.693   7.845  17.555  0.00  0.00    +0.000 C 
ENDBRANCH  19  22
ENDBRANCH  18  19
ENDBRANCH  14  18
ENDBRANCH  13  16
ENDBRANCH   1  13
TORSDOF 7
ENDMDL
MODEL 2
REMARK VINA RESULT:      -6.4      0.924      1.642
REMARK  Name = 
REMARK  10 active torsions:
REMARK  status: ('A' for Active; 'I' for Inactive)
REMARK    1  A    between atoms: C_1  and  C_2
REMARK    2  A    between atoms: C_2  and  N_3
REMARK    3  A    between atoms: N_3  and  C_4
REMARK    4  A    between atoms: N_3  and  C_6
REMARK    5  A    between atoms: C_4  and  C_5
REMARK    6  A    between atoms: C_6  and  C_7
REMARK    7  A    between atoms: N_9  and  C_10
REMARK    8  A    between atoms: C_10  and  C_11
REMARK    9  A    between atoms: N_15  and  C_16
REMARK   10  A    between atoms: C_17  and  C_18
REMARK                            x       y       z     vdW  Elec       q    Type
REMARK                         _______ _______ _______ _____ _____    ______ ____
ROOT
ATOM      1  C   UNL     1       3.521   4.172  20.452  0.00  0.00    +0.000 C 
ATOM      2  C   UNL     1       2.503   3.584  21.443  0.00  0.00    +0.000 C 
ATOM      3  C   UNL     1       1.332   2.870  20.763  0.00  0.00    +0.000 C 
ATOM      4  C   UNL     1       0.811   3.533  19.478  0.00  0.00    +0.000 C 
ATOM      5  N   UNL     1       1.860   4.085  18.618  0.00  0.00    +0.000 NA
ATOM      6  C   UNL     1       1.315   4.697  17.408  0.00  0.00    +0.000 C 
ATOM      7  C   UNL     1       2.816   4.966  19.320  0.00  0.00    +0.000 C 
ENDROOT
BRANCH   7   8
ATOM      8  C   UNL     1       2.215   6.295  19.799  0.00  0.00    +0.000 A 
ATOM      9  C   UNL     1       1.508   6.607  20.950  0.00  0.00    +0.000 A 
ATOM     10  C   UNL     1       1.038   7.949  20.982  0.00  0.00    +0.000 A 
ATOM     11  C   UNL     1       1.426   8.650  19.866  0.00  0.00    +0.000 A 
ATOM     12  S   UNL     1       2.355   7.693  18.797  0.00  0.00    +0.000 S 
ENDBRANCH   7   8
BRANCH   1  13
ATOM     13  C   UNL     1       4.458   3.067  19.899  0.00  0.00    +0.000 C 
BRANCH  13  16
ATOM     14  C   UNL     1       6.179   4.475  18.761  0.00  0.00    +0.000 C 
ATOM     15  O   UNL     1       6.528   5.065  19.785  0.00  0.00    +0.000 OA
ATOM     16  N   UNL     1       5.233   3.481  18.751  0.00  0.00    +0.000 N 
ATOM     17  H   UNL     1       4.935   3.153  17.830  0.00  0.00    +0.000 HD
BRANCH  14  18
ATOM     18  C   UNL     1       6.840   4.744  17.401  0.00  0.00    +0.000 C 
BRANCH  18  19
ATOM     19  N   UNL     1       6.010   4.316  16.242  0.00  0.00    +0.000 NA
BRANCH  19  21
ATOM     20  C   UNL     1       5.084   6.644  16.416  0.00  0.00    +0.000 C 
ATOM     21  C   UNL     1       4.820   5.176  16.093  0.00  0.00    +0.000 C 
ENDBRANCH  19  21
BRANCH  19  22
ATOM     22  C   UNL     1       6.828   4.235  15.015  0.00  0.00    +0.000 C 
ATOM     23  C   UNL     1       6.093   3.882  13.722  0.00  0.00    +0.000 C 
ENDBRANCH  19  22
ENDBRANCH  18  19
ENDBRANCH  14  18
ENDBRANCH  13  16
ENDBRANCH   1  13
TORSDOF 7
ENDMDL
MODEL 3
REMARK VINA RESULT:      -6.4      3.152      6.532
REMARK  Name = 
REMARK  10 active torsions:
REMARK  status: ('A' for Active; 'I' for Inactive)
REMARK    1  A    between atoms: C_1  and  C_2
REMARK    2  A    between atoms: C_2  and  N_3
REMARK    3  A    between atoms: N_3  and  C_4
REMARK    4  A    between atoms: N_3  and  C_6
REMARK    5  A    between atoms: C_4  and  C_5
REMARK    6  A    between atoms: C_6  and  C_7
REMARK    7  A    between atoms: N_9  and  C_10
REMARK    8  A    between atoms: C_10  and  C_11
REMARK    9  A    between atoms: N_15  and  C_16
REMARK   10  A    between atoms: C_17  and  C_18
REMARK                            x       y       z     vdW  Elec       q    Type
REMARK                         _______ _______ _______ _____ _____    ______ ____
ROOT
ATOM      1  C   UNL     1       2.856   5.689  18.990  0.00  0.00    +0.000 C 
ATOM      2  C   UNL     1       1.857   5.222  17.919  0.00  0.00    +0.000 C 
ATOM      3  C   UNL     1       1.389   3.777  18.109  0.00  0.00    +0.000 C 
ATOM      4  C   UNL     1       2.465   2.793  18.593  0.00  0.00    +0.000 C 
ATOM      5  N   UNL     1       3.381   3.345  19.593  0.00  0.00    +0.000 NA
ATOM      6  C   UNL     1       4.380   2.370  20.024  0.00  0.00    +0.000 C 
ATOM      7  C   UNL     1       3.979   4.642  19.213  0.00  0.00    +0.000 C 
ENDROOT
BRANCH   7   8
ATOM      8  C   UNL     1       4.970   4.562  18.042  0.00  0.00    +0.000 A 
ATOM      9  C   UNL     1       4.798   4.118  16.740  0.00  0.00    +0.000 A 
ATOM     10  C   UNL     1       5.999   4.119  15.976  0.00  0.00    +0.000 A 
ATOM     11  C   UNL     1       7.062   4.597  16.703  0.00  0.00    +0.000 A 
ATOM     12  S   UNL     1       6.608   5.046  18.288  0.00  0.00    +0.000 S 
ENDBRANCH   7   8
BRANCH   1  13
ATOM     13  C   UNL     1       2.124   6.053  20.309  0.00  0.00    +0.000 C 
BRANCH  13  16
ATOM     14  C   UNL     1       1.006   8.149  21.082  0.00  0.00    +0.000 C 
ATOM     15  O   UNL     1      -0.036   7.592  21.430  0.00  0.00    +0.000 OA
ATOM     16  N   UNL     1       2.091   7.472  20.584  0.00  0.00    +0.000 N 
ATOM     17  H   UNL     1       2.848   8.047  20.212  0.00  0.00    +0.000 HD
BRANCH  14  18
ATOM     18  C   UNL     1       1.219   9.661  21.256  0.00  0.00    +0.000 C 
BRANCH  18  19
ATOM     19  N   UNL     1       0.141  10.485  20.646  0.00  0.00    +0.000 NA
BRANCH  19  21
ATOM     20  C   UNL     1      -0.722  12.113  22.352  0.00  0.00    +0.000 C 
ATOM     21  C   UNL     1       0.183  11.872  21.148  0.00  0.00    +0.000 C 
ENDBRANCH  19  21
BRANCH  19  22
ATOM     22  C   UNL     1       0.187  10.397  19.172  0.00  0.00    +0.000 C 
ATOM     23  C   UNL     1      -1.158  10.340  18.446  0.00  0.00    +0.000 C 
ENDBRANCH  19  22
ENDBRANCH  18  19
ENDBRANCH  14  18
ENDBRANCH  13  16
ENDBRANCH   1  13
TORSDOF 7
ENDMDL
MODEL 4
REMARK VINA RESULT:      -6.4      3.088      6.342
REMARK  Name = 
REMARK  10 active torsions:
REMARK  status: ('A' for Active; 'I' for Inactive)
REMARK    1  A    between atoms: C_1  and  C_2
REMARK    2  A    between atoms: C_2  and  N_3
REMARK    3  A    between atoms: N_3  and  C_4
REMARK    4  A    between atoms: N_3  and  C_6
REMARK    5  A    between atoms: C_4  and  C_5
REMARK    6  A    between atoms: C_6  and  C_7
REMARK    7  A    between atoms: N_9  and  C_10
REMARK    8  A    between atoms: C_10  and  C_11
REMARK    9  A    between atoms: N_15  and  C_16
REMARK   10  A    between atoms: C_17  and  C_18
REMARK                            x       y       z     vdW  Elec       q    Type
REMARK                         _______ _______ _______ _____ _____    ______ ____
ROOT
ATOM      1  C   UNL     1       2.785   5.727  19.147  0.00  0.00    +0.000 C 
ATOM      2  C   UNL     1       1.952   5.322  17.920  0.00  0.00    +0.000 C 
ATOM      3  C   UNL     1       1.507   3.858  17.940  0.00  0.00    +0.000 C 
ATOM      4  C   UNL     1       2.539   2.862  18.491  0.00  0.00    +0.000 C 
ATOM      5  N   UNL     1       3.298   3.355  19.642  0.00  0.00    +0.000 NA
ATOM      6  C   UNL     1       4.260   2.370  20.132  0.00  0.00    +0.000 C 
ATOM      7  C   UNL     1       3.901   4.689  19.442  0.00  0.00    +0.000 C 
ENDROOT
BRANCH   7   8
ATOM      8  C   UNL     1       5.039   4.719  18.412  0.00  0.00    +0.000 A 
ATOM      9  C   UNL     1       5.067   4.332  17.081  0.00  0.00    +0.000 A 
ATOM     10  C   UNL     1       6.355   4.433  16.486  0.00  0.00    +0.000 A 
ATOM     11  C   UNL     1       7.284   4.930  17.368  0.00  0.00    +0.000 A 
ATOM     12  S   UNL     1       6.600   5.276  18.895  0.00  0.00    +0.000 S 
ENDBRANCH   7   8
BRANCH   1  13
ATOM     13  C   UNL     1       1.874   5.974  20.378  0.00  0.00    +0.000 C 
BRANCH  13  16
ATOM     14  C   UNL     1       0.939   8.069  21.367  0.00  0.00    +0.000 C 
ATOM     15  O   UNL     1      -0.222   7.659  21.407  0.00  0.00    +0.000 OA
ATOM     16  N   UNL     1       1.992   7.303  20.933  0.00  0.00    +0.000 N 
ATOM     17  H   UNL     1       2.886   7.787  20.825  0.00  0.00    +0.000 HD
BRANCH  14  18
ATOM     18  C   UNL     1       1.330   9.461  21.885  0.00  0.00    +0.000 C 
BRANCH  18  19
ATOM     19  N   UNL     1       0.911  10.569  20.984  0.00  0.00    +0.000 NA
BRANCH  19  21
ATOM     20  C   UNL     1      -0.709  10.683  19.069  0.00  0.00    +0.000 C 
ATOM     21  C   UNL     1       0.560  10.061  19.644  0.00  0.00    +0.000 C 
ENDBRANCH  19  21
BRANCH  19  22
ATOM     22  C   UNL     1      -0.164  11.368  21.605  0.00  0.00    +0.000 C 
ATOM     23  C   UNL     1      -0.831  10.775  22.847  0.00  0.00    +0.000 C 
ENDBRANCH  19  22
ENDBRANCH  18  19
ENDBRANCH  14  18
ENDBRANCH  13  16
ENDBRANCH   1  13
TORSDOF 7
ENDMDL
MODEL 5
REMARK VINA RESULT:      -6.4      3.086      6.121
REMARK  Name = 
REMARK  10 active torsions:
REMARK  status: ('A' for Active; 'I' for Inactive)
REMARK    1  A    between atoms: C_1  and  C_2
REMARK    2  A    between atoms: C_2  and  N_3
REMARK    3  A    between atoms: N_3  and  C_4
REMARK    4  A    between atoms: N_3  and  C_6
REMARK    5  A    between atoms: C_4  and  C_5
REMARK    6  A    between atoms: C_6  and  C_7
REMARK    7  A    between atoms: N_9  and  C_10
REMARK    8  A    between atoms: C_10  and  C_11
REMARK    9  A    between atoms: N_15  and  C_16
REMARK   10  A    between atoms: C_17  and  C_18
REMARK                            x       y       z     vdW  Elec       q    Type
REMARK                         _______ _______ _______ _____ _____    ______ ____
ROOT
ATOM      1  C   UNL     1       2.989   6.101  19.090  0.00  0.00    +0.000 C 
ATOM      2  C   UNL     1       2.169   5.780  17.829  0.00  0.00    +0.000 C 
ATOM      3  C   UNL     1       1.584   4.366  17.825  0.00  0.00    +0.000 C 
ATOM      4  C   UNL     1       2.492   3.274  18.412  0.00  0.00    +0.000 C 
ATOM      5  N   UNL     1       3.249   3.691  19.595  0.00  0.00    +0.000 NA
ATOM      6  C   UNL     1       4.091   2.617  20.118  0.00  0.00    +0.000 C 
ATOM      7  C   UNL     1       3.986   4.960  19.423  0.00  0.00    +0.000 C 
ENDROOT
BRANCH   7   8
ATOM      8  C   UNL     1       5.162   4.879  18.439  0.00  0.00    +0.000 A 
ATOM      9  C   UNL     1       5.224   4.399  17.140  0.00  0.00    +0.000 A 
ATOM     10  C   UNL     1       6.536   4.415  16.590  0.00  0.00    +0.000 A 
ATOM     11  C   UNL     1       7.449   4.940  17.471  0.00  0.00    +0.000 A 
ATOM     12  S   UNL     1       6.723   5.416  18.943  0.00  0.00    +0.000 S 
ENDBRANCH   7   8
BRANCH   1  13
ATOM     13  C   UNL     1       2.058   6.436  20.285  0.00  0.00    +0.000 C 
BRANCH  13  16
ATOM     14  C   UNL     1       0.774   8.423  21.084  0.00  0.00    +0.000 C 
ATOM     15  O   UNL     1      -0.154   7.767  21.560  0.00  0.00    +0.000 OA
ATOM     16  N   UNL     1       1.880   7.853  20.505  0.00  0.00    +0.000 N 
ATOM     17  H   UNL     1       2.522   8.493  20.035  0.00  0.00    +0.000 HD
BRANCH  14  18
ATOM     18  C   UNL     1       0.817   9.957  21.175  0.00  0.00    +0.000 C 
BRANCH  18  19
ATOM     19  N   UNL     1       0.696  10.632  19.855  0.00  0.00    +0.000 NA
BRANCH  19  21
ATOM     20  C   UNL     1      -0.995  10.102  18.075  0.00  0.00    +0.000 C 
ATOM     21  C   UNL     1      -0.716  10.732  19.436  0.00  0.00    +0.000 C 
ENDBRANCH  19  21
BRANCH  19  22
ATOM     22  C   UNL     1       1.393  11.934  19.868  0.00  0.00    +0.000 C 
ATOM     23  C   UNL     1       2.110  12.342  18.581  0.00  0.00    +0.000 C 
ENDBRANCH  19  22
ENDBRANCH  18  19
ENDBRANCH  14  18
ENDBRANCH  13  16
ENDBRANCH   1  13
TORSDOF 7
ENDMDL
MODEL 6
REMARK VINA RESULT:      -6.2      3.767      6.295
REMARK  Name = 
REMARK  10 active torsions:
REMARK  status: ('A' for Active; 'I' for Inactive)
REMARK    1  A    between atoms: C_1  and  C_2
REMARK    2  A    between atoms: C_2  and  N_3
REMARK    3  A    between atoms: N_3  and  C_4
REMARK    4  A    between atoms: N_3  and  C_6
REMARK    5  A    between atoms: C_4  and  C_5
REMARK    6  A    between atoms: C_6  and  C_7
REMARK    7  A    between atoms: N_9  and  C_10
REMARK    8  A    between atoms: C_10  and  C_11
REMARK    9  A    between atoms: N_15  and  C_16
REMARK   10  A    between atoms: C_17  and  C_18
REMARK                            x       y       z     vdW  Elec       q    Type
REMARK                         _______ _______ _______ _____ _____    ______ ____
ROOT
ATOM      1  C   UNL     1       6.621   7.009  17.956  0.00  0.00    +0.000 C 
ATOM      2  C   UNL     1       7.250   5.860  18.761  0.00  0.00    +0.000 C 
ATOM      3  C   UNL     1       7.884   4.777  17.885  0.00  0.00    +0.000 C 
ATOM      4  C   UNL     1       7.122   4.442  16.593  0.00  0.00    +0.000 C 
ATOM      5  N   UNL     1       6.540   5.605  15.919  0.00  0.00    +0.000 NA
ATOM      6  C   UNL     1       5.832   5.235  14.695  0.00  0.00    +0.000 C 
ATOM      7  C   UNL     1       5.734   6.474  16.802  0.00  0.00    +0.000 C 
ENDROOT
BRANCH   7   8
ATOM      8  C   UNL     1       4.425   5.838  17.291  0.00  0.00    +0.000 A 
ATOM      9  C   UNL     1       3.975   4.529  17.225  0.00  0.00    +0.000 A 
ATOM     10  C   UNL     1       2.651   4.357  17.716  0.00  0.00    +0.000 A 
ATOM     11  C   UNL     1       2.125   5.538  18.181  0.00  0.00    +0.000 A 
ATOM     12  S   UNL     1       3.227   6.836  18.031  0.00  0.00    +0.000 S 
ENDBRANCH   7   8
BRANCH   1  13
ATOM     13  C   UNL     1       7.711   7.993  17.453  0.00  0.00    +0.000 C 
BRANCH  13  16
ATOM     14  C   UNL     1       8.802   9.918  18.610  0.00  0.00    +0.000 C 
ATOM     15  O   UNL     1       8.359  10.771  17.839  0.00  0.00    +0.000 OA
ATOM     16  N   UNL     1       8.496   8.585  18.513  0.00  0.00    +0.000 N 
ATOM     17  H   UNL     1       9.018   7.957  19.126  0.00  0.00    +0.000 HD
BRANCH  14  18
ATOM     18  C   UNL     1       9.678  10.288  19.817  0.00  0.00    +0.000 C 
BRANCH  18  19
ATOM     19  N   UNL     1       9.739  11.751  20.080  0.00  0.00    +0.000 NA
BRANCH  19  21
ATOM     20  C   UNL     1       9.161  13.555  21.729  0.00  0.00    +0.000 C 
ATOM     21  C   UNL     1       8.968  12.108  21.286  0.00  0.00    +0.000 C 
ENDBRANCH  19  21
BRANCH  19  22
ATOM     22  C   UNL     1      11.140  12.216  20.125  0.00  0.00    +0.000 C 
ATOM     23  C   UNL     1      12.097  11.612  19.097  0.00  0.00    +0.000 C 
ENDBRANCH  19  22
ENDBRANCH  18  19
ENDBRANCH  14  18
ENDBRANCH  13  16
ENDBRANCH   1  13
TORSDOF 7
ENDMDL
MODEL 7
REMARK VINA RESULT:      -6.2      3.253      5.670
REMARK  Name = 
REMARK  10 active torsions:
REMARK  status: ('A' for Active; 'I' for Inactive)
REMARK    1  A    between atoms: C_1  and  C_2
REMARK    2  A    between atoms: C_2  and  N_3
REMARK    3  A    between atoms: N_3  and  C_4
REMARK    4  A    between atoms: N_3  and  C_6
REMARK    5  A    between atoms: C_4  and  C_5
REMARK    6  A    between atoms: C_6  and  C_7
REMARK    7  A    between atoms: N_9  and  C_10
REMARK    8  A    between atoms: C_10  and  C_11
REMARK    9  A    between atoms: N_15  and  C_16
REMARK   10  A    between atoms: C_17  and  C_18
REMARK                            x       y       z     vdW  Elec       q    Type
REMARK                         _______ _______ _______ _____ _____    ______ ____
ROOT
ATOM      1  C   UNL     1       5.422   4.160  16.529  0.00  0.00    +0.000 C 
ATOM      2  C   UNL     1       4.752   5.431  15.979  0.00  0.00    +0.000 C 
ATOM      3  C   UNL     1       5.490   6.719  16.352  0.00  0.00    +0.000 C 
ATOM      4  C   UNL     1       6.085   6.753  17.768  0.00  0.00    +0.000 C 
ATOM      5  N   UNL     1       6.674   5.485  18.205  0.00  0.00    +0.000 NA
ATOM      6  C   UNL     1       7.231   5.571  19.553  0.00  0.00    +0.000 C 
ATOM      7  C   UNL     1       5.788   4.315  18.028  0.00  0.00    +0.000 C 
ENDROOT
BRANCH   7   8
ATOM      8  C   UNL     1       4.562   4.307  18.952  0.00  0.00    +0.000 A 
ATOM      9  C   UNL     1       3.749   5.342  19.388  0.00  0.00    +0.000 A 
ATOM     10  C   UNL     1       2.758   4.933  20.322  0.00  0.00    +0.000 A 
ATOM     11  C   UNL     1       2.811   3.581  20.558  0.00  0.00    +0.000 A 
ATOM     12  S   UNL     1       4.042   2.817  19.651  0.00  0.00    +0.000 S 
ENDBRANCH   7   8
BRANCH   1  13
ATOM     13  C   UNL     1       6.647   3.762  15.664  0.00  0.00    +0.000 C 
BRANCH  13  16
ATOM     14  C   UNL     1       6.757   4.301  13.227  0.00  0.00    +0.000 C 
ATOM     15  O   UNL     1       7.542   5.241  13.361  0.00  0.00    +0.000 OA
ATOM     16  N   UNL     1       6.326   3.526  14.274  0.00  0.00    +0.000 N 
ATOM     17  H   UNL     1       5.582   2.859  14.063  0.00  0.00    +0.000 HD
BRANCH  14  18
ATOM     18  C   UNL     1       6.250   3.854  11.847  0.00  0.00    +0.000 C 
BRANCH  18  19
ATOM     19  N   UNL     1       5.682   2.479  11.841  0.00  0.00    +0.000 NA
BRANCH  19  21
ATOM     20  C   UNL     1       3.789   3.842  10.910  0.00  0.00    +0.000 C 
ATOM     21  C   UNL     1       4.355   2.454  11.196  0.00  0.00    +0.000 C 
ENDBRANCH  19  21
BRANCH  19  22
ATOM     22  C   UNL     1       6.637   1.523  11.246  0.00  0.00    +0.000 C 
ATOM     23  C   UNL     1       6.217   0.053  11.232  0.00  0.00    +0.000 C 
ENDBRANCH  19  22
ENDBRANCH  18  19
ENDBRANCH  14  18
ENDBRANCH  13  16
ENDBRANCH   1  13
TORSDOF 7
ENDMDL
MODEL 8
REMARK VINA RESULT:      -6.1      5.181      8.696
REMARK  Name = 
REMARK  10 active torsions:
REMARK  status: ('A' for Active; 'I' for Inactive)
REMARK    1  A    between atoms: C_1  and  C_2
REMARK    2  A    between atoms: C_2  and  N_3
REMARK    3  A    between atoms: N_3  and  C_4
REMARK    4  A    between atoms: N_3  and  C_6
REMARK    5  A    between atoms: C_4  and  C_5
REMARK    6  A    between atoms: C_6  and  C_7
REMARK    7  A    between atoms: N_9  and  C_10
REMARK    8  A    between atoms: C_10  and  C_11
REMARK    9  A    between atoms: N_15  and  C_16
REMARK   10  A    between atoms: C_17  and  C_18
REMARK                            x       y       z     vdW  Elec       q    Type
REMARK                         _______ _______ _______ _____ _____    ______ ____
ROOT
ATOM      1  C   UNL     1       9.262  11.314  18.301  0.00  0.00    +0.000 C 
ATOM      2  C   UNL     1      10.686  11.469  17.740  0.00  0.00    +0.000 C 
ATOM      3  C   UNL     1      11.760  11.584  18.825  0.00  0.00    +0.000 C 
ATOM      4  C   UNL     1      11.362  12.402  20.063  0.00  0.00    +0.000 C 
ATOM      5  N   UNL     1       9.978  12.203  20.498  0.00  0.00    +0.000 NA
ATOM      6  C   UNL     1       9.652  12.997  21.681  0.00  0.00    +0.000 C 
ATOM      7  C   UNL     1       8.979  12.350  19.420  0.00  0.00    +0.000 C 
ENDROOT
BRANCH   7   8
ATOM      8  C   UNL     1       8.828  13.784  18.891  0.00  0.00    +0.000 A 
ATOM      9  C   UNL     1       9.637  14.527  18.045  0.00  0.00    +0.000 A 
ATOM     10  C   UNL     1       9.193  15.866  17.865  0.00  0.00    +0.000 A 
ATOM     11  C   UNL     1       8.030  16.112  18.554  0.00  0.00    +0.000 A 
ATOM     12  S   UNL     1       7.479  14.734  19.401  0.00  0.00    +0.000 S 
ENDBRANCH   7   8
BRANCH   1  13
ATOM     13  C   UNL     1       9.007   9.858  18.771  0.00  0.00    +0.000 C 
BRANCH  13  16
ATOM     14  C   UNL     1       7.832   7.792  18.004  0.00  0.00    +0.000 C 
ATOM     15  O   UNL     1       8.398   7.044  18.804  0.00  0.00    +0.000 OA
ATOM     16  N   UNL     1       8.040   9.147  17.965  0.00  0.00    +0.000 N 
ATOM     17  H   UNL     1       7.614   9.645  17.182  0.00  0.00    +0.000 HD
BRANCH  14  18
ATOM     18  C   UNL     1       6.766   7.278  17.024  0.00  0.00    +0.000 C 
BRANCH  18  19
ATOM     19  N   UNL     1       6.386   5.858  17.251  0.00  0.00    +0.000 NA
BRANCH  19  21
ATOM     20  C   UNL     1       4.177   7.047  17.376  0.00  0.00    +0.000 C 
ATOM     21  C   UNL     1       4.930   5.722  17.453  0.00  0.00    +0.000 C 
ENDBRANCH  19  21
BRANCH  19  22
ATOM     22  C   UNL     1       6.907   4.998  16.169  0.00  0.00    +0.000 C 
ATOM     23  C   UNL     1       5.976   4.749  14.983  0.00  0.00    +0.000 C 
ENDBRANCH  19  22
ENDBRANCH  18  19
ENDBRANCH  14  18
ENDBRANCH  13  16
ENDBRANCH   1  13
TORSDOF 7
ENDMDL
MODEL 9
REMARK VINA RESULT:      -6.1      2.702      6.193
REMARK  Name = 
REMARK  10 active torsions:
REMARK  status: ('A' for Active; 'I' for Inactive)
REMARK    1  A    between atoms: C_1  and  C_2
REMARK    2  A    between atoms: C_2  and  N_3
REMARK    3  A    between atoms: N_3  and  C_4
REMARK    4  A    between atoms: N_3  and  C_6
REMARK    5  A    between atoms: C_4  and  C_5
REMARK    6  A    between atoms: C_6  and  C_7
REMARK    7  A    between atoms: N_9  and  C_10
REMARK    8  A    between atoms: C_10  and  C_11
REMARK    9  A    between atoms: N_15  and  C_16
REMARK   10  A    between atoms: C_17  and  C_18
REMARK                            x       y       z     vdW  Elec       q    Type
REMARK                         _______ _______ _______ _____ _____    ______ ____
ROOT
ATOM      1  C   UNL     1       2.529   4.993  19.286  0.00  0.00    +0.000 C 
ATOM      2  C   UNL     1       1.693   4.403  18.138  0.00  0.00    +0.000 C 
ATOM      3  C   UNL     1       1.535   2.883  18.217  0.00  0.00    +0.000 C 
ATOM      4  C   UNL     1       2.776   2.114  18.696  0.00  0.00    +0.000 C 
ATOM      5  N   UNL     1       3.516   2.776  19.773  0.00  0.00    +0.000 NA
ATOM      6  C   UNL     1       4.682   2.003  20.196  0.00  0.00    +0.000 C 
ATOM      7  C   UNL     1       3.839   4.192  19.502  0.00  0.00    +0.000 C 
ENDROOT
BRANCH   7   8
ATOM      8  C   UNL     1       4.867   4.402  18.381  0.00  0.00    +0.000 A 
ATOM      9  C   UNL     1       4.857   3.998  17.055  0.00  0.00    +0.000 A 
ATOM     10  C   UNL     1       6.054   4.314  16.355  0.00  0.00    +0.000 A 
ATOM     11  C   UNL     1       6.946   4.987  17.153  0.00  0.00    +0.000 A 
ATOM     12  S   UNL     1       6.336   5.238  18.730  0.00  0.00    +0.000 S 
ENDBRANCH   7   8
BRANCH   1  13
ATOM     13  C   UNL     1       1.686   5.104  20.584  0.00  0.00    +0.000 C 
BRANCH  13  16
ATOM     14  C   UNL     1       1.810   7.582  20.300  0.00  0.00    +0.000 C 
ATOM     15  O   UNL     1       2.310   7.536  19.175  0.00  0.00    +0.000 OA
ATOM     16  N   UNL     1       1.445   6.465  21.008  0.00  0.00    +0.000 N 
ATOM     17  H   UNL     1       1.159   6.619  21.976  0.00  0.00    +0.000 HD
BRANCH  14  18
ATOM     18  C   UNL     1       1.466   8.914  20.985  0.00  0.00    +0.000 C 
BRANCH  18  19
ATOM     19  N   UNL     1       0.005   9.131  21.161  0.00  0.00    +0.000 NA
BRANCH  19  21
ATOM     20  C   UNL     1      -0.896  10.599  22.989  0.00  0.00    +0.000 C 
ATOM     21  C   UNL     1      -0.350   9.231  22.590  0.00  0.00    +0.000 C 
ENDBRANCH  19  21
BRANCH  19  22
ATOM     22  C   UNL     1      -0.450  10.289  20.365  0.00  0.00    +0.000 C 
ATOM     23  C   UNL     1       0.612  11.015  19.539  0.00  0.00    +0.000 C 
ENDBRANCH  19  22
ENDBRANCH  18  19
ENDBRANCH  14  18
ENDBRANCH  13  16
ENDBRANCH   1  13
TORSDOF 7
ENDMDL
