MODEL 1
REMARK VINA RESULT:      -8.3      0.000      0.000
REMARK  Name = 
REMARK  3 active torsions:
REMARK  status: ('A' for Active; 'I' for Inactive)
REMARK    1  A    between atoms: C_1  and  C_2
REMARK    2  A    between atoms: C_14  and  N_15
REMARK    3  A    between atoms: N_15  and  C_16
REMARK                            x       y       z     vdW  Elec       q    Type
REMARK                         _______ _______ _______ _____ _____    ______ ____
ROOT
ATOM      1  C   UNL     1       5.491   3.529  13.965  0.00  0.00    +0.000 C 
ATOM      2  C   UNL     1       6.180   4.424  14.928  0.00  0.00    +0.000 A 
ATOM      3  N   UNL     1       7.280   5.103  14.661  0.00  0.00    +0.000 NA
ATOM      4  N   UNL     1       7.517   5.962  15.698  0.00  0.00    +0.000 NA
ATOM      5  C   UNL     1       6.564   5.792  16.588  0.00  0.00    +0.000 A 
ATOM      6  N   UNL     1       5.706   4.807  16.179  0.00  0.00    +0.000 N 
ATOM      7  C   UNL     1       4.600   4.298  16.902  0.00  0.00    +0.000 A 
ATOM      8  C   UNL     1       4.407   2.901  16.848  0.00  0.00    +0.000 A 
ATOM      9  C   UNL     1       3.296   2.304  17.430  0.00  0.00    +0.000 A 
ATOM     10  C   UNL     1       2.347   3.105  18.041  0.00  0.00    +0.000 A 
ATOM     11 BR   UNL     1       0.774   2.324  18.735  0.00  0.00    +0.000 Br
ATOM     12  C   UNL     1       2.553   4.482  18.147  0.00  0.00    +0.000 A 
ATOM     13  C   UNL     1       3.725   5.118  17.655  0.00  0.00    +0.000 A 
ATOM     14  C   UNL     1       3.809   6.644  17.847  0.00  0.00    +0.000 C 
ATOM     15  C   UNL     1       5.166   7.388  17.771  0.00  0.00    +0.000 C 
ATOM     16  C   UNL     1       6.403   6.522  17.858  0.00  0.00    +0.000 C 
ENDROOT
BRANCH  14  17
ATOM     17  N   UNL     1       3.173   7.009  19.147  0.00  0.00    +0.000 N 
ATOM     18  H   UNL     1       3.871   7.194  19.863  0.00  0.00    +0.000 HD
BRANCH  17  19
ATOM     19  C   UNL     1       2.166   7.985  19.135  0.00  0.00    +0.000 A 
ATOM     20  C   UNL     1       1.770   8.642  17.963  0.00  0.00    +0.000 A 
ATOM     21  C   UNL     1       0.857   9.698  17.994  0.00  0.00    +0.000 A 
ATOM     22  C   UNL     1       0.279  10.074  19.200  0.00  0.00    +0.000 A 
ATOM     23 CL   UNL     1      -0.775  11.430  19.254  0.00  0.00    +0.000 Cl
ATOM     24  C   UNL     1       0.559   9.356  20.359  0.00  0.00    +0.000 A 
ATOM     25  C   UNL     1       1.485   8.305  20.321  0.00  0.00    +0.000 A 
ENDBRANCH  17  19
ENDBRANCH  14  17
TORSDOF 2
ENDMDL
MODEL 2
REMARK VINA RESULT:      -7.5      5.564     10.122
REMARK  Name = 
REMARK  3 active torsions:
REMARK  status: ('A' for Active; 'I' for Inactive)
REMARK    1  A    between atoms: C_1  and  C_2
REMARK    2  A    between atoms: C_14  and  N_15
REMARK    3  A    between atoms: N_15  and  C_16
REMARK                            x       y       z     vdW  Elec       q    Type
REMARK                         _______ _______ _______ _____ _____    ______ ____
ROOT
ATOM      1  C   UNL     1      -6.580  11.500  20.366  0.00  0.00    +0.000 C 
ATOM      2  C   UNL     1      -5.435  12.343  20.791  0.00  0.00    +0.000 A 
ATOM      3  N   UNL     1      -5.381  13.010  21.929  0.00  0.00    +0.000 NA
ATOM      4  N   UNL     1      -4.116  13.509  22.074  0.00  0.00    +0.000 NA
ATOM      5  C   UNL     1      -3.416  13.147  21.022  0.00  0.00    +0.000 A 
ATOM      6  N   UNL     1      -4.202  12.437  20.154  0.00  0.00    +0.000 N 
ATOM      7  C   UNL     1      -3.820  11.940  18.884  0.00  0.00    +0.000 A 
ATOM      8  C   UNL     1      -4.776  12.057  17.853  0.00  0.00    +0.000 A 
ATOM      9  C   UNL     1      -4.552  11.509  16.597  0.00  0.00    +0.000 A 
ATOM     10  C   UNL     1      -3.381  10.806  16.371  0.00  0.00    +0.000 A 
ATOM     11 BR   UNL     1      -3.110   9.955  14.707  0.00  0.00    +0.000 Br
ATOM     12  C   UNL     1      -2.405  10.729  17.366  0.00  0.00    +0.000 A 
ATOM     13  C   UNL     1      -2.552  11.363  18.630  0.00  0.00    +0.000 A 
ATOM     14  C   UNL     1      -1.388  11.188  19.624  0.00  0.00    +0.000 C 
ATOM     15  C   UNL     1      -1.208  12.151  20.824  0.00  0.00    +0.000 C 
ATOM     16  C   UNL     1      -1.996  13.442  20.763  0.00  0.00    +0.000 C 
ENDROOT
BRANCH  14  17
ATOM     17  N   UNL     1      -0.100  11.171  18.870  0.00  0.00    +0.000 N 
ATOM     18  H   UNL     1       0.423  12.033  19.008  0.00  0.00    +0.000 HD
BRANCH  17  19
ATOM     19  C   UNL     1       0.718  10.039  18.992  0.00  0.00    +0.000 A 
ATOM     20  C   UNL     1       1.466   9.532  17.921  0.00  0.00    +0.000 A 
ATOM     21  C   UNL     1       2.172   8.333  18.029  0.00  0.00    +0.000 A 
ATOM     22  C   UNL     1       2.189   7.651  19.239  0.00  0.00    +0.000 A 
ATOM     23 CL   UNL     1       2.983   6.131  19.350  0.00  0.00    +0.000 Cl
ATOM     24  C   UNL     1       1.560   8.196  20.354  0.00  0.00    +0.000 A 
ATOM     25  C   UNL     1       0.843   9.394  20.234  0.00  0.00    +0.000 A 
ENDBRANCH  17  19
ENDBRANCH  14  17
TORSDOF 2
ENDMDL
MODEL 3
REMARK VINA RESULT:      -7.4      2.898      4.570
REMARK  Name = 
REMARK  3 active torsions:
REMARK  status: ('A' for Active; 'I' for Inactive)
REMARK    1  A    between atoms: C_1  and  C_2
REMARK    2  A    between atoms: C_14  and  N_15
REMARK    3  A    between atoms: N_15  and  C_16
REMARK                            x       y       z     vdW  Elec       q    Type
REMARK                         _______ _______ _______ _____ _____    ______ ____
ROOT
ATOM      1  C   UNL     1       4.904   1.824  20.790  0.00  0.00    +0.000 C 
ATOM      2  C   UNL     1       3.549   2.408  20.948  0.00  0.00    +0.000 A 
ATOM      3  N   UNL     1       2.737   2.150  21.956  0.00  0.00    +0.000 NA
ATOM      4  N   UNL     1       1.670   3.002  21.877  0.00  0.00    +0.000 NA
ATOM      5  C   UNL     1       1.841   3.764  20.819  0.00  0.00    +0.000 A 
ATOM      6  N   UNL     1       2.992   3.416  20.166  0.00  0.00    +0.000 N 
ATOM      7  C   UNL     1       3.472   3.964  18.952  0.00  0.00    +0.000 A 
ATOM      8  C   UNL     1       4.032   3.052  18.032  0.00  0.00    +0.000 A 
ATOM      9  C   UNL     1       4.629   3.489  16.857  0.00  0.00    +0.000 A 
ATOM     10  C   UNL     1       4.706   4.848  16.609  0.00  0.00    +0.000 A 
ATOM     11 BR   UNL     1       5.617   5.467  15.075  0.00  0.00    +0.000 Br
ATOM     12  C   UNL     1       4.109   5.757  17.485  0.00  0.00    +0.000 A 
ATOM     13  C   UNL     1       3.400   5.344  18.645  0.00  0.00    +0.000 A 
ATOM     14  C   UNL     1       2.796   6.464  19.514  0.00  0.00    +0.000 C 
ATOM     15  C   UNL     1       1.659   6.170  20.524  0.00  0.00    +0.000 C 
ATOM     16  C   UNL     1       0.950   4.843  20.357  0.00  0.00    +0.000 C 
ENDROOT
BRANCH  14  17
ATOM     17  N   UNL     1       2.330   7.572  18.629  0.00  0.00    +0.000 N 
ATOM     18  H   UNL     1       1.887   7.213  17.787  0.00  0.00    +0.000 HD
BRANCH  17  19
ATOM     19  C   UNL     1       1.584   8.608  19.211  0.00  0.00    +0.000 A 
ATOM     20  C   UNL     1       1.469   8.764  20.599  0.00  0.00    +0.000 A 
ATOM     21  C   UNL     1       0.621   9.724  21.155  0.00  0.00    +0.000 A 
ATOM     22  C   UNL     1      -0.083  10.585  20.323  0.00  0.00    +0.000 A 
ATOM     23 CL   UNL     1      -1.195  11.706  21.002  0.00  0.00    +0.000 Cl
ATOM     24  C   UNL     1       0.109  10.535  18.946  0.00  0.00    +0.000 A 
ATOM     25  C   UNL     1       0.953   9.562  18.395  0.00  0.00    +0.000 A 
ENDBRANCH  17  19
ENDBRANCH  14  17
TORSDOF 2
ENDMDL
MODEL 4
REMARK VINA RESULT:      -7.2      2.956      4.513
REMARK  Name = 
REMARK  3 active torsions:
REMARK  status: ('A' for Active; 'I' for Inactive)
REMARK    1  A    between atoms: C_1  and  C_2
REMARK    2  A    between atoms: C_14  and  N_15
REMARK    3  A    between atoms: N_15  and  C_16
REMARK                            x       y       z     vdW  Elec       q    Type
REMARK                         _______ _______ _______ _____ _____    ______ ____
ROOT
ATOM      1  C   UNL     1       4.923   1.808  20.755  0.00  0.00    +0.000 C 
ATOM      2  C   UNL     1       3.560   2.367  20.930  0.00  0.00    +0.000 A 
ATOM      3  N   UNL     1       2.754   2.071  21.932  0.00  0.00    +0.000 NA
ATOM      4  N   UNL     1       1.675   2.910  21.877  0.00  0.00    +0.000 NA
ATOM      5  C   UNL     1       1.832   3.702  20.840  0.00  0.00    +0.000 A 
ATOM      6  N   UNL     1       2.987   3.387  20.176  0.00  0.00    +0.000 N 
ATOM      7  C   UNL     1       3.456   3.974  18.975  0.00  0.00    +0.000 A 
ATOM      8  C   UNL     1       4.028   3.096  18.031  0.00  0.00    +0.000 A 
ATOM      9  C   UNL     1       4.616   3.572  16.868  0.00  0.00    +0.000 A 
ATOM     10  C   UNL     1       4.672   4.938  16.654  0.00  0.00    +0.000 A 
ATOM     11 BR   UNL     1       5.571   5.610  15.136  0.00  0.00    +0.000 Br
ATOM     12  C   UNL     1       4.064   5.815  17.556  0.00  0.00    +0.000 A 
ATOM     13  C   UNL     1       3.363   5.361  18.706  0.00  0.00    +0.000 A 
ATOM     14  C   UNL     1       2.745   6.448  19.605  0.00  0.00    +0.000 C 
ATOM     15  C   UNL     1       1.614   6.111  20.609  0.00  0.00    +0.000 C 
ATOM     16  C   UNL     1       0.924   4.779  20.408  0.00  0.00    +0.000 C 
ENDROOT
BRANCH  14  17
ATOM     17  N   UNL     1       2.260   7.572  18.750  0.00  0.00    +0.000 N 
ATOM     18  H   UNL     1       1.757   7.229  17.935  0.00  0.00    +0.000 HD
BRANCH  17  19
ATOM     19  C   UNL     1       1.582   8.628  19.375  0.00  0.00    +0.000 A 
ATOM     20  C   UNL     1       0.938   9.641  18.652  0.00  0.00    +0.000 A 
ATOM     21  C   UNL     1       0.379  10.749  19.292  0.00  0.00    +0.000 A 
ATOM     22  C   UNL     1       0.405  10.829  20.678  0.00  0.00    +0.000 A 
ATOM     23 CL   UNL     1      -0.201  12.233  21.462  0.00  0.00    +0.000 Cl
ATOM     24  C   UNL     1       0.925   9.778  21.426  0.00  0.00    +0.000 A 
ATOM     25  C   UNL     1       1.495   8.675  20.777  0.00  0.00    +0.000 A 
ENDBRANCH  17  19
ENDBRANCH  14  17
TORSDOF 2
ENDMDL
MODEL 5
REMARK VINA RESULT:      -7.2      3.207      6.346
REMARK  Name = 
REMARK  3 active torsions:
REMARK  status: ('A' for Active; 'I' for Inactive)
REMARK    1  A    between atoms: C_1  and  C_2
REMARK    2  A    between atoms: C_14  and  N_15
REMARK    3  A    between atoms: N_15  and  C_16
REMARK                            x       y       z     vdW  Elec       q    Type
REMARK                         _______ _______ _______ _____ _____    ______ ____
ROOT
ATOM      1  C   UNL     1       1.025   8.580  20.993  0.00  0.00    +0.000 C 
ATOM      2  C   UNL     1       1.583   8.561  19.618  0.00  0.00    +0.000 A 
ATOM      3  N   UNL     1       1.630   9.608  18.817  0.00  0.00    +0.000 NA
ATOM      4  N   UNL     1       2.378   9.276  17.720  0.00  0.00    +0.000 NA
ATOM      5  C   UNL     1       2.771   8.030  17.863  0.00  0.00    +0.000 A 
ATOM      6  N   UNL     1       2.272   7.507  19.025  0.00  0.00    +0.000 N 
ATOM      7  C   UNL     1       2.423   6.176  19.484  0.00  0.00    +0.000 A 
ATOM      8  C   UNL     1       1.287   5.585  20.076  0.00  0.00    +0.000 A 
ATOM      9  C   UNL     1       1.349   4.326  20.656  0.00  0.00    +0.000 A 
ATOM     10  C   UNL     1       2.561   3.659  20.684  0.00  0.00    +0.000 A 
ATOM     11 BR   UNL     1       2.693   1.997  21.571  0.00  0.00    +0.000 Br
ATOM     12  C   UNL     1       3.680   4.210  20.056  0.00  0.00    +0.000 A 
ATOM     13  C   UNL     1       3.632   5.450  19.363  0.00  0.00    +0.000 A 
ATOM     14  C   UNL     1       4.949   5.927  18.720  0.00  0.00    +0.000 C 
ATOM     15  C   UNL     1       4.952   6.992  17.595  0.00  0.00    +0.000 C 
ATOM     16  C   UNL     1       3.617   7.262  16.934  0.00  0.00    +0.000 C 
ENDROOT
BRANCH  14  17
ATOM     17  N   UNL     1       5.703   4.742  18.214  0.00  0.00    +0.000 N 
ATOM     18  H   UNL     1       5.364   3.879  18.631  0.00  0.00    +0.000 HD
BRANCH  17  19
ATOM     19  C   UNL     1       5.878   4.618  16.828  0.00  0.00    +0.000 A 
ATOM     20  C   UNL     1       4.890   4.083  15.990  0.00  0.00    +0.000 A 
ATOM     21  C   UNL     1       5.133   3.851  14.635  0.00  0.00    +0.000 A 
ATOM     22  C   UNL     1       6.356   4.210  14.084  0.00  0.00    +0.000 A 
ATOM     23 CL   UNL     1       6.689   3.844  12.438  0.00  0.00    +0.000 Cl
ATOM     24  C   UNL     1       7.308   4.859  14.864  0.00  0.00    +0.000 A 
ATOM     25  C   UNL     1       7.062   5.077  16.226  0.00  0.00    +0.000 A 
ENDBRANCH  17  19
ENDBRANCH  14  17
TORSDOF 2
ENDMDL
MODEL 6
REMARK VINA RESULT:      -7.1      3.161      6.274
REMARK  Name = 
REMARK  3 active torsions:
REMARK  status: ('A' for Active; 'I' for Inactive)
REMARK    1  A    between atoms: C_1  and  C_2
REMARK    2  A    between atoms: C_14  and  N_15
REMARK    3  A    between atoms: N_15  and  C_16
REMARK                            x       y       z     vdW  Elec       q    Type
REMARK                         _______ _______ _______ _____ _____    ______ ____
ROOT
ATOM      1  C   UNL     1       0.906   8.630  20.790  0.00  0.00    +0.000 C 
ATOM      2  C   UNL     1       1.580   8.554  19.470  0.00  0.00    +0.000 A 
ATOM      3  N   UNL     1       1.715   9.572  18.640  0.00  0.00    +0.000 NA
ATOM      4  N   UNL     1       2.548   9.190  17.625  0.00  0.00    +0.000 NA
ATOM      5  C   UNL     1       2.906   7.944  17.843  0.00  0.00    +0.000 A 
ATOM      6  N   UNL     1       2.299   7.470  18.975  0.00  0.00    +0.000 N 
ATOM      7  C   UNL     1       2.387   6.154  19.491  0.00  0.00    +0.000 A 
ATOM      8  C   UNL     1       1.193   5.601  20.001  0.00  0.00    +0.000 A 
ATOM      9  C   UNL     1       1.182   4.362  20.627  0.00  0.00    +0.000 A 
ATOM     10  C   UNL     1       2.376   3.679  20.783  0.00  0.00    +0.000 A 
ATOM     11 BR   UNL     1       2.401   2.048  21.734  0.00  0.00    +0.000 Br
ATOM     12  C   UNL     1       3.555   4.191  20.236  0.00  0.00    +0.000 A 
ATOM     13  C   UNL     1       3.589   5.406  19.499  0.00  0.00    +0.000 A 
ATOM     14  C   UNL     1       4.964   5.841  18.958  0.00  0.00    +0.000 C 
ATOM     15  C   UNL     1       5.082   6.865  17.802  0.00  0.00    +0.000 C 
ATOM     16  C   UNL     1       3.815   7.131  17.018  0.00  0.00    +0.000 C 
ENDROOT
BRANCH  14  17
ATOM     17  N   UNL     1       5.738   4.628  18.560  0.00  0.00    +0.000 N 
ATOM     18  H   UNL     1       5.375   3.791  19.009  0.00  0.00    +0.000 HD
BRANCH  17  19
ATOM     19  C   UNL     1       5.982   4.424  17.194  0.00  0.00    +0.000 A 
ATOM     20  C   UNL     1       7.187   4.795  16.581  0.00  0.00    +0.000 A 
ATOM     21  C   UNL     1       7.360   4.699  15.199  0.00  0.00    +0.000 A 
ATOM     22  C   UNL     1       6.344   4.170  14.413  0.00  0.00    +0.000 A 
ATOM     23 CL   UNL     1       6.520   4.134  12.704  0.00  0.00    +0.000 Cl
ATOM     24  C   UNL     1       5.188   3.677  15.010  0.00  0.00    +0.000 A 
ATOM     25  C   UNL     1       5.017   3.787  16.396  0.00  0.00    +0.000 A 
ENDBRANCH  17  19
ENDBRANCH  14  17
TORSDOF 2
ENDMDL
MODEL 7
REMARK VINA RESULT:      -7.0      3.226      6.242
REMARK  Name = 
REMARK  3 active torsions:
REMARK  status: ('A' for Active; 'I' for Inactive)
REMARK    1  A    between atoms: C_1  and  C_2
REMARK    2  A    between atoms: C_14  and  N_15
REMARK    3  A    between atoms: N_15  and  C_16
REMARK                            x       y       z     vdW  Elec       q    Type
REMARK                         _______ _______ _______ _____ _____    ______ ____
ROOT
ATOM      1  C   UNL     1       1.600   7.376  20.789  0.00  0.00    +0.000 C 
ATOM      2  C   UNL     1       2.094   7.609  19.409  0.00  0.00    +0.000 A 
ATOM      3  N   UNL     1       1.864   8.703  18.708  0.00  0.00    +0.000 NA
ATOM      4  N   UNL     1       2.627   8.654  17.573  0.00  0.00    +0.000 NA
ATOM      5  C   UNL     1       3.307   7.529  17.593  0.00  0.00    +0.000 A 
ATOM      6  N   UNL     1       2.989   6.805  18.710  0.00  0.00    +0.000 N 
ATOM      7  C   UNL     1       3.467   5.513  19.042  0.00  0.00    +0.000 A 
ATOM      8  C   UNL     1       2.524   4.620  19.593  0.00  0.00    +0.000 A 
ATOM      9  C   UNL     1       2.902   3.366  20.054  0.00  0.00    +0.000 A 
ATOM     10  C   UNL     1       4.238   3.007  20.000  0.00  0.00    +0.000 A 
ATOM     11 BR   UNL     1       4.789   1.354  20.727  0.00  0.00    +0.000 Br
ATOM     12  C   UNL     1       5.171   3.860  19.409  0.00  0.00    +0.000 A 
ATOM     13  C   UNL     1       4.807   5.108  18.834  0.00  0.00    +0.000 A 
ATOM     14  C   UNL     1       5.949   5.938  18.217  0.00  0.00    +0.000 C 
ATOM     15  C   UNL     1       5.659   7.066  17.196  0.00  0.00    +0.000 C 
ATOM     16  C   UNL     1       4.275   7.067  16.584  0.00  0.00    +0.000 C 
ENDROOT
BRANCH  14  17
ATOM     17  N   UNL     1       6.942   5.015  17.591  0.00  0.00    +0.000 N 
ATOM     18  H   UNL     1       7.151   4.227  18.199  0.00  0.00    +0.000 HD
BRANCH  17  19
ATOM     19  C   UNL     1       6.717   4.608  16.268  0.00  0.00    +0.000 A 
ATOM     20  C   UNL     1       7.473   5.096  15.193  0.00  0.00    +0.000 A 
ATOM     21  C   UNL     1       7.151   4.776  13.873  0.00  0.00    +0.000 A 
ATOM     22  C   UNL     1       6.098   3.909  13.612  0.00  0.00    +0.000 A 
ATOM     23 CL   UNL     1       5.643   3.585  11.987  0.00  0.00    +0.000 Cl
ATOM     24  C   UNL     1       5.411   3.311  14.665  0.00  0.00    +0.000 A 
ATOM     25  C   UNL     1       5.733   3.647  15.986  0.00  0.00    +0.000 A 
ENDBRANCH  17  19
ENDBRANCH  14  17
TORSDOF 2
ENDMDL
MODEL 8
REMARK VINA RESULT:      -7.0      3.939      6.890
REMARK  Name = 
REMARK  3 active torsions:
REMARK  status: ('A' for Active; 'I' for Inactive)
REMARK    1  A    between atoms: C_1  and  C_2
REMARK    2  A    between atoms: C_14  and  N_15
REMARK    3  A    between atoms: N_15  and  C_16
REMARK                            x       y       z     vdW  Elec       q    Type
REMARK                         _______ _______ _______ _____ _____    ______ ____
ROOT
ATOM      1  C   UNL     1       1.083   3.546  21.029  0.00  0.00    +0.000 C 
ATOM      2  C   UNL     1       2.505   3.251  20.723  0.00  0.00    +0.000 A 
ATOM      3  N   UNL     1       3.123   2.133  21.054  0.00  0.00    +0.000 NA
ATOM      4  N   UNL     1       4.349   2.125  20.448  0.00  0.00    +0.000 NA
ATOM      5  C   UNL     1       4.466   3.240  19.761  0.00  0.00    +0.000 A 
ATOM      6  N   UNL     1       3.349   4.014  19.922  0.00  0.00    +0.000 N 
ATOM      7  C   UNL     1       3.138   5.311  19.394  0.00  0.00    +0.000 A 
ATOM      8  C   UNL     1       2.504   6.239  20.248  0.00  0.00    +0.000 A 
ATOM      9  C   UNL     1       2.151   7.505  19.801  0.00  0.00    +0.000 A 
ATOM     10  C   UNL     1       2.396   7.843  18.482  0.00  0.00    +0.000 A 
ATOM     11 BR   UNL     1       1.818   9.517  17.825  0.00  0.00    +0.000 Br
ATOM     12  C   UNL     1       3.069   6.954  17.642  0.00  0.00    +0.000 A 
ATOM     13  C   UNL     1       3.538   5.689  18.090  0.00  0.00    +0.000 A 
ATOM     14  C   UNL     1       4.264   4.819  17.047  0.00  0.00    +0.000 C 
ATOM     15  C   UNL     1       5.191   3.654  17.479  0.00  0.00    +0.000 C 
ATOM     16  C   UNL     1       5.614   3.648  18.932  0.00  0.00    +0.000 C 
ENDROOT
BRANCH  14  17
ATOM     17  N   UNL     1       5.054   5.702  16.138  0.00  0.00    +0.000 N 
ATOM     18  H   UNL     1       5.754   6.232  16.651  0.00  0.00    +0.000 HD
BRANCH  17  19
ATOM     19  C   UNL     1       5.581   5.137  14.968  0.00  0.00    +0.000 A 
ATOM     20  C   UNL     1       4.814   4.344  14.104  0.00  0.00    +0.000 A 
ATOM     21  C   UNL     1       5.390   3.689  13.014  0.00  0.00    +0.000 A 
ATOM     22  C   UNL     1       6.739   3.869  12.737  0.00  0.00    +0.000 A 
ATOM     23 CL   UNL     1       7.469   2.994  11.450  0.00  0.00    +0.000 Cl
ATOM     24  C   UNL     1       7.496   4.750  13.503  0.00  0.00    +0.000 A 
ATOM     25  C   UNL     1       6.914   5.395  14.602  0.00  0.00    +0.000 A 
ENDBRANCH  17  19
ENDBRANCH  14  17
TORSDOF 2
ENDMDL
MODEL 9
REMARK VINA RESULT:      -6.9      3.314      6.340
REMARK  Name = 
REMARK  3 active torsions:
REMARK  status: ('A' for Active; 'I' for Inactive)
REMARK    1  A    between atoms: C_1  and  C_2
REMARK    2  A    between atoms: C_14  and  N_15
REMARK    3  A    between atoms: N_15  and  C_16
REMARK                            x       y       z     vdW  Elec       q    Type
REMARK                         _______ _______ _______ _____ _____    ______ ____
ROOT
ATOM      1  C   UNL     1       1.545   7.173  20.970  0.00  0.00    +0.000 C 
ATOM      2  C   UNL     1       2.018   7.478  19.597  0.00  0.00    +0.000 A 
ATOM      3  N   UNL     1       1.768   8.603  18.953  0.00  0.00    +0.000 NA
ATOM      4  N   UNL     1       2.516   8.617  17.808  0.00  0.00    +0.000 NA
ATOM      5  C   UNL     1       3.207   7.500  17.764  0.00  0.00    +0.000 A 
ATOM      6  N   UNL     1       2.912   6.718  18.848  0.00  0.00    +0.000 N 
ATOM      7  C   UNL     1       3.405   5.416  19.108  0.00  0.00    +0.000 A 
ATOM      8  C   UNL     1       2.479   4.488  19.628  0.00  0.00    +0.000 A 
ATOM      9  C   UNL     1       2.875   3.217  20.021  0.00  0.00    +0.000 A 
ATOM     10  C   UNL     1       4.213   2.874  19.932  0.00  0.00    +0.000 A 
ATOM     11 BR   UNL     1       4.790   1.193  20.569  0.00  0.00    +0.000 Br
ATOM     12  C   UNL     1       5.130   3.765  19.371  0.00  0.00    +0.000 A 
ATOM     13  C   UNL     1       4.747   5.036  18.863  0.00  0.00    +0.000 A 
ATOM     14  C   UNL     1       5.872   5.907  18.273  0.00  0.00    +0.000 C 
ATOM     15  C   UNL     1       5.558   7.081  17.313  0.00  0.00    +0.000 C 
ATOM     16  C   UNL     1       4.166   7.098  16.720  0.00  0.00    +0.000 C 
ENDROOT
BRANCH  14  17
ATOM     17  N   UNL     1       6.865   5.026  17.590  0.00  0.00    +0.000 N 
ATOM     18  H   UNL     1       7.074   4.200  18.145  0.00  0.00    +0.000 HD
BRANCH  17  19
ATOM     19  C   UNL     1       6.641   4.706  16.243  0.00  0.00    +0.000 A 
ATOM     20  C   UNL     1       5.594   3.869  15.832  0.00  0.00    +0.000 A 
ATOM     21  C   UNL     1       5.467   3.462  14.503  0.00  0.00    +0.000 A 
ATOM     22  C   UNL     1       6.357   3.939  13.549  0.00  0.00    +0.000 A 
ATOM     23 CL   UNL     1       6.256   3.370  11.930  0.00  0.00    +0.000 Cl
ATOM     24  C   UNL     1       7.328   4.870  13.906  0.00  0.00    +0.000 A 
ATOM     25  C   UNL     1       7.457   5.264  15.244  0.00  0.00    +0.000 A 
ENDBRANCH  17  19
ENDBRANCH  14  17
TORSDOF 2
ENDMDL
