MODEL 1
REMARK VINA RESULT:      -8.7      0.000      0.000
REMARK  Name = 
REMARK  7 active torsions:
REMARK  status: ('A' for Active; 'I' for Inactive)
REMARK    1  A    between atoms: C_2  and  C_3
REMARK    2  A    between atoms: C_3  and  C_4
REMARK    3  A    between atoms: C_4  and  C_5
REMARK    4  A    between atoms: C_14  and  O_15
REMARK    5  A    between atoms: N_19  and  C_20
REMARK    6  A    between atoms: C_25  and  C_26
REMARK    7  A    between atoms: C_26  and  O_28
REMARK                            x       y       z     vdW  Elec       q    Type
REMARK                         _______ _______ _______ _____ _____    ______ ____
ROOT
ATOM      1  C   UNL     1       3.319   3.096  21.139  0.00  0.00    +0.000 C 
ENDROOT
BRANCH   1   2
ATOM      2  C   UNL     1       3.715   3.092  19.703  0.00  0.00    +0.000 A 
ATOM      3  N   UNL     1       3.151   2.247  18.781  0.00  0.00    +0.000 N 
ATOM      4  N   UNL     1       3.620   2.407  17.530  0.00  0.00    +0.000 NA
ATOM      5  C   UNL     1       4.551   3.358  17.656  0.00  0.00    +0.000 A 
ATOM      6  C   UNL     1       4.648   3.816  18.995  0.00  0.00    +0.000 A 
ATOM      7  C   UNL     1       5.600   4.890  19.383  0.00  0.00    +0.000 C 
ATOM      8  C   UNL     1       6.831   4.891  18.451  0.00  0.00    +0.000 C 
ATOM      9  C   UNL     1       6.491   4.707  16.978  0.00  0.00    +0.000 A 
ATOM     10  C   UNL     1       7.317   5.258  15.990  0.00  0.00    +0.000 A 
ATOM     11  C   UNL     1       7.032   5.023  14.647  0.00  0.00    +0.000 A 
ATOM     12  C   UNL     1       5.950   4.234  14.267  0.00  0.00    +0.000 A 
ATOM     13  C   UNL     1       5.129   3.664  15.242  0.00  0.00    +0.000 A 
ATOM     14  C   UNL     1       5.391   3.897  16.595  0.00  0.00    +0.000 A 
ATOM     15  H   UNL     1       2.440   1.539  18.936  0.00  0.00    +0.000 HD
BRANCH  11  16
ATOM     16  O   UNL     1       7.805   5.555  13.657  0.00  0.00    +0.000 OA
ATOM     17  H   UNL     1       8.736   5.358  13.848  0.00  0.00    +0.000 HD
ENDBRANCH  11  16
ENDBRANCH   1   2
BRANCH   1  18
ATOM     18  C   UNL     1       2.014   3.862  21.382  0.00  0.00    +0.000 C 
BRANCH  18  20
ATOM     19  O   UNL     1       1.090   4.503  19.265  0.00  0.00    +0.000 OA
ATOM     20  C   UNL     1       1.743   4.840  20.250  0.00  0.00    +0.000 C 
ATOM     21  N   UNL     1       2.310   6.089  20.454  0.00  0.00    +0.000 N 
ATOM     22  H   UNL     1       3.054   6.149  21.154  0.00  0.00    +0.000 HD
BRANCH  21  23
ATOM     23  C   UNL     1       2.167   7.226  19.606  0.00  0.00    +0.000 A 
ATOM     24  C   UNL     1       2.698   7.238  18.309  0.00  0.00    +0.000 A 
ATOM     25  C   UNL     1       2.618   8.373  17.498  0.00  0.00    +0.000 A 
ATOM     26  C   UNL     1       2.004   9.527  17.966  0.00  0.00    +0.000 A 
ATOM     27  C   UNL     1       1.431   9.531  19.237  0.00  0.00    +0.000 A 
ATOM     28  C   UNL     1       1.473   8.377  20.044  0.00  0.00    +0.000 A 
BRANCH  28  29
ATOM     29  C   UNL     1       0.820   8.403  21.378  0.00  0.00    +0.000 C 
ATOM     30  O   UNL     1      -0.387   8.317  21.520  0.00  0.00    +0.000 OA
BRANCH  29  31
ATOM     31  O   UNL     1       1.666   8.613  22.410  0.00  0.00    +0.000 OA
ATOM     32  H   UNL     1       2.388   7.963  22.504  0.00  0.00    +0.000 HD
ENDBRANCH  29  31
ENDBRANCH  28  29
ENDBRANCH  21  23
ENDBRANCH  18  20
ENDBRANCH   1  18
TORSDOF 7
ENDMDL
MODEL 2
REMARK VINA RESULT:      -8.5      6.243      7.808
REMARK  Name = 
REMARK  7 active torsions:
REMARK  status: ('A' for Active; 'I' for Inactive)
REMARK    1  A    between atoms: C_2  and  C_3
REMARK    2  A    between atoms: C_3  and  C_4
REMARK    3  A    between atoms: C_4  and  C_5
REMARK    4  A    between atoms: C_14  and  O_15
REMARK    5  A    between atoms: N_19  and  C_20
REMARK    6  A    between atoms: C_25  and  C_26
REMARK    7  A    between atoms: C_26  and  O_28
REMARK                            x       y       z     vdW  Elec       q    Type
REMARK                         _______ _______ _______ _____ _____    ______ ____
ROOT
ATOM      1  C   UNL     1       8.126   8.252  17.593  0.00  0.00    +0.000 C 
ENDROOT
BRANCH   1   2
ATOM      2  C   UNL     1       7.456   7.032  18.125  0.00  0.00    +0.000 A 
ATOM      3  N   UNL     1       7.916   6.354  19.225  0.00  0.00    +0.000 N 
ATOM      4  N   UNL     1       7.166   5.291  19.569  0.00  0.00    +0.000 NA
ATOM      5  C   UNL     1       6.215   5.254  18.630  0.00  0.00    +0.000 A 
ATOM      6  C   UNL     1       6.356   6.320  17.705  0.00  0.00    +0.000 A 
ATOM      7  C   UNL     1       5.401   6.505  16.581  0.00  0.00    +0.000 C 
ATOM      8  C   UNL     1       4.799   5.151  16.148  0.00  0.00    +0.000 C 
ATOM      9  C   UNL     1       4.399   4.252  17.310  0.00  0.00    +0.000 A 
ATOM     10  C   UNL     1       3.351   3.334  17.164  0.00  0.00    +0.000 A 
ATOM     11  C   UNL     1       3.042   2.472  18.213  0.00  0.00    +0.000 A 
ATOM     12  C   UNL     1       3.767   2.493  19.400  0.00  0.00    +0.000 A 
ATOM     13  C   UNL     1       4.826   3.391  19.553  0.00  0.00    +0.000 A 
ATOM     14  C   UNL     1       5.144   4.272  18.517  0.00  0.00    +0.000 A 
ATOM     15  H   UNL     1       8.732   6.563  19.792  0.00  0.00    +0.000 HD
BRANCH  11  16
ATOM     16  O   UNL     1       2.019   1.575  18.112  0.00  0.00    +0.000 OA
ATOM     17  H   UNL     1       2.393   0.678  18.084  0.00  0.00    +0.000 HD
ENDBRANCH  11  16
ENDBRANCH   1   2
BRANCH   1  18
ATOM     18  C   UNL     1       8.763   9.098  18.701  0.00  0.00    +0.000 C 
BRANCH  18  20
ATOM     19  O   UNL     1       8.108  11.105  17.566  0.00  0.00    +0.000 OA
ATOM     20  C   UNL     1       8.961  10.533  18.240  0.00  0.00    +0.000 C 
ATOM     21  N   UNL     1      10.171  11.078  18.642  0.00  0.00    +0.000 N 
ATOM     22  H   UNL     1      10.898  10.421  18.938  0.00  0.00    +0.000 HD
BRANCH  21  23
ATOM     23  C   UNL     1      10.604  12.418  18.424  0.00  0.00    +0.000 A 
ATOM     24  C   UNL     1      11.212  12.799  17.220  0.00  0.00    +0.000 A 
ATOM     25  C   UNL     1      11.697  14.095  17.025  0.00  0.00    +0.000 A 
ATOM     26  C   UNL     1      11.587  15.043  18.033  0.00  0.00    +0.000 A 
ATOM     27  C   UNL     1      10.950  14.705  19.226  0.00  0.00    +0.000 A 
ATOM     28  C   UNL     1      10.423  13.412  19.413  0.00  0.00    +0.000 A 
BRANCH  28  29
ATOM     29  C   UNL     1       9.719  13.094  20.681  0.00  0.00    +0.000 C 
ATOM     30  O   UNL     1      10.078  12.200  21.427  0.00  0.00    +0.000 OA
BRANCH  29  31
ATOM     31  O   UNL     1       8.601  13.822  20.897  0.00  0.00    +0.000 OA
ATOM     32  H   UNL     1       7.916  13.392  21.443  0.00  0.00    +0.000 HD
ENDBRANCH  29  31
ENDBRANCH  28  29
ENDBRANCH  21  23
ENDBRANCH  18  20
ENDBRANCH   1  18
TORSDOF 7
ENDMDL
MODEL 3
REMARK VINA RESULT:      -8.5      1.335      2.118
REMARK  Name = 
REMARK  7 active torsions:
REMARK  status: ('A' for Active; 'I' for Inactive)
REMARK    1  A    between atoms: C_2  and  C_3
REMARK    2  A    between atoms: C_3  and  C_4
REMARK    3  A    between atoms: C_4  and  C_5
REMARK    4  A    between atoms: C_14  and  O_15
REMARK    5  A    between atoms: N_19  and  C_20
REMARK    6  A    between atoms: C_25  and  C_26
REMARK    7  A    between atoms: C_26  and  O_28
REMARK                            x       y       z     vdW  Elec       q    Type
REMARK                         _______ _______ _______ _____ _____    ______ ____
ROOT
ATOM      1  C   UNL     1       2.253   2.619  20.610  0.00  0.00    +0.000 C 
ENDROOT
BRANCH   1   2
ATOM      2  C   UNL     1       2.867   2.764  19.260  0.00  0.00    +0.000 A 
ATOM      3  N   UNL     1       2.404   2.088  18.159  0.00  0.00    +0.000 N 
ATOM      4  N   UNL     1       3.071   2.366  17.023  0.00  0.00    +0.000 NA
ATOM      5  C   UNL     1       4.026   3.216  17.413  0.00  0.00    +0.000 A 
ATOM      6  C   UNL     1       3.941   3.493  18.802  0.00  0.00    +0.000 A 
ATOM      7  C   UNL     1       4.884   4.429  19.467  0.00  0.00    +0.000 C 
ATOM      8  C   UNL     1       6.243   4.448  18.735  0.00  0.00    +0.000 C 
ATOM      9  C   UNL     1       6.127   4.478  17.217  0.00  0.00    +0.000 A 
ATOM     10  C   UNL     1       7.128   5.081  16.445  0.00  0.00    +0.000 A 
ATOM     11  C   UNL     1       7.042   5.040  15.055  0.00  0.00    +0.000 A 
ATOM     12  C   UNL     1       5.987   4.395  14.417  0.00  0.00    +0.000 A 
ATOM     13  C   UNL     1       4.991   3.775  15.175  0.00  0.00    +0.000 A 
ATOM     14  C   UNL     1       5.053   3.814  16.570  0.00  0.00    +0.000 A 
ATOM     15  H   UNL     1       1.636   1.426  18.109  0.00  0.00    +0.000 HD
BRANCH  11  16
ATOM     16  O   UNL     1       7.991   5.628  14.271  0.00  0.00    +0.000 OA
ATOM     17  H   UNL     1       8.418   6.338  14.778  0.00  0.00    +0.000 HD
ENDBRANCH  11  16
ENDBRANCH   1   2
BRANCH   1  18
ATOM     18  C   UNL     1       2.364   3.902  21.440  0.00  0.00    +0.000 C 
BRANCH  18  20
ATOM     19  O   UNL     1       0.508   4.857  20.261  0.00  0.00    +0.000 OA
ATOM     20  C   UNL     1       1.607   5.042  20.777  0.00  0.00    +0.000 C 
ATOM     21  N   UNL     1       2.289   6.250  20.813  0.00  0.00    +0.000 N 
ATOM     22  H   UNL     1       3.294   6.207  21.005  0.00  0.00    +0.000 HD
BRANCH  21  23
ATOM     23  C   UNL     1       1.804   7.503  20.339  0.00  0.00    +0.000 A 
ATOM     24  C   UNL     1       1.129   8.390  21.189  0.00  0.00    +0.000 A 
ATOM     25  C   UNL     1       0.593   9.591  20.714  0.00  0.00    +0.000 A 
ATOM     26  C   UNL     1       0.720   9.933  19.375  0.00  0.00    +0.000 A 
ATOM     27  C   UNL     1       1.422   9.090  18.515  0.00  0.00    +0.000 A 
ATOM     28  C   UNL     1       1.998   7.898  18.996  0.00  0.00    +0.000 A 
BRANCH  28  29
ATOM     29  C   UNL     1       2.771   7.040  18.061  0.00  0.00    +0.000 C 
ATOM     30  O   UNL     1       3.862   7.362  17.623  0.00  0.00    +0.000 OA
BRANCH  29  31
ATOM     31  O   UNL     1       2.130   5.916  17.674  0.00  0.00    +0.000 OA
ATOM     32  H   UNL     1       2.699   5.202  17.330  0.00  0.00    +0.000 HD
ENDBRANCH  29  31
ENDBRANCH  28  29
ENDBRANCH  21  23
ENDBRANCH  18  20
ENDBRANCH   1  18
TORSDOF 7
ENDMDL
MODEL 4
REMARK VINA RESULT:      -8.4      6.035      7.675
REMARK  Name = 
REMARK  7 active torsions:
REMARK  status: ('A' for Active; 'I' for Inactive)
REMARK    1  A    between atoms: C_2  and  C_3
REMARK    2  A    between atoms: C_3  and  C_4
REMARK    3  A    between atoms: C_4  and  C_5
REMARK    4  A    between atoms: C_14  and  O_15
REMARK    5  A    between atoms: N_19  and  C_20
REMARK    6  A    between atoms: C_25  and  C_26
REMARK    7  A    between atoms: C_26  and  O_28
REMARK                            x       y       z     vdW  Elec       q    Type
REMARK                         _______ _______ _______ _____ _____    ______ ____
ROOT
ATOM      1  C   UNL     1       8.229   8.046  17.471  0.00  0.00    +0.000 C 
ENDROOT
BRANCH   1   2
ATOM      2  C   UNL     1       7.489   6.901  18.071  0.00  0.00    +0.000 A 
ATOM      3  N   UNL     1       7.872   6.304  19.245  0.00  0.00    +0.000 N 
ATOM      4  N   UNL     1       7.067   5.301  19.641  0.00  0.00    +0.000 NA
ATOM      5  C   UNL     1       6.158   5.218  18.664  0.00  0.00    +0.000 A 
ATOM      6  C   UNL     1       6.381   6.195  17.660  0.00  0.00    +0.000 A 
ATOM      7  C   UNL     1       5.487   6.316  16.480  0.00  0.00    +0.000 C 
ATOM      8  C   UNL     1       4.852   4.951  16.134  0.00  0.00    +0.000 C 
ATOM      9  C   UNL     1       4.365   4.170  17.347  0.00  0.00    +0.000 A 
ATOM     10  C   UNL     1       3.289   3.281  17.227  0.00  0.00    +0.000 A 
ATOM     11  C   UNL     1       2.900   2.523  18.330  0.00  0.00    +0.000 A 
ATOM     12  C   UNL     1       3.572   2.620  19.544  0.00  0.00    +0.000 A 
ATOM     13  C   UNL     1       4.656   3.490  19.672  0.00  0.00    +0.000 A 
ATOM     14  C   UNL     1       5.056   4.267  18.582  0.00  0.00    +0.000 A 
ATOM     15  H   UNL     1       8.669   6.532  19.831  0.00  0.00    +0.000 HD
BRANCH  11  16
ATOM     16  O   UNL     1       1.849   1.657  18.255  0.00  0.00    +0.000 OA
ATOM     17  H   UNL     1       1.035   2.134  18.488  0.00  0.00    +0.000 HD
ENDBRANCH  11  16
ENDBRANCH   1   2
BRANCH   1  18
ATOM     18  C   UNL     1       7.775   9.395  18.040  0.00  0.00    +0.000 C 
BRANCH  18  20
ATOM     19  O   UNL     1       9.670   9.688  19.480  0.00  0.00    +0.000 OA
ATOM     20  C   UNL     1       8.957  10.169  18.603  0.00  0.00    +0.000 C 
ATOM     21  N   UNL     1       9.109  11.428  18.040  0.00  0.00    +0.000 N 
ATOM     22  H   UNL     1       8.299  11.814  17.546  0.00  0.00    +0.000 HD
BRANCH  21  23
ATOM     23  C   UNL     1      10.162  12.349  18.311  0.00  0.00    +0.000 A 
ATOM     24  C   UNL     1      11.118  12.670  17.337  0.00  0.00    +0.000 A 
ATOM     25  C   UNL     1      12.190  13.521  17.619  0.00  0.00    +0.000 A 
ATOM     26  C   UNL     1      12.333  14.072  18.885  0.00  0.00    +0.000 A 
ATOM     27  C   UNL     1      11.375  13.804  19.862  0.00  0.00    +0.000 A 
ATOM     28  C   UNL     1      10.271  12.978  19.572  0.00  0.00    +0.000 A 
BRANCH  28  29
ATOM     29  C   UNL     1       9.249  12.742  20.624  0.00  0.00    +0.000 C 
ATOM     30  O   UNL     1       8.176  13.320  20.640  0.00  0.00    +0.000 OA
BRANCH  29  31
ATOM     31  O   UNL     1       9.641  11.899  21.604  0.00  0.00    +0.000 OA
ATOM     32  H   UNL     1       8.986  11.225  21.868  0.00  0.00    +0.000 HD
ENDBRANCH  29  31
ENDBRANCH  28  29
ENDBRANCH  21  23
ENDBRANCH  18  20
ENDBRANCH   1  18
TORSDOF 7
ENDMDL
MODEL 5
REMARK VINA RESULT:      -8.3      2.065      6.548
REMARK  Name = 
REMARK  7 active torsions:
REMARK  status: ('A' for Active; 'I' for Inactive)
REMARK    1  A    between atoms: C_2  and  C_3
REMARK    2  A    between atoms: C_3  and  C_4
REMARK    3  A    between atoms: C_4  and  C_5
REMARK    4  A    between atoms: C_14  and  O_15
REMARK    5  A    between atoms: N_19  and  C_20
REMARK    6  A    between atoms: C_25  and  C_26
REMARK    7  A    between atoms: C_26  and  O_28
REMARK                            x       y       z     vdW  Elec       q    Type
REMARK                         _______ _______ _______ _____ _____    ______ ____
ROOT
ATOM      1  C   UNL     1       4.091   3.604  19.875  0.00  0.00    +0.000 C 
ENDROOT
BRANCH   1   2
ATOM      2  C   UNL     1       3.232   4.808  20.053  0.00  0.00    +0.000 A 
ATOM      3  N   UNL     1       2.259   4.890  21.017  0.00  0.00    +0.000 N 
ATOM      4  N   UNL     1       1.603   6.064  21.038  0.00  0.00    +0.000 NA
ATOM      5  C   UNL     1       2.140   6.749  20.023  0.00  0.00    +0.000 A 
ATOM      6  C   UNL     1       3.160   6.005  19.376  0.00  0.00    +0.000 A 
ATOM      7  C   UNL     1       3.922   6.564  18.229  0.00  0.00    +0.000 C 
ATOM      8  C   UNL     1       3.064   7.583  17.448  0.00  0.00    +0.000 C 
ATOM      9  C   UNL     1       2.271   8.533  18.336  0.00  0.00    +0.000 A 
ATOM     10  C   UNL     1       1.952   9.820  17.884  0.00  0.00    +0.000 A 
ATOM     11  C   UNL     1       1.168  10.652  18.680  0.00  0.00    +0.000 A 
ATOM     12  C   UNL     1       0.679  10.222  19.909  0.00  0.00    +0.000 A 
ATOM     13  C   UNL     1       0.975   8.935  20.364  0.00  0.00    +0.000 A 
ATOM     14  C   UNL     1       1.769   8.089  19.586  0.00  0.00    +0.000 A 
ATOM     15  H   UNL     1       1.992   4.184  21.696  0.00  0.00    +0.000 HD
BRANCH  11  16
ATOM     16  O   UNL     1       0.848  11.916  18.279  0.00  0.00    +0.000 OA
ATOM     17  H   UNL     1      -0.036  11.902  17.878  0.00  0.00    +0.000 HD
ENDBRANCH  11  16
ENDBRANCH   1   2
BRANCH   1  18
ATOM     18  C   UNL     1       3.551   2.657  18.797  0.00  0.00    +0.000 C 
BRANCH  18  20
ATOM     19  O   UNL     1       2.944   3.491  16.633  0.00  0.00    +0.000 OA
ATOM     20  C   UNL     1       3.851   3.195  17.407  0.00  0.00    +0.000 C 
ATOM     21  N   UNL     1       5.208   3.289  17.134  0.00  0.00    +0.000 N 
ATOM     22  H   UNL     1       5.838   2.750  17.734  0.00  0.00    +0.000 HD
BRANCH  21  23
ATOM     23  C   UNL     1       5.792   3.824  15.949  0.00  0.00    +0.000 A 
ATOM     24  C   UNL     1       5.329   3.452  14.678  0.00  0.00    +0.000 A 
ATOM     25  C   UNL     1       5.941   3.922  13.513  0.00  0.00    +0.000 A 
ATOM     26  C   UNL     1       7.033   4.775  13.590  0.00  0.00    +0.000 A 
ATOM     27  C   UNL     1       7.490   5.194  14.839  0.00  0.00    +0.000 A 
ATOM     28  C   UNL     1       6.852   4.755  16.016  0.00  0.00    +0.000 A 
BRANCH  28  29
ATOM     29  C   UNL     1       7.341   5.249  17.329  0.00  0.00    +0.000 C 
ATOM     30  O   UNL     1       7.459   6.436  17.583  0.00  0.00    +0.000 OA
BRANCH  29  31
ATOM     31  O   UNL     1       7.720   4.277  18.187  0.00  0.00    +0.000 OA
ATOM     32  H   UNL     1       7.162   4.173  18.981  0.00  0.00    +0.000 HD
ENDBRANCH  29  31
ENDBRANCH  28  29
ENDBRANCH  21  23
ENDBRANCH  18  20
ENDBRANCH   1  18
TORSDOF 7
ENDMDL
MODEL 6
REMARK VINA RESULT:      -8.3      6.055      7.902
REMARK  Name = 
REMARK  7 active torsions:
REMARK  status: ('A' for Active; 'I' for Inactive)
REMARK    1  A    between atoms: C_2  and  C_3
REMARK    2  A    between atoms: C_3  and  C_4
REMARK    3  A    between atoms: C_4  and  C_5
REMARK    4  A    between atoms: C_14  and  O_15
REMARK    5  A    between atoms: N_19  and  C_20
REMARK    6  A    between atoms: C_25  and  C_26
REMARK    7  A    between atoms: C_26  and  O_28
REMARK                            x       y       z     vdW  Elec       q    Type
REMARK                         _______ _______ _______ _____ _____    ______ ____
ROOT
ATOM      1  C   UNL     1       8.206   8.611  17.869  0.00  0.00    +0.000 C 
ENDROOT
BRANCH   1   2
ATOM      2  C   UNL     1       7.595   7.309  18.257  0.00  0.00    +0.000 A 
ATOM      3  N   UNL     1       8.144   6.487  19.208  0.00  0.00    +0.000 N 
ATOM      4  N   UNL     1       7.437   5.365  19.440  0.00  0.00    +0.000 NA
ATOM      5  C   UNL     1       6.420   5.444  18.575  0.00  0.00    +0.000 A 
ATOM      6  C   UNL     1       6.477   6.640  17.813  0.00  0.00    +0.000 A 
ATOM      7  C   UNL     1       5.440   6.965  16.799  0.00  0.00    +0.000 C 
ATOM      8  C   UNL     1       4.828   5.676  16.211  0.00  0.00    +0.000 C 
ATOM      9  C   UNL     1       4.527   4.604  17.250  0.00  0.00    +0.000 A 
ATOM     10  C   UNL     1       3.484   3.692  17.041  0.00  0.00    +0.000 A 
ATOM     11  C   UNL     1       3.266   2.675  17.968  0.00  0.00    +0.000 A 
ATOM     12  C   UNL     1       4.076   2.538  19.091  0.00  0.00    +0.000 A 
ATOM     13  C   UNL     1       5.129   3.430  19.303  0.00  0.00    +0.000 A 
ATOM     14  C   UNL     1       5.358   4.463  18.391  0.00  0.00    +0.000 A 
ATOM     15  H   UNL     1       8.996   6.630  19.741  0.00  0.00    +0.000 HD
BRANCH  11  16
ATOM     16  O   UNL     1       2.252   1.777  17.805  0.00  0.00    +0.000 OA
ATOM     17  H   UNL     1       2.041   1.385  18.668  0.00  0.00    +0.000 HD
ENDBRANCH  11  16
ENDBRANCH   1   2
BRANCH   1  18
ATOM     18  C   UNL     1       9.271   9.076  18.869  0.00  0.00    +0.000 C 
BRANCH  18  20
ATOM     19  O   UNL     1       8.990  10.981  20.296  0.00  0.00    +0.000 OA
ATOM     20  C   UNL     1       9.135  10.563  19.150  0.00  0.00    +0.000 C 
ATOM     21  N   UNL     1       9.176  11.346  18.006  0.00  0.00    +0.000 N 
ATOM     22  H   UNL     1       9.009  10.871  17.115  0.00  0.00    +0.000 HD
BRANCH  21  23
ATOM     23  C   UNL     1       9.147  12.771  17.960  0.00  0.00    +0.000 A 
ATOM     24  C   UNL     1       7.935  13.471  17.876  0.00  0.00    +0.000 A 
ATOM     25  C   UNL     1       7.903  14.864  17.764  0.00  0.00    +0.000 A 
ATOM     26  C   UNL     1       9.086  15.591  17.732  0.00  0.00    +0.000 A 
ATOM     27  C   UNL     1      10.304  14.925  17.855  0.00  0.00    +0.000 A 
ATOM     28  C   UNL     1      10.341  13.525  18.008  0.00  0.00    +0.000 A 
BRANCH  28  29
ATOM     29  C   UNL     1      11.654  12.850  18.173  0.00  0.00    +0.000 C 
ATOM     30  O   UNL     1      12.333  12.971  19.178  0.00  0.00    +0.000 OA
BRANCH  29  31
ATOM     31  O   UNL     1      12.069  12.162  17.088  0.00  0.00    +0.000 OA
ATOM     32  H   UNL     1      11.421  12.087  16.361  0.00  0.00    +0.000 HD
ENDBRANCH  29  31
ENDBRANCH  28  29
ENDBRANCH  21  23
ENDBRANCH  18  20
ENDBRANCH   1  18
TORSDOF 7
ENDMDL
MODEL 7
REMARK VINA RESULT:      -8.3      2.972      5.482
REMARK  Name = 
REMARK  7 active torsions:
REMARK  status: ('A' for Active; 'I' for Inactive)
REMARK    1  A    between atoms: C_2  and  C_3
REMARK    2  A    between atoms: C_3  and  C_4
REMARK    3  A    between atoms: C_4  and  C_5
REMARK    4  A    between atoms: C_14  and  O_15
REMARK    5  A    between atoms: N_19  and  C_20
REMARK    6  A    between atoms: C_25  and  C_26
REMARK    7  A    between atoms: C_26  and  O_28
REMARK                            x       y       z     vdW  Elec       q    Type
REMARK                         _______ _______ _______ _____ _____    ______ ____
ROOT
ATOM      1  C   UNL     1       1.878   9.479  19.197  0.00  0.00    +0.000 C 
ENDROOT
BRANCH   1   2
ATOM      2  C   UNL     1       1.985   8.035  19.547  0.00  0.00    +0.000 A 
ATOM      3  N   UNL     1       1.535   7.525  20.738  0.00  0.00    +0.000 N 
ATOM      4  N   UNL     1       1.697   6.195  20.863  0.00  0.00    +0.000 NA
ATOM      5  C   UNL     1       2.315   5.841  19.732  0.00  0.00    +0.000 A 
ATOM      6  C   UNL     1       2.518   6.956  18.879  0.00  0.00    +0.000 A 
ATOM      7  C   UNL     1       3.168   6.809  17.550  0.00  0.00    +0.000 C 
ATOM      8  C   UNL     1       4.150   5.618  17.551  0.00  0.00    +0.000 C 
ATOM      9  C   UNL     1       3.615   4.375  18.247  0.00  0.00    +0.000 A 
ATOM     10  C   UNL     1       4.045   3.103  17.848  0.00  0.00    +0.000 A 
ATOM     11  C   UNL     1       3.598   1.979  18.539  0.00  0.00    +0.000 A 
ATOM     12  C   UNL     1       2.745   2.097  19.632  0.00  0.00    +0.000 A 
ATOM     13  C   UNL     1       2.321   3.360  20.050  0.00  0.00    +0.000 A 
ATOM     14  C   UNL     1       2.749   4.499  19.363  0.00  0.00    +0.000 A 
ATOM     15  H   UNL     1       1.104   8.026  21.509  0.00  0.00    +0.000 HD
BRANCH  11  16
ATOM     16  O   UNL     1       3.985   0.723  18.171  0.00  0.00    +0.000 OA
ATOM     17  H   UNL     1       4.632   0.394  18.817  0.00  0.00    +0.000 HD
ENDBRANCH  11  16
ENDBRANCH   1   2
BRANCH   1  18
ATOM     18  C   UNL     1       0.711   9.763  18.244  0.00  0.00    +0.000 C 
BRANCH  18  20
ATOM     19  O   UNL     1      -1.628  10.157  18.585  0.00  0.00    +0.000 OA
ATOM     20  C   UNL     1      -0.485  10.313  19.005  0.00  0.00    +0.000 C 
ATOM     21  N   UNL     1      -0.136  10.990  20.164  0.00  0.00    +0.000 N 
ATOM     22  H   UNL     1       0.838  11.295  20.245  0.00  0.00    +0.000 HD
BRANCH  21  23
ATOM     23  C   UNL     1      -1.038  11.549  21.116  0.00  0.00    +0.000 A 
ATOM     24  C   UNL     1      -1.843  12.651  20.795  0.00  0.00    +0.000 A 
ATOM     25  C   UNL     1      -2.680  13.243  21.744  0.00  0.00    +0.000 A 
ATOM     26  C   UNL     1      -2.732  12.747  23.040  0.00  0.00    +0.000 A 
ATOM     27  C   UNL     1      -1.974  11.627  23.376  0.00  0.00    +0.000 A 
ATOM     28  C   UNL     1      -1.158  11.001  22.413  0.00  0.00    +0.000 A 
BRANCH  28  29
ATOM     29  C   UNL     1      -0.391   9.787  22.794  0.00  0.00    +0.000 C 
ATOM     30  O   UNL     1       0.470   9.798  23.657  0.00  0.00    +0.000 OA
BRANCH  29  31
ATOM     31  O   UNL     1      -0.668   8.695  22.049  0.00  0.00    +0.000 OA
ATOM     32  H   UNL     1      -1.184   7.998  22.497  0.00  0.00    +0.000 HD
ENDBRANCH  29  31
ENDBRANCH  28  29
ENDBRANCH  21  23
ENDBRANCH  18  20
ENDBRANCH   1  18
TORSDOF 7
ENDMDL
MODEL 8
REMARK VINA RESULT:      -8.3      5.612      7.595
REMARK  Name = 
REMARK  7 active torsions:
REMARK  status: ('A' for Active; 'I' for Inactive)
REMARK    1  A    between atoms: C_2  and  C_3
REMARK    2  A    between atoms: C_3  and  C_4
REMARK    3  A    between atoms: C_4  and  C_5
REMARK    4  A    between atoms: C_14  and  O_15
REMARK    5  A    between atoms: N_19  and  C_20
REMARK    6  A    between atoms: C_25  and  C_26
REMARK    7  A    between atoms: C_26  and  O_28
REMARK                            x       y       z     vdW  Elec       q    Type
REMARK                         _______ _______ _______ _____ _____    ______ ____
ROOT
ATOM      1  C   UNL     1       7.677   7.914  17.119  0.00  0.00    +0.000 C 
ENDROOT
BRANCH   1   2
ATOM      2  C   UNL     1       6.911   6.636  17.159  0.00  0.00    +0.000 A 
ATOM      3  N   UNL     1       7.463   5.430  16.807  0.00  0.00    +0.000 N 
ATOM      4  N   UNL     1       6.624   4.385  16.930  0.00  0.00    +0.000 NA
ATOM      5  C   UNL     1       5.477   4.942  17.333  0.00  0.00    +0.000 A 
ATOM      6  C   UNL     1       5.606   6.346  17.488  0.00  0.00    +0.000 A 
ATOM      7  C   UNL     1       4.470   7.186  17.949  0.00  0.00    +0.000 C 
ATOM      8  C   UNL     1       3.122   6.552  17.543  0.00  0.00    +0.000 C 
ATOM      9  C   UNL     1       3.057   5.046  17.758  0.00  0.00    +0.000 A 
ATOM     10  C   UNL     1       1.831   4.425  18.026  0.00  0.00    +0.000 A 
ATOM     11  C   UNL     1       1.777   3.038  18.152  0.00  0.00    +0.000 A 
ATOM     12  C   UNL     1       2.917   2.256  17.999  0.00  0.00    +0.000 A 
ATOM     13  C   UNL     1       4.143   2.861  17.715  0.00  0.00    +0.000 A 
ATOM     14  C   UNL     1       4.221   4.251  17.595  0.00  0.00    +0.000 A 
ATOM     15  H   UNL     1       8.405   5.247  16.478  0.00  0.00    +0.000 HD
BRANCH  11  16
ATOM     16  O   UNL     1       0.604   2.399  18.427  0.00  0.00    +0.000 OA
ATOM     17  H   UNL     1      -0.095   2.774  17.865  0.00  0.00    +0.000 HD
ENDBRANCH  11  16
ENDBRANCH   1   2
BRANCH   1  18
ATOM     18  C   UNL     1       8.456   8.167  18.415  0.00  0.00    +0.000 C 
BRANCH  18  20
ATOM     19  O   UNL     1       7.983  10.479  17.997  0.00  0.00    +0.000 OA
ATOM     20  C   UNL     1       8.572   9.657  18.693  0.00  0.00    +0.000 C 
ATOM     21  N   UNL     1       9.399   9.953  19.767  0.00  0.00    +0.000 N 
ATOM     22  H   UNL     1      10.044   9.219  20.069  0.00  0.00    +0.000 HD
BRANCH  21  23
ATOM     23  C   UNL     1       9.643  11.249  20.308  0.00  0.00    +0.000 A 
ATOM     24  C   UNL     1       9.052  11.659  21.511  0.00  0.00    +0.000 A 
ATOM     25  C   UNL     1       9.234  12.951  22.012  0.00  0.00    +0.000 A 
ATOM     26  C   UNL     1      10.013  13.867  21.318  0.00  0.00    +0.000 A 
ATOM     27  C   UNL     1      10.646  13.476  20.139  0.00  0.00    +0.000 A 
ATOM     28  C   UNL     1      10.498  12.163  19.651  0.00  0.00    +0.000 A 
BRANCH  28  29
ATOM     29  C   UNL     1      11.216  11.767  18.412  0.00  0.00    +0.000 C 
ATOM     30  O   UNL     1      10.796  12.026  17.297  0.00  0.00    +0.000 OA
BRANCH  29  31
ATOM     31  O   UNL     1      12.326  11.027  18.621  0.00  0.00    +0.000 OA
ATOM     32  H   UNL     1      13.091  11.242  18.054  0.00  0.00    +0.000 HD
ENDBRANCH  29  31
ENDBRANCH  28  29
ENDBRANCH  21  23
ENDBRANCH  18  20
ENDBRANCH   1  18
TORSDOF 7
ENDMDL
MODEL 9
REMARK VINA RESULT:      -8.2      5.980      7.922
REMARK  Name = 
REMARK  7 active torsions:
REMARK  status: ('A' for Active; 'I' for Inactive)
REMARK    1  A    between atoms: C_2  and  C_3
REMARK    2  A    between atoms: C_3  and  C_4
REMARK    3  A    between atoms: C_4  and  C_5
REMARK    4  A    between atoms: C_14  and  O_15
REMARK    5  A    between atoms: N_19  and  C_20
REMARK    6  A    between atoms: C_25  and  C_26
REMARK    7  A    between atoms: C_26  and  O_28
REMARK                            x       y       z     vdW  Elec       q    Type
REMARK                         _______ _______ _______ _____ _____    ______ ____
ROOT
ATOM      1  C   UNL     1       8.387   7.997  17.376  0.00  0.00    +0.000 C 
ENDROOT
BRANCH   1   2
ATOM      2  C   UNL     1       7.610   6.898  18.016  0.00  0.00    +0.000 A 
ATOM      3  N   UNL     1       7.931   6.383  19.247  0.00  0.00    +0.000 N 
ATOM      4  N   UNL     1       7.100   5.413  19.670  0.00  0.00    +0.000 NA
ATOM      5  C   UNL     1       6.240   5.265  18.657  0.00  0.00    +0.000 A 
ATOM      6  C   UNL     1       6.519   6.169  17.600  0.00  0.00    +0.000 A 
ATOM      7  C   UNL     1       5.685   6.211  16.372  0.00  0.00    +0.000 C 
ATOM      8  C   UNL     1       5.058   4.828  16.090  0.00  0.00    +0.000 C 
ATOM      9  C   UNL     1       4.507   4.135  17.328  0.00  0.00    +0.000 A 
ATOM     10  C   UNL     1       3.433   3.243  17.218  0.00  0.00    +0.000 A 
ATOM     11  C   UNL     1       2.984   2.565  18.349  0.00  0.00    +0.000 A 
ATOM     12  C   UNL     1       3.596   2.744  19.586  0.00  0.00    +0.000 A 
ATOM     13  C   UNL     1       4.679   3.617  19.707  0.00  0.00    +0.000 A 
ATOM     14  C   UNL     1       5.137   4.315  18.587  0.00  0.00    +0.000 A 
ATOM     15  H   UNL     1       8.700   6.649  19.854  0.00  0.00    +0.000 HD
BRANCH  11  16
ATOM     16  O   UNL     1       1.932   1.699  18.283  0.00  0.00    +0.000 OA
ATOM     17  H   UNL     1       1.690   1.433  19.185  0.00  0.00    +0.000 HD
ENDBRANCH  11  16
ENDBRANCH   1   2
BRANCH   1  18
ATOM     18  C   UNL     1       7.820   9.382  17.708  0.00  0.00    +0.000 C 
BRANCH  18  20
ATOM     19  O   UNL     1       9.330   9.477  19.567  0.00  0.00    +0.000 OA
ATOM     20  C   UNL     1       8.705  10.100  18.714  0.00  0.00    +0.000 C 
ATOM     21  N   UNL     1       8.703  11.480  18.561  0.00  0.00    +0.000 N 
ATOM     22  H   UNL     1       7.935  11.883  18.019  0.00  0.00    +0.000 HD
BRANCH  21  23
ATOM     23  C   UNL     1       9.487  12.409  19.305  0.00  0.00    +0.000 A 
ATOM     24  C   UNL     1       9.157  12.747  20.625  0.00  0.00    +0.000 A 
ATOM     25  C   UNL     1       9.883  13.706  21.336  0.00  0.00    +0.000 A 
ATOM     26  C   UNL     1      10.959  14.352  20.743  0.00  0.00    +0.000 A 
ATOM     27  C   UNL     1      11.336  14.008  19.446  0.00  0.00    +0.000 A 
ATOM     28  C   UNL     1      10.632  13.013  18.738  0.00  0.00    +0.000 A 
BRANCH  28  29
ATOM     29  C   UNL     1      11.082  12.643  17.372  0.00  0.00    +0.000 C 
ATOM     30  O   UNL     1      11.038  13.419  16.432  0.00  0.00    +0.000 OA
BRANCH  29  31
ATOM     31  O   UNL     1      11.463  11.354  17.238  0.00  0.00    +0.000 OA
ATOM     32  H   UNL     1      10.790  10.687  17.471  0.00  0.00    +0.000 HD
ENDBRANCH  29  31
ENDBRANCH  28  29
ENDBRANCH  21  23
ENDBRANCH  18  20
ENDBRANCH   1  18
TORSDOF 7
ENDMDL
