MODEL 1
REMARK VINA RESULT:      -7.3      0.000      0.000
REMARK  Name = 
REMARK  5 active torsions:
REMARK  status: ('A' for Active; 'I' for Inactive)
REMARK    1  A    between atoms: C_2  and  O_3
REMARK    2  A    between atoms: C_2  and  C_4
REMARK    3  A    between atoms: C_4  and  C_15
REMARK    4  A    between atoms: C_5  and  C_6
REMARK    5  A    between atoms: C_11  and  N_12
REMARK                            x       y       z     vdW  Elec       q    Type
REMARK                         _______ _______ _______ _____ _____    ______ ____
ROOT
ATOM      1  C   UNL     1       5.750   4.972  16.227  0.00  0.00    +0.000 C 
ATOM      2  C   UNL     1       4.419   4.941  16.463  0.00  0.00    +0.000 C 
ENDROOT
BRANCH   2   3
ATOM      3  C   UNL     1       3.751   5.294  17.729  0.00  0.00    +0.000 A 
ATOM      4  C   UNL     1       3.274   6.604  17.892  0.00  0.00    +0.000 A 
ATOM      5  C   UNL     1       2.589   6.981  19.054  0.00  0.00    +0.000 A 
ATOM      6  C   UNL     1       2.368   6.060  20.077  0.00  0.00    +0.000 A 
ATOM      7  C   UNL     1       2.856   4.762  19.956  0.00  0.00    +0.000 A 
ATOM      8  C   UNL     1       3.547   4.395  18.790  0.00  0.00    +0.000 A 
BRANCH   8   9
ATOM      9  N   UNL     1       4.098   3.052  18.743  0.00  0.00    +0.000 N 
ATOM     10  O   UNL     1       3.530   2.213  18.028  0.00  0.00    +0.000 OA
ATOM     11  O   UNL     1       5.104   2.835  19.434  0.00  0.00    +0.000 OA
ENDBRANCH   8   9
ENDBRANCH   2   3
BRANCH   1  12
ATOM     12  C   UNL     1       6.197   4.658  14.855  0.00  0.00    +0.000 A 
ATOM     13  C   UNL     1       5.454   3.777  14.054  0.00  0.00    +0.000 A 
ATOM     14  C   UNL     1       5.854   3.508  12.743  0.00  0.00    +0.000 A 
ATOM     15  C   UNL     1       7.001   4.107  12.225  0.00  0.00    +0.000 A 
ATOM     16  C   UNL     1       7.750   4.977  13.018  0.00  0.00    +0.000 A 
ATOM     17  C   UNL     1       7.351   5.254  14.328  0.00  0.00    +0.000 A 
ENDBRANCH   1  12
BRANCH   1  19
ATOM     18  O   UNL     1       7.097   6.453  17.573  0.00  0.00    +0.000 OA
ATOM     19  C   UNL     1       6.740   5.317  17.299  0.00  0.00    +0.000 C 
BRANCH  19  20
ATOM     20  O   UNL     1       7.213   4.251  17.979  0.00  0.00    +0.000 OA
ATOM     21  H   UNL     1       7.974   3.803  17.567  0.00  0.00    +0.000 HD
ENDBRANCH  19  20
ENDBRANCH   1  19
TORSDOF 5
ENDMDL
MODEL 2
REMARK VINA RESULT:      -7.3      1.903      6.129
REMARK  Name = 
REMARK  5 active torsions:
REMARK  status: ('A' for Active; 'I' for Inactive)
REMARK    1  A    between atoms: C_2  and  O_3
REMARK    2  A    between atoms: C_2  and  C_4
REMARK    3  A    between atoms: C_4  and  C_15
REMARK    4  A    between atoms: C_5  and  C_6
REMARK    5  A    between atoms: C_11  and  N_12
REMARK                            x       y       z     vdW  Elec       q    Type
REMARK                         _______ _______ _______ _____ _____    ______ ____
ROOT
ATOM      1  C   UNL     1       3.277   6.456  18.079  0.00  0.00    +0.000 C 
ATOM      2  C   UNL     1       4.401   6.812  17.415  0.00  0.00    +0.000 C 
ENDROOT
BRANCH   2   3
ATOM      3  C   UNL     1       5.311   5.902  16.695  0.00  0.00    +0.000 A 
ATOM      4  C   UNL     1       5.012   5.571  15.364  0.00  0.00    +0.000 A 
ATOM      5  C   UNL     1       5.868   4.751  14.618  0.00  0.00    +0.000 A 
ATOM      6  C   UNL     1       7.036   4.243  15.184  0.00  0.00    +0.000 A 
ATOM      7  C   UNL     1       7.343   4.531  16.512  0.00  0.00    +0.000 A 
ATOM      8  C   UNL     1       6.476   5.350  17.254  0.00  0.00    +0.000 A 
BRANCH   8   9
ATOM      9  N   UNL     1       6.802   5.561  18.653  0.00  0.00    +0.000 N 
ATOM     10  O   UNL     1       7.633   6.436  18.932  0.00  0.00    +0.000 OA
ATOM     11  O   UNL     1       6.225   4.837  19.478  0.00  0.00    +0.000 OA
ENDBRANCH   8   9
ENDBRANCH   2   3
BRANCH   1  12
ATOM     12  C   UNL     1       2.466   7.546  18.659  0.00  0.00    +0.000 A 
ATOM     13  C   UNL     1       2.071   8.633  17.864  0.00  0.00    +0.000 A 
ATOM     14  C   UNL     1       1.272   9.645  18.400  0.00  0.00    +0.000 A 
ATOM     15  C   UNL     1       0.870   9.586  19.734  0.00  0.00    +0.000 A 
ATOM     16  C   UNL     1       1.266   8.514  20.533  0.00  0.00    +0.000 A 
ATOM     17  C   UNL     1       2.060   7.496  19.999  0.00  0.00    +0.000 A 
ENDBRANCH   1  12
BRANCH   1  19
ATOM     18  O   UNL     1       2.029   4.472  17.512  0.00  0.00    +0.000 OA
ATOM     19  C   UNL     1       2.857   5.025  18.221  0.00  0.00    +0.000 C 
BRANCH  19  20
ATOM     20  O   UNL     1       3.492   4.356  19.207  0.00  0.00    +0.000 OA
ATOM     21  H   UNL     1       4.406   4.090  19.001  0.00  0.00    +0.000 HD
ENDBRANCH  19  20
ENDBRANCH   1  19
TORSDOF 5
ENDMDL
MODEL 3
REMARK VINA RESULT:      -7.3      1.871      6.107
REMARK  Name = 
REMARK  5 active torsions:
REMARK  status: ('A' for Active; 'I' for Inactive)
REMARK    1  A    between atoms: C_2  and  O_3
REMARK    2  A    between atoms: C_2  and  C_4
REMARK    3  A    between atoms: C_4  and  C_15
REMARK    4  A    between atoms: C_5  and  C_6
REMARK    5  A    between atoms: C_11  and  N_12
REMARK                            x       y       z     vdW  Elec       q    Type
REMARK                         _______ _______ _______ _____ _____    ______ ____
ROOT
ATOM      1  C   UNL     1       3.269   6.381  18.084  0.00  0.00    +0.000 C 
ATOM      2  C   UNL     1       4.383   6.760  17.419  0.00  0.00    +0.000 C 
ENDROOT
BRANCH   2   3
ATOM      3  C   UNL     1       5.311   5.871  16.696  0.00  0.00    +0.000 A 
ATOM      4  C   UNL     1       5.015   5.533  15.366  0.00  0.00    +0.000 A 
ATOM      5  C   UNL     1       5.886   4.732  14.617  0.00  0.00    +0.000 A 
ATOM      6  C   UNL     1       7.067   4.250  15.180  0.00  0.00    +0.000 A 
ATOM      7  C   UNL     1       7.371   4.544  16.506  0.00  0.00    +0.000 A 
ATOM      8  C   UNL     1       6.489   5.344  17.251  0.00  0.00    +0.000 A 
BRANCH   8   9
ATOM      9  N   UNL     1       6.815   5.561  18.650  0.00  0.00    +0.000 N 
ATOM     10  O   UNL     1       7.647   6.438  18.925  0.00  0.00    +0.000 OA
ATOM     11  O   UNL     1       6.237   4.842  19.478  0.00  0.00    +0.000 OA
ENDBRANCH   8   9
ENDBRANCH   2   3
BRANCH   1  12
ATOM     12  C   UNL     1       2.436   7.453  18.668  0.00  0.00    +0.000 A 
ATOM     13  C   UNL     1       2.066   7.402  20.020  0.00  0.00    +0.000 A 
ATOM     14  C   UNL     1       1.311   8.434  20.584  0.00  0.00    +0.000 A 
ATOM     15  C   UNL     1       0.912   9.516  19.800  0.00  0.00    +0.000 A 
ATOM     16  C   UNL     1       1.267   9.568  18.453  0.00  0.00    +0.000 A 
ATOM     17  C   UNL     1       2.028   8.542  17.887  0.00  0.00    +0.000 A 
ENDBRANCH   1  12
BRANCH   1  19
ATOM     18  O   UNL     1       2.062   4.372  17.514  0.00  0.00    +0.000 OA
ATOM     19  C   UNL     1       2.878   4.941  18.224  0.00  0.00    +0.000 C 
BRANCH  19  20
ATOM     20  O   UNL     1       3.526   4.284  19.210  0.00  0.00    +0.000 OA
ATOM     21  H   UNL     1       4.310   4.741  19.563  0.00  0.00    +0.000 HD
ENDBRANCH  19  20
ENDBRANCH   1  19
TORSDOF 5
ENDMDL
MODEL 4
REMARK VINA RESULT:      -7.3      0.075      1.083
REMARK  Name = 
REMARK  5 active torsions:
REMARK  status: ('A' for Active; 'I' for Inactive)
REMARK    1  A    between atoms: C_2  and  O_3
REMARK    2  A    between atoms: C_2  and  C_4
REMARK    3  A    between atoms: C_4  and  C_15
REMARK    4  A    between atoms: C_5  and  C_6
REMARK    5  A    between atoms: C_11  and  N_12
REMARK                            x       y       z     vdW  Elec       q    Type
REMARK                         _______ _______ _______ _____ _____    ______ ____
ROOT
ATOM      1  C   UNL     1       5.771   5.006  16.176  0.00  0.00    +0.000 C 
ATOM      2  C   UNL     1       4.441   4.989  16.421  0.00  0.00    +0.000 C 
ENDROOT
BRANCH   2   3
ATOM      3  C   UNL     1       3.787   5.336  17.695  0.00  0.00    +0.000 A 
ATOM      4  C   UNL     1       3.303   6.643  17.866  0.00  0.00    +0.000 A 
ATOM      5  C   UNL     1       2.630   7.014  19.037  0.00  0.00    +0.000 A 
ATOM      6  C   UNL     1       2.428   6.090  20.061  0.00  0.00    +0.000 A 
ATOM      7  C   UNL     1       2.923   4.795  19.932  0.00  0.00    +0.000 A 
ATOM      8  C   UNL     1       3.601   4.434  18.757  0.00  0.00    +0.000 A 
BRANCH   8   9
ATOM      9  N   UNL     1       4.161   3.095  18.702  0.00  0.00    +0.000 N 
ATOM     10  O   UNL     1       3.597   2.257  17.983  0.00  0.00    +0.000 OA
ATOM     11  O   UNL     1       5.169   2.881  19.390  0.00  0.00    +0.000 OA
ENDBRANCH   8   9
ENDBRANCH   2   3
BRANCH   1  12
ATOM     12  C   UNL     1       6.204   4.702  14.796  0.00  0.00    +0.000 A 
ATOM     13  C   UNL     1       7.355   5.307  14.268  0.00  0.00    +0.000 A 
ATOM     14  C   UNL     1       7.788   4.992  12.978  0.00  0.00    +0.000 A 
ATOM     15  C   UNL     1       7.072   4.081  12.203  0.00  0.00    +0.000 A 
ATOM     16  C   UNL     1       5.922   3.482  12.718  0.00  0.00    +0.000 A 
ATOM     17  C   UNL     1       5.489   3.790  14.010  0.00  0.00    +0.000 A 
ENDBRANCH   1  12
BRANCH   1  19
ATOM     18  O   UNL     1       7.106   6.458  17.564  0.00  0.00    +0.000 OA
ATOM     19  C   UNL     1       6.773   5.327  17.243  0.00  0.00    +0.000 C 
BRANCH  19  20
ATOM     20  O   UNL     1       7.286   4.244  17.865  0.00  0.00    +0.000 OA
ATOM     21  H   UNL     1       8.241   4.290  18.051  0.00  0.00    +0.000 HD
ENDBRANCH  19  20
ENDBRANCH   1  19
TORSDOF 5
ENDMDL
MODEL 5
REMARK VINA RESULT:      -7.2      0.712      1.484
REMARK  Name = 
REMARK  5 active torsions:
REMARK  status: ('A' for Active; 'I' for Inactive)
REMARK    1  A    between atoms: C_2  and  O_3
REMARK    2  A    between atoms: C_2  and  C_4
REMARK    3  A    between atoms: C_4  and  C_15
REMARK    4  A    between atoms: C_5  and  C_6
REMARK    5  A    between atoms: C_11  and  N_12
REMARK                            x       y       z     vdW  Elec       q    Type
REMARK                         _______ _______ _______ _____ _____    ______ ____
ROOT
ATOM      1  C   UNL     1       5.429   4.779  16.784  0.00  0.00    +0.000 C 
ATOM      2  C   UNL     1       4.109   4.602  17.023  0.00  0.00    +0.000 C 
ENDROOT
BRANCH   2   3
ATOM      3  C   UNL     1       3.421   4.819  18.308  0.00  0.00    +0.000 A 
ATOM      4  C   UNL     1       2.856   6.079  18.561  0.00  0.00    +0.000 A 
ATOM      5  C   UNL     1       2.148   6.326  19.744  0.00  0.00    +0.000 A 
ATOM      6  C   UNL     1       1.992   5.322  20.700  0.00  0.00    +0.000 A 
ATOM      7  C   UNL     1       2.568   4.072  20.489  0.00  0.00    +0.000 A 
ATOM      8  C   UNL     1       3.280   3.836  19.303  0.00  0.00    +0.000 A 
BRANCH   8   9
ATOM      9  N   UNL     1       3.922   2.540  19.163  0.00  0.00    +0.000 N 
ATOM     10  O   UNL     1       4.979   2.344  19.779  0.00  0.00    +0.000 OA
ATOM     11  O   UNL     1       3.364   1.716  18.424  0.00  0.00    +0.000 OA
ENDBRANCH   8   9
ENDBRANCH   2   3
BRANCH   1  12
ATOM     12  C   UNL     1       5.892   4.584  15.395  0.00  0.00    +0.000 A 
ATOM     13  C   UNL     1       7.120   5.122  14.979  0.00  0.00    +0.000 A 
ATOM     14  C   UNL     1       7.578   4.907  13.677  0.00  0.00    +0.000 A 
ATOM     15  C   UNL     1       6.812   4.164  12.780  0.00  0.00    +0.000 A 
ATOM     16  C   UNL     1       5.587   3.634  13.184  0.00  0.00    +0.000 A 
ATOM     17  C   UNL     1       5.128   3.841  14.487  0.00  0.00    +0.000 A 
ENDBRANCH   1  12
BRANCH   1  19
ATOM     18  O   UNL     1       6.642   6.313  18.195  0.00  0.00    +0.000 OA
ATOM     19  C   UNL     1       6.389   5.163  17.869  0.00  0.00    +0.000 C 
BRANCH  19  20
ATOM     20  O   UNL     1       6.960   4.115  18.500  0.00  0.00    +0.000 OA
ATOM     21  H   UNL     1       6.565   3.887  19.361  0.00  0.00    +0.000 HD
ENDBRANCH  19  20
ENDBRANCH   1  19
TORSDOF 5
ENDMDL
MODEL 6
REMARK VINA RESULT:      -7.1      1.931      6.136
REMARK  Name = 
REMARK  5 active torsions:
REMARK  status: ('A' for Active; 'I' for Inactive)
REMARK    1  A    between atoms: C_2  and  O_3
REMARK    2  A    between atoms: C_2  and  C_4
REMARK    3  A    between atoms: C_4  and  C_15
REMARK    4  A    between atoms: C_5  and  C_6
REMARK    5  A    between atoms: C_11  and  N_12
REMARK                            x       y       z     vdW  Elec       q    Type
REMARK                         _______ _______ _______ _____ _____    ______ ____
ROOT
ATOM      1  C   UNL     1       3.273   6.400  18.203  0.00  0.00    +0.000 C 
ATOM      2  C   UNL     1       4.373   6.742  17.494  0.00  0.00    +0.000 C 
ENDROOT
BRANCH   2   3
ATOM      3  C   UNL     1       5.298   5.812  16.820  0.00  0.00    +0.000 A 
ATOM      4  C   UNL     1       4.942   5.310  15.559  0.00  0.00    +0.000 A 
ATOM      5  C   UNL     1       5.806   4.463  14.853  0.00  0.00    +0.000 A 
ATOM      6  C   UNL     1       7.039   4.097  15.392  0.00  0.00    +0.000 A 
ATOM      7  C   UNL     1       7.404   4.556  16.655  0.00  0.00    +0.000 A 
ATOM      8  C   UNL     1       6.530   5.400  17.357  0.00  0.00    +0.000 A 
BRANCH   8   9
ATOM      9  N   UNL     1       6.925   5.793  18.699  0.00  0.00    +0.000 N 
ATOM     10  O   UNL     1       6.427   5.182  19.655  0.00  0.00    +0.000 OA
ATOM     11  O   UNL     1       7.736   6.726  18.793  0.00  0.00    +0.000 OA
ENDBRANCH   8   9
ENDBRANCH   2   3
BRANCH   1  12
ATOM     12  C   UNL     1       2.439   7.503  18.723  0.00  0.00    +0.000 A 
ATOM     13  C   UNL     1       2.013   7.497  20.060  0.00  0.00    +0.000 A 
ATOM     14  C   UNL     1       1.256   8.557  20.564  0.00  0.00    +0.000 A 
ATOM     15  C   UNL     1       0.910   9.624  19.736  0.00  0.00    +0.000 A 
ATOM     16  C   UNL     1       1.321   9.632  18.403  0.00  0.00    +0.000 A 
ATOM     17  C   UNL     1       2.084   8.577  17.897  0.00  0.00    +0.000 A 
ENDBRANCH   1  12
BRANCH   1  19
ATOM     18  O   UNL     1       3.374   4.275  19.340  0.00  0.00    +0.000 OA
ATOM     19  C   UNL     1       2.901   4.970  18.453  0.00  0.00    +0.000 C 
BRANCH  19  20
ATOM     20  O   UNL     1       1.957   4.489  17.616  0.00  0.00    +0.000 OA
ATOM     21  H   UNL     1       2.147   4.610  16.668  0.00  0.00    +0.000 HD
ENDBRANCH  19  20
ENDBRANCH   1  19
TORSDOF 5
ENDMDL
MODEL 7
REMARK VINA RESULT:      -7.1      1.177      1.512
REMARK  Name = 
REMARK  5 active torsions:
REMARK  status: ('A' for Active; 'I' for Inactive)
REMARK    1  A    between atoms: C_2  and  O_3
REMARK    2  A    between atoms: C_2  and  C_4
REMARK    3  A    between atoms: C_4  and  C_15
REMARK    4  A    between atoms: C_5  and  C_6
REMARK    5  A    between atoms: C_11  and  N_12
REMARK                            x       y       z     vdW  Elec       q    Type
REMARK                         _______ _______ _______ _____ _____    ______ ____
ROOT
ATOM      1  C   UNL     1       5.136   4.443  16.913  0.00  0.00    +0.000 C 
ATOM      2  C   UNL     1       3.879   3.978  17.093  0.00  0.00    +0.000 C 
ENDROOT
BRANCH   2   3
ATOM      3  C   UNL     1       3.099   4.041  18.343  0.00  0.00    +0.000 A 
ATOM      4  C   UNL     1       2.248   5.138  18.547  0.00  0.00    +0.000 A 
ATOM      5  C   UNL     1       1.447   5.224  19.693  0.00  0.00    +0.000 A 
ATOM      6  C   UNL     1       1.483   4.220  20.660  0.00  0.00    +0.000 A 
ATOM      7  C   UNL     1       2.340   3.135  20.498  0.00  0.00    +0.000 A 
ATOM      8  C   UNL     1       3.143   3.060  19.349  0.00  0.00    +0.000 A 
BRANCH   8   9
ATOM      9  N   UNL     1       4.072   1.947  19.262  0.00  0.00    +0.000 N 
ATOM     10  O   UNL     1       5.049   1.943  20.025  0.00  0.00    +0.000 OA
ATOM     11  O   UNL     1       3.823   1.074  18.417  0.00  0.00    +0.000 OA
ENDBRANCH   8   9
ENDBRANCH   2   3
BRANCH   1  12
ATOM     12  C   UNL     1       5.697   4.353  15.549  0.00  0.00    +0.000 A 
ATOM     13  C   UNL     1       4.974   3.714  14.529  0.00  0.00    +0.000 A 
ATOM     14  C   UNL     1       5.486   3.660  13.230  0.00  0.00    +0.000 A 
ATOM     15  C   UNL     1       6.723   4.233  12.942  0.00  0.00    +0.000 A 
ATOM     16  C   UNL     1       7.451   4.862  13.952  0.00  0.00    +0.000 A 
ATOM     17  C   UNL     1       6.941   4.923  15.251  0.00  0.00    +0.000 A 
ENDBRANCH   1  12
BRANCH   1  19
ATOM     18  O   UNL     1       5.899   6.211  18.366  0.00  0.00    +0.000 OA
ATOM     19  C   UNL     1       5.934   5.035  18.035  0.00  0.00    +0.000 C 
BRANCH  19  20
ATOM     20  O   UNL     1       6.708   4.146  18.694  0.00  0.00    +0.000 OA
ATOM     21  H   UNL     1       7.456   3.791  18.180  0.00  0.00    +0.000 HD
ENDBRANCH  19  20
ENDBRANCH   1  19
TORSDOF 5
ENDMDL
MODEL 8
REMARK VINA RESULT:      -7.0      1.309      1.794
REMARK  Name = 
REMARK  5 active torsions:
REMARK  status: ('A' for Active; 'I' for Inactive)
REMARK    1  A    between atoms: C_2  and  O_3
REMARK    2  A    between atoms: C_2  and  C_4
REMARK    3  A    between atoms: C_4  and  C_15
REMARK    4  A    between atoms: C_5  and  C_6
REMARK    5  A    between atoms: C_11  and  N_12
REMARK                            x       y       z     vdW  Elec       q    Type
REMARK                         _______ _______ _______ _____ _____    ______ ____
ROOT
ATOM      1  C   UNL     1       4.968   4.814  17.455  0.00  0.00    +0.000 C 
ATOM      2  C   UNL     1       3.667   5.183  17.455  0.00  0.00    +0.000 C 
ENDROOT
BRANCH   2   3
ATOM      3  C   UNL     1       2.839   5.453  18.644  0.00  0.00    +0.000 A 
ATOM      4  C   UNL     1       2.800   6.762  19.150  0.00  0.00    +0.000 A 
ATOM      5  C   UNL     1       1.992   7.085  20.248  0.00  0.00    +0.000 A 
ATOM      6  C   UNL     1       1.209   6.109  20.864  0.00  0.00    +0.000 A 
ATOM      7  C   UNL     1       1.252   4.796  20.403  0.00  0.00    +0.000 A 
ATOM      8  C   UNL     1       2.069   4.481  19.305  0.00  0.00    +0.000 A 
BRANCH   8   9
ATOM      9  N   UNL     1       2.133   3.085  18.909  0.00  0.00    +0.000 N 
ATOM     10  O   UNL     1       2.961   2.356  19.473  0.00  0.00    +0.000 OA
ATOM     11  O   UNL     1       1.351   2.720  18.018  0.00  0.00    +0.000 OA
ENDBRANCH   8   9
ENDBRANCH   2   3
BRANCH   1  12
ATOM     12  C   UNL     1       5.629   4.678  16.141  0.00  0.00    +0.000 A 
ATOM     13  C   UNL     1       4.969   4.034  15.083  0.00  0.00    +0.000 A 
ATOM     14  C   UNL     1       5.576   3.937  13.828  0.00  0.00    +0.000 A 
ATOM     15  C   UNL     1       6.847   4.473  13.623  0.00  0.00    +0.000 A 
ATOM     16  C   UNL     1       7.512   5.107  14.672  0.00  0.00    +0.000 A 
ATOM     17  C   UNL     1       6.906   5.212  15.927  0.00  0.00    +0.000 A 
ENDBRANCH   1  12
BRANCH   1  19
ATOM     18  O   UNL     1       6.350   5.409  19.340  0.00  0.00    +0.000 OA
ATOM     19  C   UNL     1       5.723   4.560  18.725  0.00  0.00    +0.000 C 
BRANCH  19  20
ATOM     20  O   UNL     1       5.643   3.288  19.172  0.00  0.00    +0.000 OA
ATOM     21  H   UNL     1       6.496   2.828  19.258  0.00  0.00    +0.000 HD
ENDBRANCH  19  20
ENDBRANCH   1  19
TORSDOF 5
ENDMDL
MODEL 9
REMARK VINA RESULT:      -7.0      1.440      6.023
REMARK  Name = 
REMARK  5 active torsions:
REMARK  status: ('A' for Active; 'I' for Inactive)
REMARK    1  A    between atoms: C_2  and  O_3
REMARK    2  A    between atoms: C_2  and  C_4
REMARK    3  A    between atoms: C_4  and  C_15
REMARK    4  A    between atoms: C_5  and  C_6
REMARK    5  A    between atoms: C_11  and  N_12
REMARK                            x       y       z     vdW  Elec       q    Type
REMARK                         _______ _______ _______ _____ _____    ______ ____
ROOT
ATOM      1  C   UNL     1       4.058   4.965  17.927  0.00  0.00    +0.000 C 
ATOM      2  C   UNL     1       4.485   5.660  16.849  0.00  0.00    +0.000 C 
ENDROOT
BRANCH   2   3
ATOM      3  C   UNL     1       5.336   5.143  15.761  0.00  0.00    +0.000 A 
ATOM      4  C   UNL     1       4.723   4.469  14.694  0.00  0.00    +0.000 A 
ATOM      5  C   UNL     1       5.478   4.001  13.611  0.00  0.00    +0.000 A 
ATOM      6  C   UNL     1       6.858   4.192  13.572  0.00  0.00    +0.000 A 
ATOM      7  C   UNL     1       7.497   4.831  14.632  0.00  0.00    +0.000 A 
ATOM      8  C   UNL     1       6.733   5.292  15.716  0.00  0.00    +0.000 A 
BRANCH   8   9
ATOM      9  N   UNL     1       7.455   5.886  16.828  0.00  0.00    +0.000 N 
ATOM     10  O   UNL     1       7.696   7.101  16.784  0.00  0.00    +0.000 OA
ATOM     11  O   UNL     1       7.787   5.126  17.749  0.00  0.00    +0.000 OA
ENDBRANCH   8   9
ENDBRANCH   2   3
BRANCH   1  12
ATOM     12  C   UNL     1       3.140   5.659  18.853  0.00  0.00    +0.000 A 
ATOM     13  C   UNL     1       2.539   4.957  19.909  0.00  0.00    +0.000 A 
ATOM     14  C   UNL     1       1.699   5.619  20.809  0.00  0.00    +0.000 A 
ATOM     15  C   UNL     1       1.447   6.982  20.655  0.00  0.00    +0.000 A 
ATOM     16  C   UNL     1       2.033   7.684  19.603  0.00  0.00    +0.000 A 
ATOM     17  C   UNL     1       2.878   7.027  18.705  0.00  0.00    +0.000 A 
ENDBRANCH   1  12
BRANCH   1  19
ATOM     18  O   UNL     1       3.897   2.565  17.758  0.00  0.00    +0.000 OA
ATOM     19  C   UNL     1       4.482   3.550  18.181  0.00  0.00    +0.000 C 
BRANCH  19  20
ATOM     20  O   UNL     1       5.608   3.433  18.917  0.00  0.00    +0.000 OA
ATOM     21  H   UNL     1       5.488   3.558  19.875  0.00  0.00    +0.000 HD
ENDBRANCH  19  20
ENDBRANCH   1  19
TORSDOF 5
ENDMDL
