MODEL 1
REMARK VINA RESULT:      -7.2      0.000      0.000
REMARK  Name = 
REMARK  5 active torsions:
REMARK  status: ('A' for Active; 'I' for Inactive)
REMARK    1  A    between atoms: C_2  and  C_3
REMARK    2  A    between atoms: C_3  and  C_4
REMARK    3  A    between atoms: N_13  and  C_14
REMARK    4  A    between atoms: C_14  and  C_15
REMARK    5  A    between atoms: C_15  and  N_16
REMARK                            x       y       z     vdW  Elec       q    Type
REMARK                         _______ _______ _______ _____ _____    ______ ____
ROOT
ATOM      1  O   UNL     1       6.727   7.503  16.670  0.00  0.00    +0.000 OA
ATOM      2  C   UNL     1       7.416   7.140  17.612  0.00  0.00    +0.000 C 
ATOM      3  N   UNL     1       8.247   7.979  18.319  0.00  0.00    +0.000 N 
ATOM      4  H   UNL     1       8.799   7.607  19.076  0.00  0.00    +0.000 HD
ENDROOT
BRANCH   2   5
ATOM      5  C   UNL     1       7.440   5.708  18.123  0.00  0.00    +0.000 C 
BRANCH   5   6
ATOM      6  C   UNL     1       6.084   5.049  18.120  0.00  0.00    +0.000 A 
ATOM      7  C   UNL     1       5.663   4.306  16.994  0.00  0.00    +0.000 A 
ATOM      8  C   UNL     1       4.380   3.758  16.926  0.00  0.00    +0.000 A 
ATOM      9  C   UNL     1       3.518   3.985  17.982  0.00  0.00    +0.000 A 
ATOM     10  C   UNL     1       3.932   4.695  19.096  0.00  0.00    +0.000 A 
ATOM     11  C   UNL     1       5.204   5.224  19.199  0.00  0.00    +0.000 A 
ATOM     12  O   UNL     1       2.962   4.828  20.055  0.00  0.00    +0.000 OA
ATOM     13  C   UNL     1       1.752   4.433  19.366  0.00  0.00    +0.000 C 
ATOM     14  C   UNL     1       2.118   3.549  18.171  0.00  0.00    +0.000 C 
ENDBRANCH   5   6
ENDBRANCH   2   5
BRANCH   3  15
ATOM     15  C   UNL     1       8.348   9.385  17.989  0.00  0.00    +0.000 C 
BRANCH  15  16
ATOM     16  C   UNL     1       9.201  10.135  19.021  0.00  0.00    +0.000 C 
BRANCH  16  17
ATOM     17  N   UNL     1       9.317  11.581  18.760  0.00  0.00    +0.000 NA
ATOM     18  C   UNL     1      10.538  11.875  17.972  0.00  0.00    +0.000 C 
ATOM     19  C   UNL     1      11.836  11.635  18.764  0.00  0.00    +0.000 C 
ATOM     20  O   UNL     1      11.856  12.389  19.986  0.00  0.00    +0.000 OA
ATOM     21  C   UNL     1      10.704  12.105  20.791  0.00  0.00    +0.000 C 
ATOM     22  C   UNL     1       9.405  12.371  20.012  0.00  0.00    +0.000 C 
ENDBRANCH  16  17
ENDBRANCH  15  16
ENDBRANCH   3  15
TORSDOF 5
ENDMDL
MODEL 2
REMARK VINA RESULT:      -7.2      1.042      1.505
REMARK  Name = 
REMARK  5 active torsions:
REMARK  status: ('A' for Active; 'I' for Inactive)
REMARK    1  A    between atoms: C_2  and  C_3
REMARK    2  A    between atoms: C_3  and  C_4
REMARK    3  A    between atoms: N_13  and  C_14
REMARK    4  A    between atoms: C_14  and  C_15
REMARK    5  A    between atoms: C_15  and  N_16
REMARK                            x       y       z     vdW  Elec       q    Type
REMARK                         _______ _______ _______ _____ _____    ______ ____
ROOT
ATOM      1  O   UNL     1       7.320   7.874  16.963  0.00  0.00    +0.000 OA
ATOM      2  C   UNL     1       7.863   7.579  18.018  0.00  0.00    +0.000 C 
ATOM      3  N   UNL     1       8.597   8.465  18.772  0.00  0.00    +0.000 N 
ATOM      4  H   UNL     1       9.031   8.148  19.626  0.00  0.00    +0.000 HD
ENDROOT
BRANCH   2   5
ATOM      5  C   UNL     1       7.791   6.190  18.632  0.00  0.00    +0.000 C 
BRANCH   5   6
ATOM      6  C   UNL     1       6.555   5.423  18.236  0.00  0.00    +0.000 A 
ATOM      7  C   UNL     1       6.548   4.662  17.045  0.00  0.00    +0.000 A 
ATOM      8  C   UNL     1       5.391   4.014  16.606  0.00  0.00    +0.000 A 
ATOM      9  C   UNL     1       4.240   4.156  17.357  0.00  0.00    +0.000 A 
ATOM     10  C   UNL     1       4.247   4.884  18.535  0.00  0.00    +0.000 A 
ATOM     11  C   UNL     1       5.383   5.512  19.003  0.00  0.00    +0.000 A 
ATOM     12  O   UNL     1       3.029   4.926  19.162  0.00  0.00    +0.000 OA
ATOM     13  C   UNL     1       2.113   4.443  18.150  0.00  0.00    +0.000 C 
ATOM     14  C   UNL     1       2.887   3.607  17.128  0.00  0.00    +0.000 C 
ENDBRANCH   5   6
ENDBRANCH   2   5
BRANCH   3  15
ATOM     15  C   UNL     1       8.767   9.841  18.358  0.00  0.00    +0.000 C 
BRANCH  15  16
ATOM     16  C   UNL     1       9.505  10.655  19.429  0.00  0.00    +0.000 C 
BRANCH  16  17
ATOM     17  N   UNL     1      10.819  11.161  18.992  0.00  0.00    +0.000 NA
ATOM     18  C   UNL     1      11.432  12.005  20.046  0.00  0.00    +0.000 C 
ATOM     19  C   UNL     1      10.684  13.333  20.263  0.00  0.00    +0.000 C 
ATOM     20  O   UNL     1      10.579  14.084  19.044  0.00  0.00    +0.000 OA
ATOM     21  C   UNL     1       9.959  13.310  18.008  0.00  0.00    +0.000 C 
ATOM     22  C   UNL     1      10.720  11.995  17.770  0.00  0.00    +0.000 C 
ENDBRANCH  16  17
ENDBRANCH  15  16
ENDBRANCH   3  15
TORSDOF 5
ENDMDL
MODEL 3
REMARK VINA RESULT:      -7.1      1.610      2.281
REMARK  Name = 
REMARK  5 active torsions:
REMARK  status: ('A' for Active; 'I' for Inactive)
REMARK    1  A    between atoms: C_2  and  C_3
REMARK    2  A    between atoms: C_3  and  C_4
REMARK    3  A    between atoms: N_13  and  C_14
REMARK    4  A    between atoms: C_14  and  C_15
REMARK    5  A    between atoms: C_15  and  N_16
REMARK                            x       y       z     vdW  Elec       q    Type
REMARK                         _______ _______ _______ _____ _____    ______ ____
ROOT
ATOM      1  O   UNL     1       7.481   6.015  18.296  0.00  0.00    +0.000 OA
ATOM      2  C   UNL     1       7.096   6.821  17.462  0.00  0.00    +0.000 C 
ATOM      3  N   UNL     1       7.520   8.129  17.412  0.00  0.00    +0.000 N 
ATOM      4  H   UNL     1       7.148   8.744  16.704  0.00  0.00    +0.000 HD
ENDROOT
BRANCH   2   5
ATOM      5  C   UNL     1       6.098   6.475  16.368  0.00  0.00    +0.000 C 
BRANCH   5   6
ATOM      6  C   UNL     1       4.816   5.879  16.894  0.00  0.00    +0.000 A 
ATOM      7  C   UNL     1       3.893   6.692  17.591  0.00  0.00    +0.000 A 
ATOM      8  C   UNL     1       2.741   6.150  18.166  0.00  0.00    +0.000 A 
ATOM      9  C   UNL     1       2.538   4.788  18.058  0.00  0.00    +0.000 A 
ATOM     10  C   UNL     1       3.430   3.990  17.359  0.00  0.00    +0.000 A 
ATOM     11  C   UNL     1       4.561   4.506  16.760  0.00  0.00    +0.000 A 
ATOM     12  O   UNL     1       3.083   2.664  17.342  0.00  0.00    +0.000 OA
ATOM     13  C   UNL     1       2.060   2.571  18.361  0.00  0.00    +0.000 C 
ATOM     14  C   UNL     1       1.434   3.951  18.576  0.00  0.00    +0.000 C 
ENDBRANCH   5   6
ENDBRANCH   2   5
BRANCH   3  15
ATOM     15  C   UNL     1       8.482   8.641  18.363  0.00  0.00    +0.000 C 
BRANCH  15  16
ATOM     16  C   UNL     1       8.687  10.152  18.184  0.00  0.00    +0.000 C 
BRANCH  16  17
ATOM     17  N   UNL     1       9.969  10.647  18.718  0.00  0.00    +0.000 NA
ATOM     18  C   UNL     1       9.759  11.381  19.989  0.00  0.00    +0.000 C 
ATOM     19  C   UNL     1       9.009  12.712  19.797  0.00  0.00    +0.000 C 
ATOM     20  O   UNL     1       9.677  13.562  18.852  0.00  0.00    +0.000 OA
ATOM     21  C   UNL     1       9.869  12.896  17.597  0.00  0.00    +0.000 C 
ATOM     22  C   UNL     1      10.642  11.580  17.782  0.00  0.00    +0.000 C 
ENDBRANCH  16  17
ENDBRANCH  15  16
ENDBRANCH   3  15
TORSDOF 5
ENDMDL
MODEL 4
REMARK VINA RESULT:      -6.9      1.458      1.748
REMARK  Name = 
REMARK  5 active torsions:
REMARK  status: ('A' for Active; 'I' for Inactive)
REMARK    1  A    between atoms: C_2  and  C_3
REMARK    2  A    between atoms: C_3  and  C_4
REMARK    3  A    between atoms: N_13  and  C_14
REMARK    4  A    between atoms: C_14  and  C_15
REMARK    5  A    between atoms: C_15  and  N_16
REMARK                            x       y       z     vdW  Elec       q    Type
REMARK                         _______ _______ _______ _____ _____    ______ ____
ROOT
ATOM      1  O   UNL     1       8.227   6.738  18.960  0.00  0.00    +0.000 OA
ATOM      2  C   UNL     1       7.772   7.323  17.988  0.00  0.00    +0.000 C 
ATOM      3  N   UNL     1       7.942   8.669  17.758  0.00  0.00    +0.000 N 
ATOM      4  H   UNL     1       7.524   9.089  16.942  0.00  0.00    +0.000 HD
ENDROOT
BRANCH   2   5
ATOM      5  C   UNL     1       6.957   6.632  16.906  0.00  0.00    +0.000 C 
BRANCH   5   6
ATOM      6  C   UNL     1       5.658   6.055  17.411  0.00  0.00    +0.000 A 
ATOM      7  C   UNL     1       4.479   6.833  17.372  0.00  0.00    +0.000 A 
ATOM      8  C   UNL     1       3.281   6.360  17.914  0.00  0.00    +0.000 A 
ATOM      9  C   UNL     1       3.284   5.116  18.514  0.00  0.00    +0.000 A 
ATOM     10  C   UNL     1       4.432   4.342  18.537  0.00  0.00    +0.000 A 
ATOM     11  C   UNL     1       5.621   4.776  17.986  0.00  0.00    +0.000 A 
ATOM     12  O   UNL     1       4.268   3.134  19.165  0.00  0.00    +0.000 OA
ATOM     13  C   UNL     1       3.006   3.284  19.856  0.00  0.00    +0.000 C 
ATOM     14  C   UNL     1       2.184   4.381  19.175  0.00  0.00    +0.000 C 
ENDBRANCH   5   6
ENDBRANCH   2   5
BRANCH   3  15
ATOM     15  C   UNL     1       8.703   9.494  18.671  0.00  0.00    +0.000 C 
BRANCH  15  16
ATOM     16  C   UNL     1       9.156  10.795  17.994  0.00  0.00    +0.000 C 
BRANCH  16  17
ATOM     17  N   UNL     1       9.434  11.892  18.938  0.00  0.00    +0.000 NA
ATOM     18  C   UNL     1       9.714  13.153  18.209  0.00  0.00    +0.000 C 
ATOM     19  C   UNL     1      11.042  13.115  17.433  0.00  0.00    +0.000 C 
ATOM     20  O   UNL     1      12.147  12.800  18.293  0.00  0.00    +0.000 OA
ATOM     21  C   UNL     1      11.927  11.568  18.993  0.00  0.00    +0.000 C 
ATOM     22  C   UNL     1      10.614  11.613  19.792  0.00  0.00    +0.000 C 
ENDBRANCH  16  17
ENDBRANCH  15  16
ENDBRANCH   3  15
TORSDOF 5
ENDMDL
MODEL 5
REMARK VINA RESULT:      -6.8      3.700      5.605
REMARK  Name = 
REMARK  5 active torsions:
REMARK  status: ('A' for Active; 'I' for Inactive)
REMARK    1  A    between atoms: C_2  and  C_3
REMARK    2  A    between atoms: C_3  and  C_4
REMARK    3  A    between atoms: N_13  and  C_14
REMARK    4  A    between atoms: C_14  and  C_15
REMARK    5  A    between atoms: C_15  and  N_16
REMARK                            x       y       z     vdW  Elec       q    Type
REMARK                         _______ _______ _______ _____ _____    ______ ____
ROOT
ATOM      1  O   UNL     1       4.368   2.383  18.038  0.00  0.00    +0.000 OA
ATOM      2  C   UNL     1       3.778   3.232  17.385  0.00  0.00    +0.000 C 
ATOM      3  N   UNL     1       4.353   3.937  16.353  0.00  0.00    +0.000 N 
ATOM      4  H   UNL     1       3.810   4.635  15.867  0.00  0.00    +0.000 HD
ENDROOT
BRANCH   2   5
ATOM      5  C   UNL     1       2.327   3.615  17.633  0.00  0.00    +0.000 C 
BRANCH   5   6
ATOM      6  C   UNL     1       2.168   4.763  18.597  0.00  0.00    +0.000 A 
ATOM      7  C   UNL     1       1.799   4.513  19.938  0.00  0.00    +0.000 A 
ATOM      8  C   UNL     1       1.557   5.560  20.831  0.00  0.00    +0.000 A 
ATOM      9  C   UNL     1       1.664   6.855  20.360  0.00  0.00    +0.000 A 
ATOM     10  C   UNL     1       2.045   7.105  19.052  0.00  0.00    +0.000 A 
ATOM     11  C   UNL     1       2.314   6.088  18.158  0.00  0.00    +0.000 A 
ATOM     12  O   UNL     1       2.108   8.439  18.744  0.00  0.00    +0.000 OA
ATOM     13  C   UNL     1       1.422   9.072  19.851  0.00  0.00    +0.000 C 
ATOM     14  C   UNL     1       1.452   8.138  21.063  0.00  0.00    +0.000 C 
ENDBRANCH   5   6
ENDBRANCH   2   5
BRANCH   3  15
ATOM     15  C   UNL     1       5.725   3.702  15.958  0.00  0.00    +0.000 C 
BRANCH  15  16
ATOM     16  C   UNL     1       6.672   4.712  16.618  0.00  0.00    +0.000 C 
BRANCH  16  17
ATOM     17  N   UNL     1       6.011   5.601  17.591  0.00  0.00    +0.000 NA
ATOM     18  C   UNL     1       6.253   7.024  17.249  0.00  0.00    +0.000 C 
ATOM     19  C   UNL     1       7.720   7.447  17.443  0.00  0.00    +0.000 C 
ATOM     20  O   UNL     1       8.171   7.189  18.781  0.00  0.00    +0.000 OA
ATOM     21  C   UNL     1       7.983   5.813  19.137  0.00  0.00    +0.000 C 
ATOM     22  C   UNL     1       6.513   5.395  18.971  0.00  0.00    +0.000 C 
ENDBRANCH  16  17
ENDBRANCH  15  16
ENDBRANCH   3  15
TORSDOF 5
ENDMDL
MODEL 6
REMARK VINA RESULT:      -6.8      1.027      1.389
REMARK  Name = 
REMARK  5 active torsions:
REMARK  status: ('A' for Active; 'I' for Inactive)
REMARK    1  A    between atoms: C_2  and  C_3
REMARK    2  A    between atoms: C_3  and  C_4
REMARK    3  A    between atoms: N_13  and  C_14
REMARK    4  A    between atoms: C_14  and  C_15
REMARK    5  A    between atoms: C_15  and  N_16
REMARK                            x       y       z     vdW  Elec       q    Type
REMARK                         _______ _______ _______ _____ _____    ______ ____
ROOT
ATOM      1  O   UNL     1       6.927   7.374  16.610  0.00  0.00    +0.000 OA
ATOM      2  C   UNL     1       7.340   7.072  17.720  0.00  0.00    +0.000 C 
ATOM      3  N   UNL     1       8.160   7.878  18.475  0.00  0.00    +0.000 N 
ATOM      4  H   UNL     1       8.476   7.557  19.378  0.00  0.00    +0.000 HD
ENDROOT
BRANCH   2   5
ATOM      5  C   UNL     1       6.996   5.760  18.408  0.00  0.00    +0.000 C 
BRANCH   5   6
ATOM      6  C   UNL     1       5.567   5.329  18.195  0.00  0.00    +0.000 A 
ATOM      7  C   UNL     1       4.521   6.272  18.316  0.00  0.00    +0.000 A 
ATOM      8  C   UNL     1       3.182   5.885  18.212  0.00  0.00    +0.000 A 
ATOM      9  C   UNL     1       2.904   4.547  18.012  0.00  0.00    +0.000 A 
ATOM     10  C   UNL     1       3.927   3.623  17.872  0.00  0.00    +0.000 A 
ATOM     11  C   UNL     1       5.257   3.984  17.946  0.00  0.00    +0.000 A 
ATOM     12  O   UNL     1       3.485   2.340  17.676  0.00  0.00    +0.000 OA
ATOM     13  C   UNL     1       2.081   2.412  18.019  0.00  0.00    +0.000 C 
ATOM     14  C   UNL     1       1.602   3.859  17.883  0.00  0.00    +0.000 C 
ENDBRANCH   5   6
ENDBRANCH   2   5
BRANCH   3  15
ATOM     15  C   UNL     1       8.585   9.175  17.995  0.00  0.00    +0.000 C 
BRANCH  15  16
ATOM     16  C   UNL     1       9.123  10.042  19.141  0.00  0.00    +0.000 C 
BRANCH  16  17
ATOM     17  N   UNL     1       9.243  11.472  18.802  0.00  0.00    +0.000 NA
ATOM     18  C   UNL     1      10.467  11.719  18.003  0.00  0.00    +0.000 C 
ATOM     19  C   UNL     1      11.762  11.520  18.811  0.00  0.00    +0.000 C 
ATOM     20  O   UNL     1      11.780  12.339  19.990  0.00  0.00    +0.000 OA
ATOM     21  C   UNL     1      10.625  12.102  20.806  0.00  0.00    +0.000 C 
ATOM     22  C   UNL     1       9.330  12.329  20.009  0.00  0.00    +0.000 C 
ENDBRANCH  16  17
ENDBRANCH  15  16
ENDBRANCH   3  15
TORSDOF 5
ENDMDL
MODEL 7
REMARK VINA RESULT:      -6.8      6.090      7.401
REMARK  Name = 
REMARK  5 active torsions:
REMARK  status: ('A' for Active; 'I' for Inactive)
REMARK    1  A    between atoms: C_2  and  C_3
REMARK    2  A    between atoms: C_3  and  C_4
REMARK    3  A    between atoms: N_13  and  C_14
REMARK    4  A    between atoms: C_14  and  C_15
REMARK    5  A    between atoms: C_15  and  N_16
REMARK                            x       y       z     vdW  Elec       q    Type
REMARK                         _______ _______ _______ _____ _____    ______ ____
ROOT
ATOM      1  O   UNL     1       2.739  10.142  18.066  0.00  0.00    +0.000 OA
ATOM      2  C   UNL     1       2.172   9.065  17.950  0.00  0.00    +0.000 C 
ATOM      3  N   UNL     1       0.812   8.900  18.079  0.00  0.00    +0.000 N 
ATOM      4  H   UNL     1       0.413   7.978  17.985  0.00  0.00    +0.000 HD
ENDROOT
BRANCH   2   5
ATOM      5  C   UNL     1       2.904   7.767  17.646  0.00  0.00    +0.000 C 
BRANCH   5   6
ATOM      6  C   UNL     1       2.377   6.587  18.424  0.00  0.00    +0.000 A 
ATOM      7  C   UNL     1       2.354   6.626  19.836  0.00  0.00    +0.000 A 
ATOM      8  C   UNL     1       1.956   5.516  20.585  0.00  0.00    +0.000 A 
ATOM      9  C   UNL     1       1.606   4.364  19.908  0.00  0.00    +0.000 A 
ATOM     10  C   UNL     1       1.608   4.327  18.523  0.00  0.00    +0.000 A 
ATOM     11  C   UNL     1       1.972   5.419  17.760  0.00  0.00    +0.000 A 
ATOM     12  O   UNL     1       1.232   3.115  18.005  0.00  0.00    +0.000 OA
ATOM     13  C   UNL     1       1.292   2.229  19.148  0.00  0.00    +0.000 C 
ATOM     14  C   UNL     1       1.169   3.053  20.432  0.00  0.00    +0.000 C 
ENDBRANCH   5   6
ENDBRANCH   2   5
BRANCH   3  15
ATOM     15  C   UNL     1      -0.056  10.025  18.354  0.00  0.00    +0.000 C 
BRANCH  15  16
ATOM     16  C   UNL     1      -0.409  10.100  19.845  0.00  0.00    +0.000 C 
BRANCH  16  17
ATOM     17  N   UNL     1       0.647  10.705  20.678  0.00  0.00    +0.000 NA
ATOM     18  C   UNL     1       1.087   9.762  21.734  0.00  0.00    +0.000 C 
ATOM     19  C   UNL     1       0.007   9.509  22.801  0.00  0.00    +0.000 C 
ATOM     20  O   UNL     1      -0.437  10.734  23.403  0.00  0.00    +0.000 OA
ATOM     21  C   UNL     1      -0.902  11.661  22.413  0.00  0.00    +0.000 C 
ATOM     22  C   UNL     1       0.184  11.937  21.360  0.00  0.00    +0.000 C 
ENDBRANCH  16  17
ENDBRANCH  15  16
ENDBRANCH   3  15
TORSDOF 5
ENDMDL
MODEL 8
REMARK VINA RESULT:      -6.7      1.363      1.857
REMARK  Name = 
REMARK  5 active torsions:
REMARK  status: ('A' for Active; 'I' for Inactive)
REMARK    1  A    between atoms: C_2  and  C_3
REMARK    2  A    between atoms: C_3  and  C_4
REMARK    3  A    between atoms: N_13  and  C_14
REMARK    4  A    between atoms: C_14  and  C_15
REMARK    5  A    between atoms: C_15  and  N_16
REMARK                            x       y       z     vdW  Elec       q    Type
REMARK                         _______ _______ _______ _____ _____    ______ ____
ROOT
ATOM      1  O   UNL     1       7.777   6.327  18.282  0.00  0.00    +0.000 OA
ATOM      2  C   UNL     1       7.314   7.152  17.508  0.00  0.00    +0.000 C 
ATOM      3  N   UNL     1       7.639   8.489  17.532  0.00  0.00    +0.000 N 
ATOM      4  H   UNL     1       7.206   9.117  16.871  0.00  0.00    +0.000 HD
ENDROOT
BRANCH   2   5
ATOM      5  C   UNL     1       6.315   6.801  16.416  0.00  0.00    +0.000 C 
BRANCH   5   6
ATOM      6  C   UNL     1       5.344   5.720  16.818  0.00  0.00    +0.000 A 
ATOM      7  C   UNL     1       5.573   4.383  16.421  0.00  0.00    +0.000 A 
ATOM      8  C   UNL     1       4.647   3.376  16.702  0.00  0.00    +0.000 A 
ATOM      9  C   UNL     1       3.483   3.725  17.359  0.00  0.00    +0.000 A 
ATOM     10  C   UNL     1       3.264   5.031  17.768  0.00  0.00    +0.000 A 
ATOM     11  C   UNL     1       4.175   6.039  17.525  0.00  0.00    +0.000 A 
ATOM     12  O   UNL     1       2.066   5.212  18.409  0.00  0.00    +0.000 OA
ATOM     13  C   UNL     1       1.341   3.994  18.115  0.00  0.00    +0.000 C 
ATOM     14  C   UNL     1       2.336   2.886  17.765  0.00  0.00    +0.000 C 
ENDBRANCH   5   6
ENDBRANCH   2   5
BRANCH   3  15
ATOM     15  C   UNL     1       8.586   9.012  18.493  0.00  0.00    +0.000 C 
BRANCH  15  16
ATOM     16  C   UNL     1       8.945  10.471  18.178  0.00  0.00    +0.000 C 
BRANCH  16  17
ATOM     17  N   UNL     1      10.079  10.989  18.965  0.00  0.00    +0.000 NA
ATOM     18  C   UNL     1       9.606  11.936  20.003  0.00  0.00    +0.000 C 
ATOM     19  C   UNL     1       9.060  13.249  19.414  0.00  0.00    +0.000 C 
ATOM     20  O   UNL     1      10.029  13.895  18.575  0.00  0.00    +0.000 OA
ATOM     21  C   UNL     1      10.486  13.018  17.537  0.00  0.00    +0.000 C 
ATOM     22  C   UNL     1      11.059  11.717  18.124  0.00  0.00    +0.000 C 
ENDBRANCH  16  17
ENDBRANCH  15  16
ENDBRANCH   3  15
TORSDOF 5
ENDMDL
MODEL 9
REMARK VINA RESULT:      -6.7      5.017      7.041
REMARK  Name = 
REMARK  5 active torsions:
REMARK  status: ('A' for Active; 'I' for Inactive)
REMARK    1  A    between atoms: C_2  and  C_3
REMARK    2  A    between atoms: C_3  and  C_4
REMARK    3  A    between atoms: N_13  and  C_14
REMARK    4  A    between atoms: C_14  and  C_15
REMARK    5  A    between atoms: C_15  and  N_16
REMARK                            x       y       z     vdW  Elec       q    Type
REMARK                         _______ _______ _______ _____ _____    ______ ____
ROOT
ATOM      1  O   UNL     1       1.367   3.955  18.921  0.00  0.00    +0.000 OA
ATOM      2  C   UNL     1       2.286   4.433  19.569  0.00  0.00    +0.000 C 
ATOM      3  N   UNL     1       3.602   4.059  19.421  0.00  0.00    +0.000 N 
ATOM      4  H   UNL     1       4.308   4.486  20.003  0.00  0.00    +0.000 HD
ENDROOT
BRANCH   2   5
ATOM      5  C   UNL     1       2.088   5.510  20.625  0.00  0.00    +0.000 C 
BRANCH   5   6
ATOM      6  C   UNL     1       1.822   6.876  20.045  0.00  0.00    +0.000 A 
ATOM      7  C   UNL     1       2.250   7.181  18.733  0.00  0.00    +0.000 A 
ATOM      8  C   UNL     1       2.097   8.463  18.201  0.00  0.00    +0.000 A 
ATOM      9  C   UNL     1       1.536   9.439  19.003  0.00  0.00    +0.000 A 
ATOM     10  C   UNL     1       1.097   9.140  20.282  0.00  0.00    +0.000 A 
ATOM     11  C   UNL     1       1.214   7.874  20.821  0.00  0.00    +0.000 A 
ATOM     12  O   UNL     1       0.562  10.214  20.945  0.00  0.00    +0.000 OA
ATOM     13  C   UNL     1       0.971  11.343  20.137  0.00  0.00    +0.000 C 
ATOM     14  C   UNL     1       1.272  10.864  18.715  0.00  0.00    +0.000 C 
ENDBRANCH   5   6
ENDBRANCH   2   5
BRANCH   3  15
ATOM     15  C   UNL     1       3.991   3.056  18.453  0.00  0.00    +0.000 C 
BRANCH  15  16
ATOM     16  C   UNL     1       4.615   3.702  17.208  0.00  0.00    +0.000 C 
BRANCH  16  17
ATOM     17  N   UNL     1       5.097   5.077  17.429  0.00  0.00    +0.000 NA
ATOM     18  C   UNL     1       5.026   5.865  16.174  0.00  0.00    +0.000 C 
ATOM     19  C   UNL     1       6.030   5.390  15.109  0.00  0.00    +0.000 C 
ATOM     20  O   UNL     1       7.375   5.400  15.610  0.00  0.00    +0.000 OA
ATOM     21  C   UNL     1       7.490   4.620  16.807  0.00  0.00    +0.000 C 
ATOM     22  C   UNL     1       6.508   5.111  17.883  0.00  0.00    +0.000 C 
ENDBRANCH  16  17
ENDBRANCH  15  16
ENDBRANCH   3  15
TORSDOF 5
ENDMDL
