MODEL 1
REMARK VINA RESULT:      -7.2      0.000      0.000
REMARK  Name = 
REMARK  7 active torsions:
REMARK  status: ('A' for Active; 'I' for Inactive)
REMARK    1  A    between atoms: C_1  and  O_2
REMARK    2  A    between atoms: O_2  and  C_3
REMARK    3  A    between atoms: C_3  and  C_4
REMARK    4  A    between atoms: C_4  and  N_5
REMARK    5  A    between atoms: C_11  and  C_12
REMARK    6  A    between atoms: N_14  and  C_15
REMARK    7  A    between atoms: C_15  and  C_16
REMARK                            x       y       z     vdW  Elec       q    Type
REMARK                         _______ _______ _______ _____ _____    ______ ____
ROOT
ATOM      1  N   UNL     1       4.516   3.896  17.138  0.00  0.00    +0.000 N 
ATOM      2  C   UNL     1       3.928   2.763  17.813  0.00  0.00    +0.000 C 
ATOM      3  C   UNL     1       2.907   3.419  18.689  0.00  0.00    +0.000 A 
ATOM      4  C   UNL     1       2.070   2.813  19.613  0.00  0.00    +0.000 A 
ATOM      5  C   UNL     1       1.237   3.632  20.369  0.00  0.00    +0.000 A 
ATOM      6  C   UNL     1       1.275   5.032  20.216  0.00  0.00    +0.000 A 
ATOM      7  C   UNL     1       2.127   5.662  19.281  0.00  0.00    +0.000 A 
ATOM      8  C   UNL     1       2.905   4.815  18.502  0.00  0.00    +0.000 A 
ATOM      9  C   UNL     1       3.879   5.082  17.429  0.00  0.00    +0.000 C 
ATOM     10  O   UNL     1       4.081   6.159  16.906  0.00  0.00    +0.000 OA
ENDROOT
BRANCH   7  11
ATOM     11  C   UNL     1       2.175   7.163  19.319  0.00  0.00    +0.000 C 
ATOM     12  O   UNL     1       2.317   7.730  20.400  0.00  0.00    +0.000 OA
ATOM     13  N   UNL     1       2.110   7.866  18.144  0.00  0.00    +0.000 N 
ATOM     14  H   UNL     1       1.798   7.408  17.290  0.00  0.00    +0.000 HD
BRANCH  13  15
ATOM     15  C   UNL     1       2.168   9.311  18.075  0.00  0.00    +0.000 C 
BRANCH  15  16
ATOM     16  C   UNL     1       0.863   9.961  18.496  0.00  0.00    +0.000 A 
ATOM     17  C   UNL     1      -0.314   9.697  17.793  0.00  0.00    +0.000 A 
ATOM     18  C   UNL     1      -1.498  10.307  18.200  0.00  0.00    +0.000 A 
ATOM     19  C   UNL     1      -1.484  11.157  19.298  0.00  0.00    +0.000 A 
ATOM     20  C   UNL     1      -0.279  11.365  19.943  0.00  0.00    +0.000 A 
ATOM     21  N   UNL     1       0.889  10.796  19.567  0.00  0.00    +0.000 NA
ENDBRANCH  15  16
ENDBRANCH  13  15
ENDBRANCH   7  11
BRANCH   1  22
ATOM     22  C   UNL     1       5.637   3.800  16.217  0.00  0.00    +0.000 C 
BRANCH  22  23
ATOM     23  C   UNL     1       6.926   4.437  16.731  0.00  0.00    +0.000 C 
BRANCH  23  25
ATOM     24  C   UNL     1       6.980   4.858  14.416  0.00  0.00    +0.000 C 
ATOM     25  O   UNL     1       7.584   5.128  15.670  0.00  0.00    +0.000 OA
ENDBRANCH  23  25
ENDBRANCH  22  23
ENDBRANCH   1  22
TORSDOF 6
ENDMDL
MODEL 2
REMARK VINA RESULT:      -7.0      1.656      2.126
REMARK  Name = 
REMARK  7 active torsions:
REMARK  status: ('A' for Active; 'I' for Inactive)
REMARK    1  A    between atoms: C_1  and  O_2
REMARK    2  A    between atoms: O_2  and  C_3
REMARK    3  A    between atoms: C_3  and  C_4
REMARK    4  A    between atoms: C_4  and  N_5
REMARK    5  A    between atoms: C_11  and  C_12
REMARK    6  A    between atoms: N_14  and  C_15
REMARK    7  A    between atoms: C_15  and  C_16
REMARK                            x       y       z     vdW  Elec       q    Type
REMARK                         _______ _______ _______ _____ _____    ______ ____
ROOT
ATOM      1  N   UNL     1       4.551   5.096  16.748  0.00  0.00    +0.000 N 
ATOM      2  C   UNL     1       4.195   3.741  16.400  0.00  0.00    +0.000 C 
ATOM      3  C   UNL     1       3.161   3.417  17.432  0.00  0.00    +0.000 A 
ATOM      4  C   UNL     1       2.501   2.213  17.620  0.00  0.00    +0.000 A 
ATOM      5  C   UNL     1       1.619   2.115  18.692  0.00  0.00    +0.000 A 
ATOM      6  C   UNL     1       1.437   3.200  19.572  0.00  0.00    +0.000 A 
ATOM      7  C   UNL     1       2.108   4.431  19.396  0.00  0.00    +0.000 A 
ATOM      8  C   UNL     1       2.938   4.516  18.284  0.00  0.00    +0.000 A 
ATOM      9  C   UNL     1       3.771   5.612  17.760  0.00  0.00    +0.000 C 
ATOM     10  O   UNL     1       3.769   6.759  18.159  0.00  0.00    +0.000 OA
ENDROOT
BRANCH   7  11
ATOM     11  C   UNL     1       1.935   5.453  20.482  0.00  0.00    +0.000 C 
ATOM     12  O   UNL     1       2.213   5.149  21.640  0.00  0.00    +0.000 OA
ATOM     13  N   UNL     1       1.521   6.718  20.154  0.00  0.00    +0.000 N 
ATOM     14  H   UNL     1       1.109   6.901  19.240  0.00  0.00    +0.000 HD
BRANCH  13  15
ATOM     15  C   UNL     1       1.344   7.777  21.126  0.00  0.00    +0.000 C 
BRANCH  15  16
ATOM     16  C   UNL     1       1.159   9.134  20.471  0.00  0.00    +0.000 A 
ATOM     17  C   UNL     1       1.327   9.280  19.093  0.00  0.00    +0.000 A 
ATOM     18  C   UNL     1       1.152  10.536  18.517  0.00  0.00    +0.000 A 
ATOM     19  C   UNL     1       0.807  11.612  19.324  0.00  0.00    +0.000 A 
ATOM     20  C   UNL     1       0.655  11.386  20.680  0.00  0.00    +0.000 A 
ATOM     21  N   UNL     1       0.828  10.181  21.270  0.00  0.00    +0.000 NA
ENDBRANCH  15  16
ENDBRANCH  13  15
ENDBRANCH   7  11
BRANCH   1  22
ATOM     22  C   UNL     1       5.596   5.857  16.083  0.00  0.00    +0.000 C 
BRANCH  22  23
ATOM     23  C   UNL     1       6.999   5.607  16.631  0.00  0.00    +0.000 C 
BRANCH  23  25
ATOM     24  C   UNL     1       7.394   7.747  17.529  0.00  0.00    +0.000 C 
ATOM     25  O   UNL     1       7.776   6.800  16.544  0.00  0.00    +0.000 OA
ENDBRANCH  23  25
ENDBRANCH  22  23
ENDBRANCH   1  22
TORSDOF 6
ENDMDL
MODEL 3
REMARK VINA RESULT:      -7.0      1.264      1.441
REMARK  Name = 
REMARK  7 active torsions:
REMARK  status: ('A' for Active; 'I' for Inactive)
REMARK    1  A    between atoms: C_1  and  O_2
REMARK    2  A    between atoms: O_2  and  C_3
REMARK    3  A    between atoms: C_3  and  C_4
REMARK    4  A    between atoms: C_4  and  N_5
REMARK    5  A    between atoms: C_11  and  C_12
REMARK    6  A    between atoms: N_14  and  C_15
REMARK    7  A    between atoms: C_15  and  C_16
REMARK                            x       y       z     vdW  Elec       q    Type
REMARK                         _______ _______ _______ _____ _____    ______ ____
ROOT
ATOM      1  N   UNL     1       4.725   5.702  17.499  0.00  0.00    +0.000 N 
ATOM      2  C   UNL     1       4.510   4.391  18.064  0.00  0.00    +0.000 C 
ATOM      3  C   UNL     1       3.407   4.652  19.042  0.00  0.00    +0.000 A 
ATOM      4  C   UNL     1       2.826   3.753  19.922  0.00  0.00    +0.000 A 
ATOM      5  C   UNL     1       1.853   4.233  20.794  0.00  0.00    +0.000 A 
ATOM      6  C   UNL     1       1.502   5.598  20.795  0.00  0.00    +0.000 A 
ATOM      7  C   UNL     1       2.090   6.526  19.907  0.00  0.00    +0.000 A 
ATOM      8  C   UNL     1       3.017   6.005  19.012  0.00  0.00    +0.000 A 
ATOM      9  C   UNL     1       3.812   6.633  17.942  0.00  0.00    +0.000 C 
ATOM     10  O   UNL     1       3.681   7.770  17.535  0.00  0.00    +0.000 OA
ENDROOT
BRANCH   7  11
ATOM     11  C   UNL     1       1.733   7.970  20.109  0.00  0.00    +0.000 C 
ATOM     12  O   UNL     1       1.696   8.424  21.251  0.00  0.00    +0.000 OA
ATOM     13  N   UNL     1       1.506   8.764  19.016  0.00  0.00    +0.000 N 
ATOM     14  H   UNL     1       1.345   8.344  18.102  0.00  0.00    +0.000 HD
BRANCH  13  15
ATOM     15  C   UNL     1       1.176  10.172  19.106  0.00  0.00    +0.000 C 
BRANCH  15  16
ATOM     16  C   UNL     1      -0.256  10.455  18.691  0.00  0.00    +0.000 A 
ATOM     17  C   UNL     1      -0.846   9.728  17.656  0.00  0.00    +0.000 A 
ATOM     18  C   UNL     1      -2.162  10.009  17.294  0.00  0.00    +0.000 A 
ATOM     19  C   UNL     1      -2.858  11.000  17.975  0.00  0.00    +0.000 A 
ATOM     20  C   UNL     1      -2.204  11.673  18.990  0.00  0.00    +0.000 A 
ATOM     21  N   UNL     1      -0.926  11.430  19.358  0.00  0.00    +0.000 NA
ENDBRANCH  15  16
ENDBRANCH  13  15
ENDBRANCH   7  11
BRANCH   1  22
ATOM     22  C   UNL     1       5.769   6.008  16.534  0.00  0.00    +0.000 C 
BRANCH  22  23
ATOM     23  C   UNL     1       6.979   5.078  16.604  0.00  0.00    +0.000 C 
BRANCH  23  25
ATOM     24  C   UNL     1       6.455   4.125  14.517  0.00  0.00    +0.000 C 
ATOM     25  O   UNL     1       7.445   4.786  15.288  0.00  0.00    +0.000 OA
ENDBRANCH  23  25
ENDBRANCH  22  23
ENDBRANCH   1  22
TORSDOF 6
ENDMDL
MODEL 4
REMARK VINA RESULT:      -6.9      1.431      1.790
REMARK  Name = 
REMARK  7 active torsions:
REMARK  status: ('A' for Active; 'I' for Inactive)
REMARK    1  A    between atoms: C_1  and  O_2
REMARK    2  A    between atoms: O_2  and  C_3
REMARK    3  A    between atoms: C_3  and  C_4
REMARK    4  A    between atoms: C_4  and  N_5
REMARK    5  A    between atoms: C_11  and  C_12
REMARK    6  A    between atoms: N_14  and  C_15
REMARK    7  A    between atoms: C_15  and  C_16
REMARK                            x       y       z     vdW  Elec       q    Type
REMARK                         _______ _______ _______ _____ _____    ______ ____
ROOT
ATOM      1  N   UNL     1       5.010   5.015  17.878  0.00  0.00    +0.000 N 
ATOM      2  C   UNL     1       4.601   3.785  18.513  0.00  0.00    +0.000 C 
ATOM      3  C   UNL     1       3.401   4.221  19.292  0.00  0.00    +0.000 A 
ATOM      4  C   UNL     1       2.623   3.457  20.148  0.00  0.00    +0.000 A 
ATOM      5  C   UNL     1       1.585   4.091  20.824  0.00  0.00    +0.000 A 
ATOM      6  C   UNL     1       1.361   5.473  20.661  0.00  0.00    +0.000 A 
ATOM      7  C   UNL     1       2.150   6.264  19.795  0.00  0.00    +0.000 A 
ATOM      8  C   UNL     1       3.142   5.591  19.092  0.00  0.00    +0.000 A 
ATOM      9  C   UNL     1       4.132   6.052  18.104  0.00  0.00    +0.000 C 
ATOM     10  O   UNL     1       4.162   7.151  17.589  0.00  0.00    +0.000 OA
ENDROOT
BRANCH   7  11
ATOM     11  C   UNL     1       1.899   7.744  19.822  0.00  0.00    +0.000 C 
ATOM     12  O   UNL     1       1.853   8.324  20.905  0.00  0.00    +0.000 OA
ATOM     13  N   UNL     1       1.777   8.426  18.639  0.00  0.00    +0.000 N 
ATOM     14  H   UNL     1       1.619   7.919  17.770  0.00  0.00    +0.000 HD
BRANCH  13  15
ATOM     15  C   UNL     1       1.555   9.855  18.561  0.00  0.00    +0.000 C 
BRANCH  15  16
ATOM     16  C   UNL     1       0.083  10.203  18.439  0.00  0.00    +0.000 A 
ATOM     17  C   UNL     1      -0.506  11.099  19.334  0.00  0.00    +0.000 A 
ATOM     18  C   UNL     1      -1.860  11.399  19.200  0.00  0.00    +0.000 A 
ATOM     19  C   UNL     1      -2.591  10.809  18.177  0.00  0.00    +0.000 A 
ATOM     20  C   UNL     1      -1.934   9.935  17.330  0.00  0.00    +0.000 A 
ATOM     21  N   UNL     1      -0.625   9.615  17.440  0.00  0.00    +0.000 NA
ENDBRANCH  15  16
ENDBRANCH  13  15
ENDBRANCH   7  11
BRANCH   1  22
ATOM     22  C   UNL     1       6.203   5.147  17.056  0.00  0.00    +0.000 C 
BRANCH  22  23
ATOM     23  C   UNL     1       7.513   4.973  17.821  0.00  0.00    +0.000 C 
BRANCH  23  25
ATOM     24  C   UNL     1       7.746   7.315  17.788  0.00  0.00    +0.000 C 
ATOM     25  O   UNL     1       7.789   6.144  18.587  0.00  0.00    +0.000 OA
ENDBRANCH  23  25
ENDBRANCH  22  23
ENDBRANCH   1  22
TORSDOF 6
ENDMDL
MODEL 5
REMARK VINA RESULT:      -6.9      1.523      1.863
REMARK  Name = 
REMARK  7 active torsions:
REMARK  status: ('A' for Active; 'I' for Inactive)
REMARK    1  A    between atoms: C_1  and  O_2
REMARK    2  A    between atoms: O_2  and  C_3
REMARK    3  A    between atoms: C_3  and  C_4
REMARK    4  A    between atoms: C_4  and  N_5
REMARK    5  A    between atoms: C_11  and  C_12
REMARK    6  A    between atoms: N_14  and  C_15
REMARK    7  A    between atoms: C_15  and  C_16
REMARK                            x       y       z     vdW  Elec       q    Type
REMARK                         _______ _______ _______ _____ _____    ______ ____
ROOT
ATOM      1  N   UNL     1       4.504   5.804  17.306  0.00  0.00    +0.000 N 
ATOM      2  C   UNL     1       4.345   4.469  17.831  0.00  0.00    +0.000 C 
ATOM      3  C   UNL     1       3.318   4.676  18.900  0.00  0.00    +0.000 A 
ATOM      4  C   UNL     1       2.814   3.735  19.783  0.00  0.00    +0.000 A 
ATOM      5  C   UNL     1       1.905   4.167  20.745  0.00  0.00    +0.000 A 
ATOM      6  C   UNL     1       1.542   5.525  20.829  0.00  0.00    +0.000 A 
ATOM      7  C   UNL     1       2.052   6.496  19.939  0.00  0.00    +0.000 A 
ATOM      8  C   UNL     1       2.913   6.024  18.955  0.00  0.00    +0.000 A 
ATOM      9  C   UNL     1       3.618   6.705  17.855  0.00  0.00    +0.000 C 
ATOM     10  O   UNL     1       3.446   7.855  17.506  0.00  0.00    +0.000 OA
ENDROOT
BRANCH   7  11
ATOM     11  C   UNL     1       1.697   7.926  20.226  0.00  0.00    +0.000 C 
ATOM     12  O   UNL     1       1.726   8.328  21.388  0.00  0.00    +0.000 OA
ATOM     13  N   UNL     1       1.400   8.766  19.185  0.00  0.00    +0.000 N 
ATOM     14  H   UNL     1       1.188   8.386  18.265  0.00  0.00    +0.000 HD
BRANCH  13  15
ATOM     15  C   UNL     1       1.066  10.165  19.359  0.00  0.00    +0.000 C 
BRANCH  15  16
ATOM     16  C   UNL     1      -0.318  10.496  18.832  0.00  0.00    +0.000 A 
ATOM     17  C   UNL     1      -0.825   9.830  17.715  0.00  0.00    +0.000 A 
ATOM     18  C   UNL     1      -2.097  10.154  17.251  0.00  0.00    +0.000 A 
ATOM     19  C   UNL     1      -2.837  11.125  17.914  0.00  0.00    +0.000 A 
ATOM     20  C   UNL     1      -2.266  11.738  19.014  0.00  0.00    +0.000 A 
ATOM     21  N   UNL     1      -1.030  11.453  19.483  0.00  0.00    +0.000 NA
ENDBRANCH  15  16
ENDBRANCH  13  15
ENDBRANCH   7  11
BRANCH   1  22
ATOM     22  C   UNL     1       5.468   6.162  16.278  0.00  0.00    +0.000 C 
BRANCH  22  23
ATOM     23  C   UNL     1       6.925   5.944  16.683  0.00  0.00    +0.000 C 
BRANCH  23  25
ATOM     24  C   UNL     1       7.788   5.960  18.873  0.00  0.00    +0.000 C 
ATOM     25  O   UNL     1       7.237   6.741  17.825  0.00  0.00    +0.000 OA
ENDBRANCH  23  25
ENDBRANCH  22  23
ENDBRANCH   1  22
TORSDOF 6
ENDMDL
MODEL 6
REMARK VINA RESULT:      -6.9      1.436      1.801
REMARK  Name = 
REMARK  7 active torsions:
REMARK  status: ('A' for Active; 'I' for Inactive)
REMARK    1  A    between atoms: C_1  and  O_2
REMARK    2  A    between atoms: O_2  and  C_3
REMARK    3  A    between atoms: C_3  and  C_4
REMARK    4  A    between atoms: C_4  and  N_5
REMARK    5  A    between atoms: C_11  and  C_12
REMARK    6  A    between atoms: N_14  and  C_15
REMARK    7  A    between atoms: C_15  and  C_16
REMARK                            x       y       z     vdW  Elec       q    Type
REMARK                         _______ _______ _______ _____ _____    ______ ____
ROOT
ATOM      1  N   UNL     1       4.549   5.197  16.698  0.00  0.00    +0.000 N 
ATOM      2  C   UNL     1       4.190   3.844  16.349  0.00  0.00    +0.000 C 
ATOM      3  C   UNL     1       3.155   3.521  17.381  0.00  0.00    +0.000 A 
ATOM      4  C   UNL     1       2.492   2.318  17.567  0.00  0.00    +0.000 A 
ATOM      5  C   UNL     1       1.609   2.221  18.639  0.00  0.00    +0.000 A 
ATOM      6  C   UNL     1       1.429   3.307  19.519  0.00  0.00    +0.000 A 
ATOM      7  C   UNL     1       2.102   4.536  19.344  0.00  0.00    +0.000 A 
ATOM      8  C   UNL     1       2.933   4.620  18.232  0.00  0.00    +0.000 A 
ATOM      9  C   UNL     1       3.769   5.714  17.709  0.00  0.00    +0.000 C 
ATOM     10  O   UNL     1       3.768   6.861  18.108  0.00  0.00    +0.000 OA
ENDROOT
BRANCH   7  11
ATOM     11  C   UNL     1       1.931   5.559  20.429  0.00  0.00    +0.000 C 
ATOM     12  O   UNL     1       2.088   5.220  21.601  0.00  0.00    +0.000 OA
ATOM     13  N   UNL     1       1.654   6.857  20.091  0.00  0.00    +0.000 N 
ATOM     14  H   UNL     1       1.334   7.085  19.151  0.00  0.00    +0.000 HD
BRANCH  13  15
ATOM     15  C   UNL     1       1.491   7.918  21.064  0.00  0.00    +0.000 C 
BRANCH  15  16
ATOM     16  C   UNL     1       0.813   9.141  20.474  0.00  0.00    +0.000 A 
ATOM     17  C   UNL     1       1.075   9.525  19.157  0.00  0.00    +0.000 A 
ATOM     18  C   UNL     1       0.441  10.652  18.641  0.00  0.00    +0.000 A 
ATOM     19  C   UNL     1      -0.443  11.364  19.442  0.00  0.00    +0.000 A 
ATOM     20  C   UNL     1      -0.651  10.918  20.735  0.00  0.00    +0.000 A 
ATOM     21  N   UNL     1      -0.043   9.834  21.268  0.00  0.00    +0.000 NA
ENDBRANCH  15  16
ENDBRANCH  13  15
ENDBRANCH   7  11
BRANCH   1  22
ATOM     22  C   UNL     1       5.596   5.957  16.033  0.00  0.00    +0.000 C 
BRANCH  22  23
ATOM     23  C   UNL     1       7.009   5.623  16.507  0.00  0.00    +0.000 C 
BRANCH  23  25
ATOM     24  C   UNL     1       7.102   4.899  14.269  0.00  0.00    +0.000 C 
ATOM     25  O   UNL     1       7.641   4.750  15.573  0.00  0.00    +0.000 OA
ENDBRANCH  23  25
ENDBRANCH  22  23
ENDBRANCH   1  22
TORSDOF 6
ENDMDL
MODEL 7
REMARK VINA RESULT:      -6.9      1.594      2.200
REMARK  Name = 
REMARK  7 active torsions:
REMARK  status: ('A' for Active; 'I' for Inactive)
REMARK    1  A    between atoms: C_1  and  O_2
REMARK    2  A    between atoms: O_2  and  C_3
REMARK    3  A    between atoms: C_3  and  C_4
REMARK    4  A    between atoms: C_4  and  N_5
REMARK    5  A    between atoms: C_11  and  C_12
REMARK    6  A    between atoms: N_14  and  C_15
REMARK    7  A    between atoms: C_15  and  C_16
REMARK                            x       y       z     vdW  Elec       q    Type
REMARK                         _______ _______ _______ _____ _____    ______ ____
ROOT
ATOM      1  N   UNL     1       4.713   5.151  16.718  0.00  0.00    +0.000 N 
ATOM      2  C   UNL     1       4.330   3.812  16.340  0.00  0.00    +0.000 C 
ATOM      3  C   UNL     1       3.255   3.504  17.334  0.00  0.00    +0.000 A 
ATOM      4  C   UNL     1       2.555   2.317  17.484  0.00  0.00    +0.000 A 
ATOM      5  C   UNL     1       1.636   2.231  18.526  0.00  0.00    +0.000 A 
ATOM      6  C   UNL     1       1.456   3.309  19.414  0.00  0.00    +0.000 A 
ATOM      7  C   UNL     1       2.167   4.523  19.276  0.00  0.00    +0.000 A 
ATOM      8  C   UNL     1       3.035   4.598  18.193  0.00  0.00    +0.000 A 
ATOM      9  C   UNL     1       3.916   5.676  17.712  0.00  0.00    +0.000 C 
ATOM     10  O   UNL     1       3.932   6.818  18.125  0.00  0.00    +0.000 OA
ENDROOT
BRANCH   7  11
ATOM     11  C   UNL     1       1.988   5.536  20.370  0.00  0.00    +0.000 C 
ATOM     12  O   UNL     1       2.154   5.191  21.538  0.00  0.00    +0.000 OA
ATOM     13  N   UNL     1       1.693   6.833  20.041  0.00  0.00    +0.000 N 
ATOM     14  H   UNL     1       1.367   7.063  19.105  0.00  0.00    +0.000 HD
BRANCH  13  15
ATOM     15  C   UNL     1       1.522   7.886  21.022  0.00  0.00    +0.000 C 
BRANCH  15  16
ATOM     16  C   UNL     1       0.854   9.116  20.436  0.00  0.00    +0.000 A 
ATOM     17  C   UNL     1      -0.071   9.842  21.188  0.00  0.00    +0.000 A 
ATOM     18  C   UNL     1      -0.670  10.966  20.625  0.00  0.00    +0.000 A 
ATOM     19  C   UNL     1      -0.330  11.344  19.333  0.00  0.00    +0.000 A 
ATOM     20  C   UNL     1       0.596  10.574  18.653  0.00  0.00    +0.000 A 
ATOM     21  N   UNL     1       1.188   9.472  19.169  0.00  0.00    +0.000 NA
ENDBRANCH  15  16
ENDBRANCH  13  15
ENDBRANCH   7  11
BRANCH   1  22
ATOM     22  C   UNL     1       5.801   5.891  16.097  0.00  0.00    +0.000 C 
BRANCH  22  23
ATOM     23  C   UNL     1       7.181   5.571  16.668  0.00  0.00    +0.000 C 
BRANCH  23  25
ATOM     24  C   UNL     1       7.620   5.876  18.960  0.00  0.00    +0.000 C 
ATOM     25  O   UNL     1       7.511   6.506  17.694  0.00  0.00    +0.000 OA
ENDBRANCH  23  25
ENDBRANCH  22  23
ENDBRANCH   1  22
TORSDOF 6
ENDMDL
MODEL 8
REMARK VINA RESULT:      -6.8      0.879      1.398
REMARK  Name = 
REMARK  7 active torsions:
REMARK  status: ('A' for Active; 'I' for Inactive)
REMARK    1  A    between atoms: C_1  and  O_2
REMARK    2  A    between atoms: O_2  and  C_3
REMARK    3  A    between atoms: C_3  and  C_4
REMARK    4  A    between atoms: C_4  and  N_5
REMARK    5  A    between atoms: C_11  and  C_12
REMARK    6  A    between atoms: N_14  and  C_15
REMARK    7  A    between atoms: C_15  and  C_16
REMARK                            x       y       z     vdW  Elec       q    Type
REMARK                         _______ _______ _______ _____ _____    ______ ____
ROOT
ATOM      1  N   UNL     1       4.721   4.150  16.992  0.00  0.00    +0.000 N 
ATOM      2  C   UNL     1       4.218   2.969  17.651  0.00  0.00    +0.000 C 
ATOM      3  C   UNL     1       3.169   3.539  18.553  0.00  0.00    +0.000 A 
ATOM      4  C   UNL     1       2.386   2.863  19.475  0.00  0.00    +0.000 A 
ATOM      5  C   UNL     1       1.513   3.610  20.260  0.00  0.00    +0.000 A 
ATOM      6  C   UNL     1       1.459   5.013  20.135  0.00  0.00    +0.000 A 
ATOM      7  C   UNL     1       2.255   5.716  19.203  0.00  0.00    +0.000 A 
ATOM      8  C   UNL     1       3.075   4.936  18.396  0.00  0.00    +0.000 A 
ATOM      9  C   UNL     1       4.014   5.287  17.316  0.00  0.00    +0.000 C 
ATOM     10  O   UNL     1       4.138   6.385  16.813  0.00  0.00    +0.000 OA
ENDROOT
BRANCH   7  11
ATOM     11  C   UNL     1       2.206   7.215  19.271  0.00  0.00    +0.000 C 
ATOM     12  O   UNL     1       2.228   7.765  20.371  0.00  0.00    +0.000 OA
ATOM     13  N   UNL     1       2.190   7.939  18.108  0.00  0.00    +0.000 N 
ATOM     14  H   UNL     1       1.975   7.483  17.224  0.00  0.00    +0.000 HD
BRANCH  13  15
ATOM     15  C   UNL     1       2.164   9.387  18.070  0.00  0.00    +0.000 C 
BRANCH  15  16
ATOM     16  C   UNL     1       0.802   9.948  18.434  0.00  0.00    +0.000 A 
ATOM     17  C   UNL     1       0.637  10.700  19.598  0.00  0.00    +0.000 A 
ATOM     18  C   UNL     1      -0.624  11.202  19.909  0.00  0.00    +0.000 A 
ATOM     19  C   UNL     1      -1.688  10.950  19.052  0.00  0.00    +0.000 A 
ATOM     20  C   UNL     1      -1.443  10.199  17.916  0.00  0.00    +0.000 A 
ATOM     21  N   UNL     1      -0.233   9.690  17.592  0.00  0.00    +0.000 NA
ENDBRANCH  15  16
ENDBRANCH  13  15
ENDBRANCH   7  11
BRANCH   1  22
ATOM     22  C   UNL     1       5.832   4.146  16.054  0.00  0.00    +0.000 C 
BRANCH  22  23
ATOM     23  C   UNL     1       6.967   5.098  16.424  0.00  0.00    +0.000 C 
BRANCH  23  25
ATOM     24  C   UNL     1       7.693   5.348  18.649  0.00  0.00    +0.000 C 
ATOM     25  O   UNL     1       7.744   4.542  17.483  0.00  0.00    +0.000 OA
ENDBRANCH  23  25
ENDBRANCH  22  23
ENDBRANCH   1  22
TORSDOF 6
ENDMDL
MODEL 9
REMARK VINA RESULT:      -6.8      4.401      7.964
REMARK  Name = 
REMARK  7 active torsions:
REMARK  status: ('A' for Active; 'I' for Inactive)
REMARK    1  A    between atoms: C_1  and  O_2
REMARK    2  A    between atoms: O_2  and  C_3
REMARK    3  A    between atoms: C_3  and  C_4
REMARK    4  A    between atoms: C_4  and  N_5
REMARK    5  A    between atoms: C_11  and  C_12
REMARK    6  A    between atoms: N_14  and  C_15
REMARK    7  A    between atoms: C_15  and  C_16
REMARK                            x       y       z     vdW  Elec       q    Type
REMARK                         _______ _______ _______ _____ _____    ______ ____
ROOT
ATOM      1  N   UNL     1       4.052   3.145  18.248  0.00  0.00    +0.000 N 
ATOM      2  C   UNL     1       4.801   3.561  19.410  0.00  0.00    +0.000 C 
ATOM      3  C   UNL     1       5.735   4.576  18.830  0.00  0.00    +0.000 A 
ATOM      4  C   UNL     1       6.737   5.276  19.484  0.00  0.00    +0.000 A 
ATOM      5  C   UNL     1       7.534   6.129  18.727  0.00  0.00    +0.000 A 
ATOM      6  C   UNL     1       7.342   6.245  17.336  0.00  0.00    +0.000 A 
ATOM      7  C   UNL     1       6.327   5.534  16.656  0.00  0.00    +0.000 A 
ATOM      8  C   UNL     1       5.512   4.734  17.448  0.00  0.00    +0.000 A 
ATOM      9  C   UNL     1       4.361   3.875  17.122  0.00  0.00    +0.000 C 
ATOM     10  O   UNL     1       3.795   3.823  16.049  0.00  0.00    +0.000 OA
ENDROOT
BRANCH   7  11
ATOM     11  C   UNL     1       6.321   5.637  15.158  0.00  0.00    +0.000 C 
ATOM     12  O   UNL     1       5.465   6.328  14.610  0.00  0.00    +0.000 OA
ATOM     13  N   UNL     1       7.299   5.002  14.438  0.00  0.00    +0.000 N 
ATOM     14  H   UNL     1       7.873   4.284  14.876  0.00  0.00    +0.000 HD
BRANCH  13  15
ATOM     15  C   UNL     1       7.389   5.059  12.993  0.00  0.00    +0.000 C 
BRANCH  15  16
ATOM     16  C   UNL     1       6.803   3.826  12.331  0.00  0.00    +0.000 A 
ATOM     17  C   UNL     1       5.421   3.634  12.298  0.00  0.00    +0.000 A 
ATOM     18  C   UNL     1       4.908   2.493  11.685  0.00  0.00    +0.000 A 
ATOM     19  C   UNL     1       5.782   1.577  11.114  0.00  0.00    +0.000 A 
ATOM     20  C   UNL     1       7.138   1.840  11.185  0.00  0.00    +0.000 A 
ATOM     21  N   UNL     1       7.666   2.933  11.781  0.00  0.00    +0.000 NA
ENDBRANCH  15  16
ENDBRANCH  13  15
ENDBRANCH   7  11
BRANCH   1  22
ATOM     22  C   UNL     1       3.050   2.091  18.264  0.00  0.00    +0.000 C 
BRANCH  22  23
ATOM     23  C   UNL     1       1.626   2.586  18.511  0.00  0.00    +0.000 C 
BRANCH  23  25
ATOM     24  C   UNL     1       1.100   3.876  20.408  0.00  0.00    +0.000 C 
ATOM     25  O   UNL     1       1.342   2.571  19.909  0.00  0.00    +0.000 OA
ENDBRANCH  23  25
ENDBRANCH  22  23
ENDBRANCH   1  22
TORSDOF 6
ENDMDL
