MODEL 1
REMARK VINA RESULT:      -6.9      0.000      0.000
REMARK  Name = 
REMARK  12 active torsions:
REMARK  status: ('A' for Active; 'I' for Inactive)
REMARK    1  A    between atoms: C_1  and  C_2
REMARK    2  A    between atoms: C_2  and  S_3
REMARK    3  A    between atoms: S_3  and  C_4
REMARK    4  A    between atoms: C_4  and  S_6
REMARK    5  A    between atoms: S_6  and  C_7
REMARK    6  A    between atoms: C_7  and  C_8
REMARK    7  A    between atoms: C_8  and  C_10
REMARK    8  A    between atoms: C_13  and  S_14
REMARK    9  A    between atoms: S_14  and  N_17
REMARK   10  A    between atoms: N_17  and  C_18
REMARK   11  A    between atoms: C_21  and  O_22
REMARK   12  A    between atoms: O_22  and  C_23
REMARK                            x       y       z     vdW  Elec       q    Type
REMARK                         _______ _______ _______ _____ _____    ______ ____
ROOT
ATOM      1  C   UNL     1       2.022   7.392  19.498  0.00  0.00    +0.000 A 
ATOM      2  C   UNL     1       2.099   6.459  20.539  0.00  0.00    +0.000 A 
ATOM      3  C   UNL     1       2.557   5.161  20.295  0.00  0.00    +0.000 A 
ATOM      4  C   UNL     1       2.941   4.781  19.012  0.00  0.00    +0.000 A 
ATOM      5  C   UNL     1       2.907   5.702  17.964  0.00  0.00    +0.000 A 
ATOM      6  C   UNL     1       2.439   7.005  18.208  0.00  0.00    +0.000 A 
ENDROOT
BRANCH   4   7
ATOM      7  S   UNL     1       3.538   3.115  18.777  0.00  0.00    +0.000 S 
ATOM      8  O   UNL     1       3.090   2.327  19.906  0.00  0.00    +0.000 OA
ATOM      9  O   UNL     1       3.227   2.720  17.422  0.00  0.00    +0.000 OA
BRANCH   7  10
ATOM     10  N   UNL     1       5.197   3.263  18.932  0.00  0.00    +0.000 N 
ATOM     11  H   UNL     1       5.691   2.536  19.443  0.00  0.00    +0.000 HD
BRANCH  10  12
ATOM     12  C   UNL     1       5.890   4.348  18.350  0.00  0.00    +0.000 A 
ATOM     13  C   UNL     1       6.485   5.292  19.185  0.00  0.00    +0.000 A 
ATOM     14  C   UNL     1       7.135   6.394  18.630  0.00  0.00    +0.000 A 
ATOM     15  C   UNL     1       7.237   6.533  17.245  0.00  0.00    +0.000 A 
ATOM     16  C   UNL     1       6.660   5.573  16.412  0.00  0.00    +0.000 A 
ATOM     17  C   UNL     1       5.984   4.477  16.967  0.00  0.00    +0.000 A 
BRANCH  15  18
ATOM     18  O   UNL     1       7.876   7.665  16.825  0.00  0.00    +0.000 OA
ATOM     19  C   UNL     1       8.028   8.690  17.801  0.00  0.00    +0.000 C 
ENDBRANCH  15  18
ENDBRANCH  10  12
ENDBRANCH   7  10
ENDBRANCH   4   7
BRANCH   1  20
ATOM     20  C   UNL     1       1.518   8.791  19.729  0.00  0.00    +0.000 C 
ATOM     21  O   UNL     1       1.146   9.096  20.865  0.00  0.00    +0.000 OA
BRANCH  20  22
ATOM     22  C   UNL     1       1.430   9.739  18.534  0.00  0.00    +0.000 C 
BRANCH  22  23
ATOM     23  S   UNL     1       0.792  11.375  18.981  0.00  0.00    +0.000 S 
BRANCH  23  24
ATOM     24  C   UNL     1      -0.959  11.181  18.841  0.00  0.00    +0.000 C 
ATOM     25  S   UNL     1      -1.755  10.259  17.688  0.00  0.00    +0.000 S 
BRANCH  24  26
ATOM     26  S   UNL     1      -1.827  12.234  19.964  0.00  0.00    +0.000 S 
BRANCH  26  28
ATOM     27  C   UNL     1      -0.744  12.859  22.391  0.00  0.00    +0.000 C 
ATOM     28  C   UNL     1      -1.183  11.662  21.563  0.00  0.00    +0.000 C 
ENDBRANCH  26  28
ENDBRANCH  24  26
ENDBRANCH  23  24
ENDBRANCH  22  23
ENDBRANCH  20  22
ENDBRANCH   1  20
TORSDOF 10
ENDMDL
MODEL 2
REMARK VINA RESULT:      -6.8      1.315      1.567
REMARK  Name = 
REMARK  12 active torsions:
REMARK  status: ('A' for Active; 'I' for Inactive)
REMARK    1  A    between atoms: C_1  and  C_2
REMARK    2  A    between atoms: C_2  and  S_3
REMARK    3  A    between atoms: S_3  and  C_4
REMARK    4  A    between atoms: C_4  and  S_6
REMARK    5  A    between atoms: S_6  and  C_7
REMARK    6  A    between atoms: C_7  and  C_8
REMARK    7  A    between atoms: C_8  and  C_10
REMARK    8  A    between atoms: C_13  and  S_14
REMARK    9  A    between atoms: S_14  and  N_17
REMARK   10  A    between atoms: N_17  and  C_18
REMARK   11  A    between atoms: C_21  and  O_22
REMARK   12  A    between atoms: O_22  and  C_23
REMARK                            x       y       z     vdW  Elec       q    Type
REMARK                         _______ _______ _______ _____ _____    ______ ____
ROOT
ATOM      1  C   UNL     1       1.682   7.192  20.247  0.00  0.00    +0.000 A 
ATOM      2  C   UNL     1       1.564   5.976  20.931  0.00  0.00    +0.000 A 
ATOM      3  C   UNL     1       1.876   4.773  20.295  0.00  0.00    +0.000 A 
ATOM      4  C   UNL     1       2.308   4.768  18.972  0.00  0.00    +0.000 A 
ATOM      5  C   UNL     1       2.468   5.968  18.279  0.00  0.00    +0.000 A 
ATOM      6  C   UNL     1       2.145   7.180  18.916  0.00  0.00    +0.000 A 
ENDROOT
BRANCH   4   7
ATOM      7  S   UNL     1       2.713   3.196  18.229  0.00  0.00    +0.000 S 
ATOM      8  O   UNL     1       2.127   2.159  19.053  0.00  0.00    +0.000 OA
ATOM      9  O   UNL     1       2.415   3.283  16.817  0.00  0.00    +0.000 OA
BRANCH   7  10
ATOM     10  N   UNL     1       4.369   3.078  18.427  0.00  0.00    +0.000 N 
ATOM     11  H   UNL     1       4.732   2.254  18.900  0.00  0.00    +0.000 HD
BRANCH  10  12
ATOM     12  C   UNL     1       5.236   4.079  17.934  0.00  0.00    +0.000 A 
ATOM     13  C   UNL     1       5.947   4.862  18.841  0.00  0.00    +0.000 A 
ATOM     14  C   UNL     1       6.773   5.884  18.374  0.00  0.00    +0.000 A 
ATOM     15  C   UNL     1       6.932   6.096  17.004  0.00  0.00    +0.000 A 
ATOM     16  C   UNL     1       6.236   5.294  16.097  0.00  0.00    +0.000 A 
ATOM     17  C   UNL     1       5.386   4.283  16.564  0.00  0.00    +0.000 A 
BRANCH  15  18
ATOM     18  O   UNL     1       7.748   7.141  16.673  0.00  0.00    +0.000 OA
ATOM     19  C   UNL     1       7.803   8.207  17.615  0.00  0.00    +0.000 C 
ENDBRANCH  15  18
ENDBRANCH  10  12
ENDBRANCH   7  10
ENDBRANCH   4   7
BRANCH   1  20
ATOM     20  C   UNL     1       1.337   8.502  20.903  0.00  0.00    +0.000 C 
ATOM     21  O   UNL     1       1.864   8.769  21.986  0.00  0.00    +0.000 OA
BRANCH  20  22
ATOM     22  C   UNL     1       0.302   9.403  20.229  0.00  0.00    +0.000 C 
BRANCH  22  23
ATOM     23  S   UNL     1       0.937  11.064  19.880  0.00  0.00    +0.000 S 
BRANCH  23  24
ATOM     24  C   UNL     1      -0.097  12.109  20.861  0.00  0.00    +0.000 C 
ATOM     25  S   UNL     1      -0.331  13.753  20.628  0.00  0.00    +0.000 S 
BRANCH  24  26
ATOM     26  S   UNL     1      -0.742  11.258  22.269  0.00  0.00    +0.000 S 
BRANCH  26  28
ATOM     27  C   UNL     1      -3.116  12.390  23.003  0.00  0.00    +0.000 C 
ATOM     28  C   UNL     1      -1.614  12.599  23.129  0.00  0.00    +0.000 C 
ENDBRANCH  26  28
ENDBRANCH  24  26
ENDBRANCH  23  24
ENDBRANCH  22  23
ENDBRANCH  20  22
ENDBRANCH   1  20
TORSDOF 10
ENDMDL
MODEL 3
REMARK VINA RESULT:      -6.6      3.421      9.096
REMARK  Name = 
REMARK  12 active torsions:
REMARK  status: ('A' for Active; 'I' for Inactive)
REMARK    1  A    between atoms: C_1  and  C_2
REMARK    2  A    between atoms: C_2  and  S_3
REMARK    3  A    between atoms: S_3  and  C_4
REMARK    4  A    between atoms: C_4  and  S_6
REMARK    5  A    between atoms: S_6  and  C_7
REMARK    6  A    between atoms: C_7  and  C_8
REMARK    7  A    between atoms: C_8  and  C_10
REMARK    8  A    between atoms: C_13  and  S_14
REMARK    9  A    between atoms: S_14  and  N_17
REMARK   10  A    between atoms: N_17  and  C_18
REMARK   11  A    between atoms: C_21  and  O_22
REMARK   12  A    between atoms: O_22  and  C_23
REMARK                            x       y       z     vdW  Elec       q    Type
REMARK                         _______ _______ _______ _____ _____    ______ ____
ROOT
ATOM      1  C   UNL     1       2.744   7.558  18.460  0.00  0.00    +0.000 A 
ATOM      2  C   UNL     1       2.292   7.378  19.773  0.00  0.00    +0.000 A 
ATOM      3  C   UNL     1       1.508   8.354  20.392  0.00  0.00    +0.000 A 
ATOM      4  C   UNL     1       1.167   9.519  19.709  0.00  0.00    +0.000 A 
ATOM      5  C   UNL     1       1.575   9.707  18.389  0.00  0.00    +0.000 A 
ATOM      6  C   UNL     1       2.372   8.728  17.769  0.00  0.00    +0.000 A 
ENDROOT
BRANCH   4   7
ATOM      7  S   UNL     1       0.143  10.713  20.553  0.00  0.00    +0.000 S 
ATOM      8  O   UNL     1      -0.950   9.992  21.173  0.00  0.00    +0.000 OA
ATOM      9  O   UNL     1       1.009  11.568  21.333  0.00  0.00    +0.000 OA
BRANCH   7  10
ATOM     10  N   UNL     1      -0.527  11.610  19.310  0.00  0.00    +0.000 N 
ATOM     11  H   UNL     1       0.051  12.327  18.880  0.00  0.00    +0.000 HD
BRANCH  10  12
ATOM     12  C   UNL     1      -1.843  11.363  18.859  0.00  0.00    +0.000 A 
ATOM     13  C   UNL     1      -2.877  12.174  19.320  0.00  0.00    +0.000 A 
ATOM     14  C   UNL     1      -4.189  11.918  18.920  0.00  0.00    +0.000 A 
ATOM     15  C   UNL     1      -4.466  10.885  18.024  0.00  0.00    +0.000 A 
ATOM     16  C   UNL     1      -3.425  10.088  17.546  0.00  0.00    +0.000 A 
ATOM     17  C   UNL     1      -2.109  10.328  17.965  0.00  0.00    +0.000 A 
BRANCH  15  18
ATOM     18  O   UNL     1      -5.790  10.719  17.728  0.00  0.00    +0.000 OA
ATOM     19  C   UNL     1      -6.698  11.521  18.476  0.00  0.00    +0.000 C 
ENDBRANCH  15  18
ENDBRANCH  10  12
ENDBRANCH   7  10
ENDBRANCH   4   7
BRANCH   1  20
ATOM     20  C   UNL     1       3.603   6.530  17.775  0.00  0.00    +0.000 C 
ATOM     21  O   UNL     1       4.217   6.866  16.759  0.00  0.00    +0.000 OA
BRANCH  20  22
ATOM     22  C   UNL     1       3.618   5.106  18.332  0.00  0.00    +0.000 C 
BRANCH  22  23
ATOM     23  S   UNL     1       2.714   3.934  17.288  0.00  0.00    +0.000 S 
BRANCH  23  24
ATOM     24  C   UNL     1       2.529   2.519  18.331  0.00  0.00    +0.000 C 
ATOM     25  S   UNL     1       3.684   1.329  18.582  0.00  0.00    +0.000 S 
BRANCH  24  26
ATOM     26  S   UNL     1       0.885   2.381  18.965  0.00  0.00    +0.000 S 
BRANCH  26  28
ATOM     27  C   UNL     1       1.525   2.761  21.592  0.00  0.00    +0.000 C 
ATOM     28  C   UNL     1       0.957   3.503  20.392  0.00  0.00    +0.000 C 
ENDBRANCH  26  28
ENDBRANCH  24  26
ENDBRANCH  23  24
ENDBRANCH  22  23
ENDBRANCH  20  22
ENDBRANCH   1  20
TORSDOF 10
ENDMDL
MODEL 4
REMARK VINA RESULT:      -6.6      2.224      3.573
REMARK  Name = 
REMARK  12 active torsions:
REMARK  status: ('A' for Active; 'I' for Inactive)
REMARK    1  A    between atoms: C_1  and  C_2
REMARK    2  A    between atoms: C_2  and  S_3
REMARK    3  A    between atoms: S_3  and  C_4
REMARK    4  A    between atoms: C_4  and  S_6
REMARK    5  A    between atoms: S_6  and  C_7
REMARK    6  A    between atoms: C_7  and  C_8
REMARK    7  A    between atoms: C_8  and  C_10
REMARK    8  A    between atoms: C_13  and  S_14
REMARK    9  A    between atoms: S_14  and  N_17
REMARK   10  A    between atoms: N_17  and  C_18
REMARK   11  A    between atoms: C_21  and  O_22
REMARK   12  A    between atoms: O_22  and  C_23
REMARK                            x       y       z     vdW  Elec       q    Type
REMARK                         _______ _______ _______ _____ _____    ______ ____
ROOT
ATOM      1  C   UNL     1       0.921   9.557  20.138  0.00  0.00    +0.000 A 
ATOM      2  C   UNL     1       1.555   9.211  18.938  0.00  0.00    +0.000 A 
ATOM      3  C   UNL     1       2.110   7.940  18.772  0.00  0.00    +0.000 A 
ATOM      4  C   UNL     1       2.041   7.003  19.799  0.00  0.00    +0.000 A 
ATOM      5  C   UNL     1       1.385   7.311  20.991  0.00  0.00    +0.000 A 
ATOM      6  C   UNL     1       0.832   8.593  21.161  0.00  0.00    +0.000 A 
ENDROOT
BRANCH   4   7
ATOM      7  S   UNL     1       2.752   5.391  19.510  0.00  0.00    +0.000 S 
ATOM      8  O   UNL     1       2.631   4.633  20.737  0.00  0.00    +0.000 OA
ATOM      9  O   UNL     1       2.214   4.887  18.266  0.00  0.00    +0.000 OA
BRANCH   7  10
ATOM     10  N   UNL     1       4.382   5.707  19.307  0.00  0.00    +0.000 N 
ATOM     11  H   UNL     1       4.910   6.006  20.122  0.00  0.00    +0.000 HD
BRANCH  10  12
ATOM     12  C   UNL     1       5.007   5.540  18.051  0.00  0.00    +0.000 A 
ATOM     13  C   UNL     1       4.917   6.566  17.112  0.00  0.00    +0.000 A 
ATOM     14  C   UNL     1       5.489   6.403  15.851  0.00  0.00    +0.000 A 
ATOM     15  C   UNL     1       6.193   5.239  15.538  0.00  0.00    +0.000 A 
ATOM     16  C   UNL     1       6.300   4.222  16.489  0.00  0.00    +0.000 A 
ATOM     17  C   UNL     1       5.705   4.374  17.749  0.00  0.00    +0.000 A 
BRANCH  15  18
ATOM     18  O   UNL     1       6.685   5.188  14.265  0.00  0.00    +0.000 OA
ATOM     19  C   UNL     1       6.348   4.025  13.515  0.00  0.00    +0.000 C 
ENDBRANCH  15  18
ENDBRANCH  10  12
ENDBRANCH   7  10
ENDBRANCH   4   7
BRANCH   1  20
ATOM     20  C   UNL     1       0.328  10.924  20.349  0.00  0.00    +0.000 C 
ATOM     21  O   UNL     1       0.335  11.392  21.491  0.00  0.00    +0.000 OA
BRANCH  20  22
ATOM     22  C   UNL     1      -0.313  11.632  19.156  0.00  0.00    +0.000 C 
BRANCH  22  23
ATOM     23  S   UNL     1      -1.514  10.591  18.285  0.00  0.00    +0.000 S 
BRANCH  23  24
ATOM     24  C   UNL     1      -3.016  11.517  18.403  0.00  0.00    +0.000 C 
ATOM     25  S   UNL     1      -3.502  12.431  19.723  0.00  0.00    +0.000 S 
BRANCH  24  26
ATOM     26  S   UNL     1      -4.074  11.231  17.017  0.00  0.00    +0.000 S 
BRANCH  26  28
ATOM     27  C   UNL     1      -3.507  10.141  14.578  0.00  0.00    +0.000 C 
ATOM     28  C   UNL     1      -2.862  10.947  15.694  0.00  0.00    +0.000 C 
ENDBRANCH  26  28
ENDBRANCH  24  26
ENDBRANCH  23  24
ENDBRANCH  22  23
ENDBRANCH  20  22
ENDBRANCH   1  20
TORSDOF 10
ENDMDL
MODEL 5
REMARK VINA RESULT:      -6.5      1.353      1.993
REMARK  Name = 
REMARK  12 active torsions:
REMARK  status: ('A' for Active; 'I' for Inactive)
REMARK    1  A    between atoms: C_1  and  C_2
REMARK    2  A    between atoms: C_2  and  S_3
REMARK    3  A    between atoms: S_3  and  C_4
REMARK    4  A    between atoms: C_4  and  S_6
REMARK    5  A    between atoms: S_6  and  C_7
REMARK    6  A    between atoms: C_7  and  C_8
REMARK    7  A    between atoms: C_8  and  C_10
REMARK    8  A    between atoms: C_13  and  S_14
REMARK    9  A    between atoms: S_14  and  N_17
REMARK   10  A    between atoms: N_17  and  C_18
REMARK   11  A    between atoms: C_21  and  O_22
REMARK   12  A    between atoms: O_22  and  C_23
REMARK                            x       y       z     vdW  Elec       q    Type
REMARK                         _______ _______ _______ _____ _____    ______ ____
ROOT
ATOM      1  C   UNL     1       2.008   7.523  18.714  0.00  0.00    +0.000 A 
ATOM      2  C   UNL     1       1.889   6.622  17.649  0.00  0.00    +0.000 A 
ATOM      3  C   UNL     1       2.172   5.267  17.834  0.00  0.00    +0.000 A 
ATOM      4  C   UNL     1       2.579   4.797  19.080  0.00  0.00    +0.000 A 
ATOM      5  C   UNL     1       2.672   5.668  20.165  0.00  0.00    +0.000 A 
ATOM      6  C   UNL     1       2.395   7.034  19.977  0.00  0.00    +0.000 A 
ENDROOT
BRANCH   4   7
ATOM      7  S   UNL     1       2.902   3.049  19.249  0.00  0.00    +0.000 S 
ATOM      8  O   UNL     1       3.291   2.808  20.623  0.00  0.00    +0.000 OA
ATOM      9  O   UNL     1       1.798   2.334  18.651  0.00  0.00    +0.000 OA
BRANCH   7  10
ATOM     10  N   UNL     1       4.272   2.807  18.320  0.00  0.00    +0.000 N 
ATOM     11  H   UNL     1       4.458   1.865  17.989  0.00  0.00    +0.000 HD
BRANCH  10  12
ATOM     12  C   UNL     1       5.127   3.882  17.988  0.00  0.00    +0.000 A 
ATOM     13  C   UNL     1       5.201   4.298  16.661  0.00  0.00    +0.000 A 
ATOM     14  C   UNL     1       6.073   5.327  16.306  0.00  0.00    +0.000 A 
ATOM     15  C   UNL     1       6.835   5.976  17.278  0.00  0.00    +0.000 A 
ATOM     16  C   UNL     1       6.742   5.571  18.611  0.00  0.00    +0.000 A 
ATOM     17  C   UNL     1       5.885   4.521  18.967  0.00  0.00    +0.000 A 
BRANCH  15  18
ATOM     18  O   UNL     1       7.668   6.950  16.803  0.00  0.00    +0.000 OA
ATOM     19  C   UNL     1       7.684   8.167  17.541  0.00  0.00    +0.000 C 
ENDBRANCH  15  18
ENDBRANCH  10  12
ENDBRANCH   7  10
ENDBRANCH   4   7
BRANCH   1  20
ATOM     20  C   UNL     1       1.724   8.991  18.539  0.00  0.00    +0.000 C 
ATOM     21  O   UNL     1       2.031   9.521  17.468  0.00  0.00    +0.000 OA
BRANCH  20  22
ATOM     22  C   UNL     1       1.135   9.763  19.719  0.00  0.00    +0.000 C 
BRANCH  22  23
ATOM     23  S   UNL     1      -0.560  10.328  19.413  0.00  0.00    +0.000 S 
BRANCH  23  24
ATOM     24  C   UNL     1      -0.534  12.008  19.961  0.00  0.00    +0.000 C 
ATOM     25  S   UNL     1      -0.863  13.353  19.015  0.00  0.00    +0.000 S 
BRANCH  24  26
ATOM     26  S   UNL     1       0.070  12.149  21.616  0.00  0.00    +0.000 S 
BRANCH  26  28
ATOM     27  C   UNL     1      -0.552   9.963  23.130  0.00  0.00    +0.000 C 
ATOM     28  C   UNL     1      -1.185  11.212  22.536  0.00  0.00    +0.000 C 
ENDBRANCH  26  28
ENDBRANCH  24  26
ENDBRANCH  23  24
ENDBRANCH  22  23
ENDBRANCH  20  22
ENDBRANCH   1  20
TORSDOF 10
ENDMDL
MODEL 6
REMARK VINA RESULT:      -6.4      1.321      2.253
REMARK  Name = 
REMARK  12 active torsions:
REMARK  status: ('A' for Active; 'I' for Inactive)
REMARK    1  A    between atoms: C_1  and  C_2
REMARK    2  A    between atoms: C_2  and  S_3
REMARK    3  A    between atoms: S_3  and  C_4
REMARK    4  A    between atoms: C_4  and  S_6
REMARK    5  A    between atoms: S_6  and  C_7
REMARK    6  A    between atoms: C_7  and  C_8
REMARK    7  A    between atoms: C_8  and  C_10
REMARK    8  A    between atoms: C_13  and  S_14
REMARK    9  A    between atoms: S_14  and  N_17
REMARK   10  A    between atoms: N_17  and  C_18
REMARK   11  A    between atoms: C_21  and  O_22
REMARK   12  A    between atoms: O_22  and  C_23
REMARK                            x       y       z     vdW  Elec       q    Type
REMARK                         _______ _______ _______ _____ _____    ______ ____
ROOT
ATOM      1  C   UNL     1       2.012   7.135  19.685  0.00  0.00    +0.000 A 
ATOM      2  C   UNL     1       2.315   6.969  18.328  0.00  0.00    +0.000 A 
ATOM      3  C   UNL     1       2.745   5.731  17.845  0.00  0.00    +0.000 A 
ATOM      4  C   UNL     1       2.877   4.647  18.709  0.00  0.00    +0.000 A 
ATOM      5  C   UNL     1       2.548   4.777  20.058  0.00  0.00    +0.000 A 
ATOM      6  C   UNL     1       2.124   6.025  20.546  0.00  0.00    +0.000 A 
ENDROOT
BRANCH   4   7
ATOM      7  S   UNL     1       3.409   3.088  18.019  0.00  0.00    +0.000 S 
ATOM      8  O   UNL     1       3.893   2.269  19.110  0.00  0.00    +0.000 OA
ATOM      9  O   UNL     1       2.365   2.615  17.138  0.00  0.00    +0.000 OA
BRANCH   7  10
ATOM     10  N   UNL     1       4.748   3.495  17.103  0.00  0.00    +0.000 N 
ATOM     11  H   UNL     1       4.891   3.000  16.227  0.00  0.00    +0.000 HD
BRANCH  10  12
ATOM     12  C   UNL     1       5.637   4.510  17.523  0.00  0.00    +0.000 A 
ATOM     13  C   UNL     1       6.018   5.492  16.610  0.00  0.00    +0.000 A 
ATOM     14  C   UNL     1       6.930   6.476  16.992  0.00  0.00    +0.000 A 
ATOM     15  C   UNL     1       7.425   6.513  18.296  0.00  0.00    +0.000 A 
ATOM     16  C   UNL     1       7.024   5.542  19.215  0.00  0.00    +0.000 A 
ATOM     17  C   UNL     1       6.127   4.537  18.826  0.00  0.00    +0.000 A 
BRANCH  15  18
ATOM     18  O   UNL     1       8.328   7.510  18.541  0.00  0.00    +0.000 OA
ATOM     19  C   UNL     1       8.059   8.759  17.914  0.00  0.00    +0.000 C 
ENDBRANCH  15  18
ENDBRANCH  10  12
ENDBRANCH   7  10
ENDBRANCH   4   7
BRANCH   1  20
ATOM     20  C   UNL     1       1.562   8.462  20.235  0.00  0.00    +0.000 C 
ATOM     21  O   UNL     1       1.470   8.584  21.459  0.00  0.00    +0.000 OA
BRANCH  20  22
ATOM     22  C   UNL     1       1.178   9.565  19.250  0.00  0.00    +0.000 C 
BRANCH  22  23
ATOM     23  S   UNL     1      -0.513  10.168  19.495  0.00  0.00    +0.000 S 
BRANCH  23  24
ATOM     24  C   UNL     1      -0.300  11.543  20.586  0.00  0.00    +0.000 C 
ATOM     25  S   UNL     1      -1.471  12.174  21.609  0.00  0.00    +0.000 S 
BRANCH  24  26
ATOM     26  S   UNL     1       1.267  12.328  20.354  0.00  0.00    +0.000 S 
BRANCH  26  28
ATOM     27  C   UNL     1       2.334  13.388  18.075  0.00  0.00    +0.000 C 
ATOM     28  C   UNL     1       1.001  13.198  18.782  0.00  0.00    +0.000 C 
ENDBRANCH  26  28
ENDBRANCH  24  26
ENDBRANCH  23  24
ENDBRANCH  22  23
ENDBRANCH  20  22
ENDBRANCH   1  20
TORSDOF 10
ENDMDL
MODEL 7
REMARK VINA RESULT:      -6.4      2.305      3.658
REMARK  Name = 
REMARK  12 active torsions:
REMARK  status: ('A' for Active; 'I' for Inactive)
REMARK    1  A    between atoms: C_1  and  C_2
REMARK    2  A    between atoms: C_2  and  S_3
REMARK    3  A    between atoms: S_3  and  C_4
REMARK    4  A    between atoms: C_4  and  S_6
REMARK    5  A    between atoms: S_6  and  C_7
REMARK    6  A    between atoms: C_7  and  C_8
REMARK    7  A    between atoms: C_8  and  C_10
REMARK    8  A    between atoms: C_13  and  S_14
REMARK    9  A    between atoms: S_14  and  N_17
REMARK   10  A    between atoms: N_17  and  C_18
REMARK   11  A    between atoms: C_21  and  O_22
REMARK   12  A    between atoms: O_22  and  C_23
REMARK                            x       y       z     vdW  Elec       q    Type
REMARK                         _______ _______ _______ _____ _____    ______ ____
ROOT
ATOM      1  C   UNL     1       1.087   9.578  20.186  0.00  0.00    +0.000 A 
ATOM      2  C   UNL     1       1.563   9.350  18.889  0.00  0.00    +0.000 A 
ATOM      3  C   UNL     1       2.104   8.110  18.541  0.00  0.00    +0.000 A 
ATOM      4  C   UNL     1       2.176   7.086  19.482  0.00  0.00    +0.000 A 
ATOM      5  C   UNL     1       1.676   7.276  20.770  0.00  0.00    +0.000 A 
ATOM      6  C   UNL     1       1.140   8.527  21.123  0.00  0.00    +0.000 A 
ENDROOT
BRANCH   4   7
ATOM      7  S   UNL     1       2.857   5.519  18.962  0.00  0.00    +0.000 S 
ATOM      8  O   UNL     1       2.971   4.680  20.137  0.00  0.00    +0.000 OA
ATOM      9  O   UNL     1       2.118   5.079  17.800  0.00  0.00    +0.000 OA
BRANCH   7  10
ATOM     10  N   UNL     1       4.418   5.900  18.499  0.00  0.00    +0.000 N 
ATOM     11  H   UNL     1       4.988   6.433  19.150  0.00  0.00    +0.000 HD
BRANCH  10  12
ATOM     12  C   UNL     1       4.934   5.475  17.254  0.00  0.00    +0.000 A 
ATOM     13  C   UNL     1       5.365   4.157  17.118  0.00  0.00    +0.000 A 
ATOM     14  C   UNL     1       5.919   3.731  15.910  0.00  0.00    +0.000 A 
ATOM     15  C   UNL     1       5.999   4.601  14.822  0.00  0.00    +0.000 A 
ATOM     16  C   UNL     1       5.545   5.915  14.955  0.00  0.00    +0.000 A 
ATOM     17  C   UNL     1       5.011   6.353  16.175  0.00  0.00    +0.000 A 
BRANCH  15  18
ATOM     18  O   UNL     1       6.582   4.074  13.705  0.00  0.00    +0.000 OA
ATOM     19  C   UNL     1       5.692   3.501  12.753  0.00  0.00    +0.000 C 
ENDBRANCH  15  18
ENDBRANCH  10  12
ENDBRANCH   7  10
ENDBRANCH   4   7
BRANCH   1  20
ATOM     20  C   UNL     1       0.514  10.909  20.592  0.00  0.00    +0.000 C 
ATOM     21  O   UNL     1       1.288  11.771  21.019  0.00  0.00    +0.000 OA
BRANCH  20  22
ATOM     22  C   UNL     1      -1.000  11.102  20.521  0.00  0.00    +0.000 C 
BRANCH  22  23
ATOM     23  S   UNL     1      -1.488  12.408  19.363  0.00  0.00    +0.000 S 
BRANCH  23  24
ATOM     24  C   UNL     1      -3.254  12.316  19.368  0.00  0.00    +0.000 C 
ATOM     25  S   UNL     1      -4.263  12.915  20.567  0.00  0.00    +0.000 S 
BRANCH  24  26
ATOM     26  S   UNL     1      -3.864  11.339  18.028  0.00  0.00    +0.000 S 
BRANCH  26  28
ATOM     27  C   UNL     1      -2.804  10.727  15.587  0.00  0.00    +0.000 C 
ATOM     28  C   UNL     1      -2.399  11.244  16.958  0.00  0.00    +0.000 C 
ENDBRANCH  26  28
ENDBRANCH  24  26
ENDBRANCH  23  24
ENDBRANCH  22  23
ENDBRANCH  20  22
ENDBRANCH   1  20
TORSDOF 10
ENDMDL
MODEL 8
REMARK VINA RESULT:      -6.4      1.650      2.798
REMARK  Name = 
REMARK  12 active torsions:
REMARK  status: ('A' for Active; 'I' for Inactive)
REMARK    1  A    between atoms: C_1  and  C_2
REMARK    2  A    between atoms: C_2  and  S_3
REMARK    3  A    between atoms: S_3  and  C_4
REMARK    4  A    between atoms: C_4  and  S_6
REMARK    5  A    between atoms: S_6  and  C_7
REMARK    6  A    between atoms: C_7  and  C_8
REMARK    7  A    between atoms: C_8  and  C_10
REMARK    8  A    between atoms: C_13  and  S_14
REMARK    9  A    between atoms: S_14  and  N_17
REMARK   10  A    between atoms: N_17  and  C_18
REMARK   11  A    between atoms: C_21  and  O_22
REMARK   12  A    between atoms: O_22  and  C_23
REMARK                            x       y       z     vdW  Elec       q    Type
REMARK                         _______ _______ _______ _____ _____    ______ ____
ROOT
ATOM      1  C   UNL     1       1.647   8.187  19.898  0.00  0.00    +0.000 A 
ATOM      2  C   UNL     1       2.249   7.888  18.669  0.00  0.00    +0.000 A 
ATOM      3  C   UNL     1       2.669   6.587  18.384  0.00  0.00    +0.000 A 
ATOM      4  C   UNL     1       2.496   5.571  19.321  0.00  0.00    +0.000 A 
ATOM      5  C   UNL     1       1.869   5.835  20.538  0.00  0.00    +0.000 A 
ATOM      6  C   UNL     1       1.452   7.147  20.828  0.00  0.00    +0.000 A 
ENDROOT
BRANCH   4   7
ATOM      7  S   UNL     1       3.036   3.927  18.880  0.00  0.00    +0.000 S 
ATOM      8  O   UNL     1       2.656   3.039  19.959  0.00  0.00    +0.000 OA
ATOM      9  O   UNL     1       2.616   3.672  17.521  0.00  0.00    +0.000 OA
BRANCH   7  10
ATOM     10  N   UNL     1       4.705   4.034  18.922  0.00  0.00    +0.000 N 
ATOM     11  H   UNL     1       5.170   3.828  19.801  0.00  0.00    +0.000 HD
BRANCH  10  12
ATOM     12  C   UNL     1       5.443   4.375  17.766  0.00  0.00    +0.000 A 
ATOM     13  C   UNL     1       6.272   5.494  17.803  0.00  0.00    +0.000 A 
ATOM     14  C   UNL     1       6.975   5.873  16.659  0.00  0.00    +0.000 A 
ATOM     15  C   UNL     1       6.891   5.111  15.492  0.00  0.00    +0.000 A 
ATOM     16  C   UNL     1       6.076   3.978  15.466  0.00  0.00    +0.000 A 
ATOM     17  C   UNL     1       5.350   3.609  16.607  0.00  0.00    +0.000 A 
BRANCH  15  18
ATOM     18  O   UNL     1       7.605   5.598  14.434  0.00  0.00    +0.000 OA
ATOM     19  C   UNL     1       7.462   4.886  13.209  0.00  0.00    +0.000 C 
ENDBRANCH  15  18
ENDBRANCH  10  12
ENDBRANCH   7  10
ENDBRANCH   4   7
BRANCH   1  20
ATOM     20  C   UNL     1       1.199   9.583  20.237  0.00  0.00    +0.000 C 
ATOM     21  O   UNL     1       1.022   9.866  21.425  0.00  0.00    +0.000 OA
BRANCH  20  22
ATOM     22  C   UNL     1       0.921  10.556  19.092  0.00  0.00    +0.000 C 
BRANCH  22  23
ATOM     23  S   UNL     1      -0.607  10.169  18.197  0.00  0.00    +0.000 S 
BRANCH  23  24
ATOM     24  C   UNL     1      -1.665  11.529  18.594  0.00  0.00    +0.000 C 
ATOM     25  S   UNL     1      -1.297  12.784  19.643  0.00  0.00    +0.000 S 
BRANCH  24  26
ATOM     26  S   UNL     1      -3.274  11.334  17.890  0.00  0.00    +0.000 S 
BRANCH  26  28
ATOM     27  C   UNL     1      -2.965  10.666  15.261  0.00  0.00    +0.000 C 
ATOM     28  C   UNL     1      -2.968  10.044  16.649  0.00  0.00    +0.000 C 
ENDBRANCH  26  28
ENDBRANCH  24  26
ENDBRANCH  23  24
ENDBRANCH  22  23
ENDBRANCH  20  22
ENDBRANCH   1  20
TORSDOF 10
ENDMDL
MODEL 9
REMARK VINA RESULT:      -6.4      1.042      1.507
REMARK  Name = 
REMARK  12 active torsions:
REMARK  status: ('A' for Active; 'I' for Inactive)
REMARK    1  A    between atoms: C_1  and  C_2
REMARK    2  A    between atoms: C_2  and  S_3
REMARK    3  A    between atoms: S_3  and  C_4
REMARK    4  A    between atoms: C_4  and  S_6
REMARK    5  A    between atoms: S_6  and  C_7
REMARK    6  A    between atoms: C_7  and  C_8
REMARK    7  A    between atoms: C_8  and  C_10
REMARK    8  A    between atoms: C_13  and  S_14
REMARK    9  A    between atoms: S_14  and  N_17
REMARK   10  A    between atoms: N_17  and  C_18
REMARK   11  A    between atoms: C_21  and  O_22
REMARK   12  A    between atoms: O_22  and  C_23
REMARK                            x       y       z     vdW  Elec       q    Type
REMARK                         _______ _______ _______ _____ _____    ______ ____
ROOT
ATOM      1  C   UNL     1       1.859   7.575  19.546  0.00  0.00    +0.000 A 
ATOM      2  C   UNL     1       2.268   7.186  18.265  0.00  0.00    +0.000 A 
ATOM      3  C   UNL     1       2.657   5.868  18.015  0.00  0.00    +0.000 A 
ATOM      4  C   UNL     1       2.642   4.925  19.039  0.00  0.00    +0.000 A 
ATOM      5  C   UNL     1       2.205   5.278  20.316  0.00  0.00    +0.000 A 
ATOM      6  C   UNL     1       1.822   6.607  20.570  0.00  0.00    +0.000 A 
ENDROOT
BRANCH   4   7
ATOM      7  S   UNL     1       3.129   3.253  18.644  0.00  0.00    +0.000 S 
ATOM      8  O   UNL     1       2.600   2.387  19.677  0.00  0.00    +0.000 OA
ATOM      9  O   UNL     1       2.825   3.022  17.250  0.00  0.00    +0.000 OA
BRANCH   7  10
ATOM     10  N   UNL     1       4.790   3.266  18.842  0.00  0.00    +0.000 N 
ATOM     11  H   UNL     1       5.208   2.510  19.376  0.00  0.00    +0.000 HD
BRANCH  10  12
ATOM     12  C   UNL     1       5.585   4.283  18.266  0.00  0.00    +0.000 A 
ATOM     13  C   UNL     1       6.254   5.171  19.106  0.00  0.00    +0.000 A 
ATOM     14  C   UNL     1       7.008   6.208  18.556  0.00  0.00    +0.000 A 
ATOM     15  C   UNL     1       7.137   6.332  17.172  0.00  0.00    +0.000 A 
ATOM     16  C   UNL     1       6.484   5.427  16.334  0.00  0.00    +0.000 A 
ATOM     17  C   UNL     1       5.706   4.399  16.884  0.00  0.00    +0.000 A 
BRANCH  15  18
ATOM     18  O   UNL     1       7.881   7.401  16.757  0.00  0.00    +0.000 OA
ATOM     19  C   UNL     1       7.859   8.541  17.608  0.00  0.00    +0.000 C 
ENDBRANCH  15  18
ENDBRANCH  10  12
ENDBRANCH   7  10
ENDBRANCH   4   7
BRANCH   1  20
ATOM     20  C   UNL     1       1.450   8.992  19.847  0.00  0.00    +0.000 C 
ATOM     21  O   UNL     1       1.323   9.324  21.028  0.00  0.00    +0.000 OA
BRANCH  20  22
ATOM     22  C   UNL     1       1.147   9.925  18.675  0.00  0.00    +0.000 C 
BRANCH  22  23
ATOM     23  S   UNL     1       1.521  11.660  19.044  0.00  0.00    +0.000 S 
BRANCH  23  24
ATOM     24  C   UNL     1      -0.078  12.395  19.206  0.00  0.00    +0.000 C 
ATOM     25  S   UNL     1      -1.523  11.566  19.405  0.00  0.00    +0.000 S 
BRANCH  24  26
ATOM     26  S   UNL     1      -0.026  14.143  18.947  0.00  0.00    +0.000 S 
BRANCH  26  28
ATOM     27  C   UNL     1       0.457  14.300  21.629  0.00  0.00    +0.000 C 
ATOM     28  C   UNL     1       1.076  14.670  20.290  0.00  0.00    +0.000 C 
ENDBRANCH  26  28
ENDBRANCH  24  26
ENDBRANCH  23  24
ENDBRANCH  22  23
ENDBRANCH  20  22
ENDBRANCH   1  20
TORSDOF 10
ENDMDL
