MODEL 1
REMARK VINA RESULT:      -7.7      0.000      0.000
REMARK  Name = 
REMARK  8 active torsions:
REMARK  status: ('A' for Active; 'I' for Inactive)
REMARK    1  A    between atoms: C_1  and  C_2
REMARK    2  A    between atoms: C_4  and  C_5
REMARK    3  A    between atoms: C_5  and  O_7
REMARK    4  A    between atoms: O_7  and  C_8
REMARK    5  A    between atoms: C_8  and  C_9
REMARK    6  A    between atoms: N_11  and  C_12
REMARK    7  A    between atoms: C_20  and  C_21
REMARK    8  A    between atoms: N_22  and  C_23
REMARK                            x       y       z     vdW  Elec       q    Type
REMARK                         _______ _______ _______ _____ _____    ______ ____
ROOT
ATOM      1  O   UNL     1       2.909   2.477  20.714  0.00  0.00    +0.000 OA
ENDROOT
BRANCH   1   2
ATOM      2  C   UNL     1       4.256   2.447  20.499  0.00  0.00    +0.000 C 
ATOM      3  O   UNL     1       5.010   1.739  21.159  0.00  0.00    +0.000 OA
BRANCH   2   7
ATOM      4  C   UNL     1       6.579   6.203  17.939  0.00  0.00    +0.000 C 
ATOM      5  C   UNL     1       5.722   5.040  18.288  0.00  0.00    +0.000 A 
ATOM      6  C   UNL     1       5.586   4.452  19.537  0.00  0.00    +0.000 A 
ATOM      7  C   UNL     1       4.695   3.346  19.437  0.00  0.00    +0.000 A 
ATOM      8  C   UNL     1       4.313   3.281  18.099  0.00  0.00    +0.000 A 
ATOM      9  C   UNL     1       3.367   2.336  17.429  0.00  0.00    +0.000 C 
ATOM     10  N   UNL     1       4.939   4.311  17.417  0.00  0.00    +0.000 N 
BRANCH  10  11
ATOM     11  C   UNL     1       4.701   4.530  15.993  0.00  0.00    +0.000 C 
ATOM     12  C   UNL     1       5.353   5.687  15.262  0.00  0.00    +0.000 C 
ATOM     13  C   UNL     1       5.640   4.287  14.838  0.00  0.00    +0.000 C 
ENDBRANCH  10  11
ENDBRANCH   2   7
ENDBRANCH   1   2
BRANCH   1  14
ATOM     14  C   UNL     1       2.468   3.638  21.418  0.00  0.00    +0.000 C 
BRANCH  14  15
ATOM     15  C   UNL     1       1.879   4.708  20.492  0.00  0.00    +0.000 C 
ATOM     16  O   UNL     1       0.980   4.415  19.706  0.00  0.00    +0.000 OA
ATOM     17  N   UNL     1       2.477   5.953  20.613  0.00  0.00    +0.000 N 
ATOM     18  H   UNL     1       3.347   6.001  21.150  0.00  0.00    +0.000 HD
BRANCH  17  19
ATOM     19  C   UNL     1       2.165   7.103  19.850  0.00  0.00    +0.000 A 
ATOM     20  C   UNL     1       2.545   7.263  18.516  0.00  0.00    +0.000 A 
ATOM     21  C   UNL     1       2.266   8.453  17.838  0.00  0.00    +0.000 A 
ATOM     22  C   UNL     1       1.592   9.478  18.494  0.00  0.00    +0.000 A 
ATOM     23  F   UNL     1       1.354  10.628  17.847  0.00  0.00    +0.000 F 
ATOM     24  C   UNL     1       1.169   9.330  19.806  0.00  0.00    +0.000 A 
ATOM     25  C   UNL     1       1.450   8.139  20.470  0.00  0.00    +0.000 A 
ATOM     26  F   UNL     1       1.046   8.001  21.742  0.00  0.00    +0.000 F 
ENDBRANCH  17  19
ENDBRANCH  14  15
ENDBRANCH   1  14
TORSDOF 6
ENDMDL
MODEL 2
REMARK VINA RESULT:      -7.5      1.169      1.583
REMARK  Name = 
REMARK  8 active torsions:
REMARK  status: ('A' for Active; 'I' for Inactive)
REMARK    1  A    between atoms: C_1  and  C_2
REMARK    2  A    between atoms: C_4  and  C_5
REMARK    3  A    between atoms: C_5  and  O_7
REMARK    4  A    between atoms: O_7  and  C_8
REMARK    5  A    between atoms: C_8  and  C_9
REMARK    6  A    between atoms: N_11  and  C_12
REMARK    7  A    between atoms: C_20  and  C_21
REMARK    8  A    between atoms: N_22  and  C_23
REMARK                            x       y       z     vdW  Elec       q    Type
REMARK                         _______ _______ _______ _____ _____    ______ ____
ROOT
ATOM      1  O   UNL     1       3.357   2.993  21.112  0.00  0.00    +0.000 OA
ENDROOT
BRANCH   1   2
ATOM      2  C   UNL     1       3.271   2.573  19.818  0.00  0.00    +0.000 C 
ATOM      3  O   UNL     1       2.489   1.697  19.462  0.00  0.00    +0.000 OA
BRANCH   2   7
ATOM      4  C   UNL     1       7.340   5.058  17.994  0.00  0.00    +0.000 C 
ATOM      5  C   UNL     1       6.025   4.375  18.106  0.00  0.00    +0.000 A 
ATOM      6  C   UNL     1       5.463   3.836  19.253  0.00  0.00    +0.000 A 
ATOM      7  C   UNL     1       4.209   3.246  18.925  0.00  0.00    +0.000 A 
ATOM      8  C   UNL     1       4.043   3.434  17.555  0.00  0.00    +0.000 A 
ATOM      9  C   UNL     1       2.896   3.045  16.677  0.00  0.00    +0.000 C 
ATOM     10  N   UNL     1       5.146   4.119  17.073  0.00  0.00    +0.000 N 
BRANCH  10  11
ATOM     11  C   UNL     1       5.243   4.504  15.668  0.00  0.00    +0.000 C 
ATOM     12  C   UNL     1       5.330   5.963  15.263  0.00  0.00    +0.000 C 
ATOM     13  C   UNL     1       6.445   5.032  14.923  0.00  0.00    +0.000 C 
ENDBRANCH  10  11
ENDBRANCH   2   7
ENDBRANCH   1   2
BRANCH   1  14
ATOM     14  C   UNL     1       2.119   3.466  21.644  0.00  0.00    +0.000 C 
BRANCH  14  15
ATOM     15  C   UNL     1       1.540   4.640  20.847  0.00  0.00    +0.000 C 
ATOM     16  O   UNL     1       0.561   4.470  20.123  0.00  0.00    +0.000 OA
ATOM     17  N   UNL     1       2.238   5.829  21.001  0.00  0.00    +0.000 N 
ATOM     18  H   UNL     1       3.149   5.776  21.463  0.00  0.00    +0.000 HD
BRANCH  17  19
ATOM     19  C   UNL     1       1.954   7.051  20.347  0.00  0.00    +0.000 A 
ATOM     20  C   UNL     1       1.216   8.081  20.935  0.00  0.00    +0.000 A 
ATOM     21  C   UNL     1       0.911   9.236  20.210  0.00  0.00    +0.000 A 
ATOM     22  C   UNL     1       1.360   9.366  18.899  0.00  0.00    +0.000 A 
ATOM     23  F   UNL     1       1.039  10.464  18.200  0.00  0.00    +0.000 F 
ATOM     24  C   UNL     1       2.127   8.377  18.306  0.00  0.00    +0.000 A 
ATOM     25  C   UNL     1       2.428   7.231  19.039  0.00  0.00    +0.000 A 
ATOM     26  F   UNL     1       3.164   6.272  18.459  0.00  0.00    +0.000 F 
ENDBRANCH  17  19
ENDBRANCH  14  15
ENDBRANCH   1  14
TORSDOF 6
ENDMDL
MODEL 3
REMARK VINA RESULT:      -7.4      5.719      7.199
REMARK  Name = 
REMARK  8 active torsions:
REMARK  status: ('A' for Active; 'I' for Inactive)
REMARK    1  A    between atoms: C_1  and  C_2
REMARK    2  A    between atoms: C_4  and  C_5
REMARK    3  A    between atoms: C_5  and  O_7
REMARK    4  A    between atoms: O_7  and  C_8
REMARK    5  A    between atoms: C_8  and  C_9
REMARK    6  A    between atoms: N_11  and  C_12
REMARK    7  A    between atoms: C_20  and  C_21
REMARK    8  A    between atoms: N_22  and  C_23
REMARK                            x       y       z     vdW  Elec       q    Type
REMARK                         _______ _______ _______ _____ _____    ______ ____
ROOT
ATOM      1  O   UNL     1       6.969   7.654  17.298  0.00  0.00    +0.000 OA
ENDROOT
BRANCH   1   2
ATOM      2  C   UNL     1       6.863   6.356  16.895  0.00  0.00    +0.000 C 
ATOM      3  O   UNL     1       7.560   5.887  16.001  0.00  0.00    +0.000 OA
BRANCH   2   7
ATOM      4  C   UNL     1       4.447   2.815  19.668  0.00  0.00    +0.000 C 
ATOM      5  C   UNL     1       4.744   4.013  18.840  0.00  0.00    +0.000 A 
ATOM      6  C   UNL     1       5.974   4.378  18.315  0.00  0.00    +0.000 A 
ATOM      7  C   UNL     1       5.834   5.607  17.610  0.00  0.00    +0.000 A 
ATOM      8  C   UNL     1       4.496   5.972  17.737  0.00  0.00    +0.000 A 
ATOM      9  C   UNL     1       3.779   7.157  17.170  0.00  0.00    +0.000 C 
ATOM     10  N   UNL     1       3.848   4.999  18.480  0.00  0.00    +0.000 N 
BRANCH  10  11
ATOM     11  C   UNL     1       2.415   5.081  18.748  0.00  0.00    +0.000 C 
ATOM     12  C   UNL     1       1.430   4.207  17.997  0.00  0.00    +0.000 C 
ATOM     13  C   UNL     1       1.542   4.092  19.479  0.00  0.00    +0.000 C 
ENDBRANCH  10  11
ENDBRANCH   2   7
ENDBRANCH   1   2
BRANCH   1  14
ATOM     14  C   UNL     1       8.084   7.898  18.156  0.00  0.00    +0.000 C 
BRANCH  14  15
ATOM     15  C   UNL     1       8.435   9.386  18.264  0.00  0.00    +0.000 C 
ATOM     16  O   UNL     1       7.956  10.192  17.469  0.00  0.00    +0.000 OA
ATOM     17  N   UNL     1       9.335   9.683  19.277  0.00  0.00    +0.000 N 
ATOM     18  H   UNL     1       9.811   8.894  19.722  0.00  0.00    +0.000 HD
BRANCH  17  19
ATOM     19  C   UNL     1       9.867  10.961  19.569  0.00  0.00    +0.000 A 
ATOM     20  C   UNL     1      10.725  11.649  18.709  0.00  0.00    +0.000 A 
ATOM     21  C   UNL     1      11.271  12.879  19.086  0.00  0.00    +0.000 A 
ATOM     22  C   UNL     1      10.943  13.428  20.323  0.00  0.00    +0.000 A 
ATOM     23  F   UNL     1      11.493  14.594  20.691  0.00  0.00    +0.000 F 
ATOM     24  C   UNL     1      10.063  12.785  21.178  0.00  0.00    +0.000 A 
ATOM     25  C   UNL     1       9.522  11.562  20.790  0.00  0.00    +0.000 A 
ATOM     26  F   UNL     1       8.677  10.939  21.624  0.00  0.00    +0.000 F 
ENDBRANCH  17  19
ENDBRANCH  14  15
ENDBRANCH   1  14
TORSDOF 6
ENDMDL
MODEL 4
REMARK VINA RESULT:      -7.4      4.176      7.100
REMARK  Name = 
REMARK  8 active torsions:
REMARK  status: ('A' for Active; 'I' for Inactive)
REMARK    1  A    between atoms: C_1  and  C_2
REMARK    2  A    between atoms: C_4  and  C_5
REMARK    3  A    between atoms: C_5  and  O_7
REMARK    4  A    between atoms: O_7  and  C_8
REMARK    5  A    between atoms: C_8  and  C_9
REMARK    6  A    between atoms: N_11  and  C_12
REMARK    7  A    between atoms: C_20  and  C_21
REMARK    8  A    between atoms: N_22  and  C_23
REMARK                            x       y       z     vdW  Elec       q    Type
REMARK                         _______ _______ _______ _____ _____    ______ ____
ROOT
ATOM      1  O   UNL     1       5.967   6.746  17.784  0.00  0.00    +0.000 OA
ENDROOT
BRANCH   1   2
ATOM      2  C   UNL     1       5.859   5.906  18.852  0.00  0.00    +0.000 C 
ATOM      3  O   UNL     1       6.816   5.629  19.568  0.00  0.00    +0.000 OA
BRANCH   2   7
ATOM      4  C   UNL     1       1.127   5.080  20.579  0.00  0.00    +0.000 C 
ATOM      5  C   UNL     1       2.399   4.981  19.817  0.00  0.00    +0.000 A 
ATOM      6  C   UNL     1       3.532   5.762  19.984  0.00  0.00    +0.000 A 
ATOM      7  C   UNL     1       4.516   5.366  19.034  0.00  0.00    +0.000 A 
ATOM      8  C   UNL     1       3.940   4.339  18.290  0.00  0.00    +0.000 A 
ATOM      9  C   UNL     1       4.528   3.529  17.178  0.00  0.00    +0.000 C 
ATOM     10  N   UNL     1       2.662   4.115  18.774  0.00  0.00    +0.000 N 
BRANCH  10  11
ATOM     11  C   UNL     1       1.816   3.063  18.220  0.00  0.00    +0.000 C 
ATOM     12  C   UNL     1       1.805   1.671  18.822  0.00  0.00    +0.000 C 
ATOM     13  C   UNL     1       0.550   2.477  18.796  0.00  0.00    +0.000 C 
ENDBRANCH  10  11
ENDBRANCH   2   7
ENDBRANCH   1   2
BRANCH   1  14
ATOM     14  C   UNL     1       7.205   6.627  17.083  0.00  0.00    +0.000 C 
BRANCH  14  15
ATOM     15  C   UNL     1       7.227   5.441  16.113  0.00  0.00    +0.000 C 
ATOM     16  O   UNL     1       7.859   4.425  16.396  0.00  0.00    +0.000 OA
ATOM     17  N   UNL     1       6.526   5.658  14.936  0.00  0.00    +0.000 N 
ATOM     18  H   UNL     1       6.227   6.618  14.744  0.00  0.00    +0.000 HD
BRANCH  17  19
ATOM     19  C   UNL     1       6.422   4.757  13.851  0.00  0.00    +0.000 A 
ATOM     20  C   UNL     1       5.340   3.892  13.674  0.00  0.00    +0.000 A 
ATOM     21  C   UNL     1       5.330   2.976  12.618  0.00  0.00    +0.000 A 
ATOM     22  C   UNL     1       6.401   2.938  11.729  0.00  0.00    +0.000 A 
ATOM     23  F   UNL     1       6.398   2.038  10.736  0.00  0.00    +0.000 F 
ATOM     24  C   UNL     1       7.468   3.812  11.859  0.00  0.00    +0.000 A 
ATOM     25  C   UNL     1       7.465   4.722  12.913  0.00  0.00    +0.000 A 
ATOM     26  F   UNL     1       8.503   5.562  13.040  0.00  0.00    +0.000 F 
ENDBRANCH  17  19
ENDBRANCH  14  15
ENDBRANCH   1  14
TORSDOF 6
ENDMDL
MODEL 5
REMARK VINA RESULT:      -7.3      5.858      7.366
REMARK  Name = 
REMARK  8 active torsions:
REMARK  status: ('A' for Active; 'I' for Inactive)
REMARK    1  A    between atoms: C_1  and  C_2
REMARK    2  A    between atoms: C_4  and  C_5
REMARK    3  A    between atoms: C_5  and  O_7
REMARK    4  A    between atoms: O_7  and  C_8
REMARK    5  A    between atoms: C_8  and  C_9
REMARK    6  A    between atoms: N_11  and  C_12
REMARK    7  A    between atoms: C_20  and  C_21
REMARK    8  A    between atoms: N_22  and  C_23
REMARK                            x       y       z     vdW  Elec       q    Type
REMARK                         _______ _______ _______ _____ _____    ______ ____
ROOT
ATOM      1  O   UNL     1       7.064   7.711  18.029  0.00  0.00    +0.000 OA
ENDROOT
BRANCH   1   2
ATOM      2  C   UNL     1       6.807   6.580  17.312  0.00  0.00    +0.000 C 
ATOM      3  O   UNL     1       7.387   6.322  16.262  0.00  0.00    +0.000 OA
BRANCH   2   7
ATOM      4  C   UNL     1       4.387   2.740  19.649  0.00  0.00    +0.000 C 
ATOM      5  C   UNL     1       4.680   4.012  18.937  0.00  0.00    +0.000 A 
ATOM      6  C   UNL     1       5.922   4.462  18.516  0.00  0.00    +0.000 A 
ATOM      7  C   UNL     1       5.772   5.739  17.904  0.00  0.00    +0.000 A 
ATOM      8  C   UNL     1       4.414   6.044  17.980  0.00  0.00    +0.000 A 
ATOM      9  C   UNL     1       3.683   7.244  17.469  0.00  0.00    +0.000 C 
ATOM     10  N   UNL     1       3.766   4.991  18.604  0.00  0.00    +0.000 N 
BRANCH  10  11
ATOM     11  C   UNL     1       2.319   4.998  18.793  0.00  0.00    +0.000 C 
ATOM     12  C   UNL     1       1.410   4.184  17.894  0.00  0.00    +0.000 C 
ATOM     13  C   UNL     1       1.442   3.908  19.359  0.00  0.00    +0.000 C 
ENDBRANCH  10  11
ENDBRANCH   2   7
ENDBRANCH   1   2
BRANCH   1  14
ATOM     14  C   UNL     1       8.367   8.248  17.805  0.00  0.00    +0.000 C 
BRANCH  14  15
ATOM     15  C   UNL     1       8.513   9.687  18.311  0.00  0.00    +0.000 C 
ATOM     16  O   UNL     1       7.976  10.611  17.702  0.00  0.00    +0.000 OA
ATOM     17  N   UNL     1       9.307   9.814  19.440  0.00  0.00    +0.000 N 
ATOM     18  H   UNL     1       9.857   8.996  19.715  0.00  0.00    +0.000 HD
BRANCH  17  19
ATOM     19  C   UNL     1       9.647  11.026  20.086  0.00  0.00    +0.000 A 
ATOM     20  C   UNL     1       8.990  11.500  21.223  0.00  0.00    +0.000 A 
ATOM     21  C   UNL     1       9.329  12.739  21.773  0.00  0.00    +0.000 A 
ATOM     22  C   UNL     1      10.340  13.498  21.190  0.00  0.00    +0.000 A 
ATOM     23  F   UNL     1      10.641  14.698  21.706  0.00  0.00    +0.000 F 
ATOM     24  C   UNL     1      11.035  13.033  20.085  0.00  0.00    +0.000 A 
ATOM     25  C   UNL     1      10.691  11.795  19.548  0.00  0.00    +0.000 A 
ATOM     26  F   UNL     1      11.360  11.352  18.474  0.00  0.00    +0.000 F 
ENDBRANCH  17  19
ENDBRANCH  14  15
ENDBRANCH   1  14
TORSDOF 6
ENDMDL
MODEL 6
REMARK VINA RESULT:      -7.3      5.159      6.874
REMARK  Name = 
REMARK  8 active torsions:
REMARK  status: ('A' for Active; 'I' for Inactive)
REMARK    1  A    between atoms: C_1  and  C_2
REMARK    2  A    between atoms: C_4  and  C_5
REMARK    3  A    between atoms: C_5  and  O_7
REMARK    4  A    between atoms: O_7  and  C_8
REMARK    5  A    between atoms: C_8  and  C_9
REMARK    6  A    between atoms: N_11  and  C_12
REMARK    7  A    between atoms: C_20  and  C_21
REMARK    8  A    between atoms: N_22  and  C_23
REMARK                            x       y       z     vdW  Elec       q    Type
REMARK                         _______ _______ _______ _____ _____    ______ ____
ROOT
ATOM      1  O   UNL     1       7.568   6.206  17.133  0.00  0.00    +0.000 OA
ENDROOT
BRANCH   1   2
ATOM      2  C   UNL     1       6.255   6.149  16.768  0.00  0.00    +0.000 C 
ATOM      3  O   UNL     1       5.835   6.681  15.746  0.00  0.00    +0.000 OA
BRANCH   2   7
ATOM      4  C   UNL     1       4.458   2.593  19.959  0.00  0.00    +0.000 C 
ATOM      5  C   UNL     1       4.601   3.823  19.137  0.00  0.00    +0.000 A 
ATOM      6  C   UNL     1       5.653   4.141  18.292  0.00  0.00    +0.000 A 
ATOM      7  C   UNL     1       5.419   5.423  17.718  0.00  0.00    +0.000 A 
ATOM      8  C   UNL     1       4.210   5.867  18.250  0.00  0.00    +0.000 A 
ATOM      9  C   UNL     1       3.462   7.133  17.976  0.00  0.00    +0.000 C 
ATOM     10  N   UNL     1       3.726   4.890  19.104  0.00  0.00    +0.000 N 
BRANCH  10  11
ATOM     11  C   UNL     1       2.444   5.047  19.785  0.00  0.00    +0.000 C 
ATOM     12  C   UNL     1       1.276   4.133  19.471  0.00  0.00    +0.000 C 
ATOM     13  C   UNL     1       1.837   4.171  20.853  0.00  0.00    +0.000 C 
ENDBRANCH  10  11
ENDBRANCH   2   7
ENDBRANCH   1   2
BRANCH   1  14
ATOM     14  C   UNL     1       7.794   6.919  18.349  0.00  0.00    +0.000 C 
BRANCH  14  15
ATOM     15  C   UNL     1       8.116   8.400  18.119  0.00  0.00    +0.000 C 
ATOM     16  O   UNL     1       7.695   8.973  17.116  0.00  0.00    +0.000 OA
ATOM     17  N   UNL     1       8.921   8.963  19.097  0.00  0.00    +0.000 N 
ATOM     18  H   UNL     1       9.368   8.322  19.757  0.00  0.00    +0.000 HD
BRANCH  17  19
ATOM     19  C   UNL     1       9.410  10.291  19.109  0.00  0.00    +0.000 A 
ATOM     20  C   UNL     1       9.834  10.963  17.961  0.00  0.00    +0.000 A 
ATOM     21  C   UNL     1      10.371  12.250  18.050  0.00  0.00    +0.000 A 
ATOM     22  C   UNL     1      10.468  12.871  19.292  0.00  0.00    +0.000 A 
ATOM     23  F   UNL     1      11.010  14.094  19.374  0.00  0.00    +0.000 F 
ATOM     24  C   UNL     1      10.017  12.243  20.442  0.00  0.00    +0.000 A 
ATOM     25  C   UNL     1       9.481  10.962  20.340  0.00  0.00    +0.000 A 
ATOM     26  F   UNL     1       9.053  10.354  21.456  0.00  0.00    +0.000 F 
ENDBRANCH  17  19
ENDBRANCH  14  15
ENDBRANCH   1  14
TORSDOF 6
ENDMDL
MODEL 7
REMARK VINA RESULT:      -7.3      4.165      7.327
REMARK  Name = 
REMARK  8 active torsions:
REMARK  status: ('A' for Active; 'I' for Inactive)
REMARK    1  A    between atoms: C_1  and  C_2
REMARK    2  A    between atoms: C_4  and  C_5
REMARK    3  A    between atoms: C_5  and  O_7
REMARK    4  A    between atoms: O_7  and  C_8
REMARK    5  A    between atoms: C_8  and  C_9
REMARK    6  A    between atoms: N_11  and  C_12
REMARK    7  A    between atoms: C_20  and  C_21
REMARK    8  A    between atoms: N_22  and  C_23
REMARK                            x       y       z     vdW  Elec       q    Type
REMARK                         _______ _______ _______ _____ _____    ______ ____
ROOT
ATOM      1  O   UNL     1       6.243   6.530  18.156  0.00  0.00    +0.000 OA
ENDROOT
BRANCH   1   2
ATOM      2  C   UNL     1       4.968   6.659  17.689  0.00  0.00    +0.000 C 
ATOM      3  O   UNL     1       4.589   7.658  17.085  0.00  0.00    +0.000 OA
BRANCH   2   7
ATOM      4  C   UNL     1       2.921   1.984  17.779  0.00  0.00    +0.000 C 
ATOM      5  C   UNL     1       3.185   3.425  18.031  0.00  0.00    +0.000 A 
ATOM      6  C   UNL     1       4.192   4.196  17.472  0.00  0.00    +0.000 A 
ATOM      7  C   UNL     1       4.117   5.516  18.000  0.00  0.00    +0.000 A 
ATOM      8  C   UNL     1       3.050   5.511  18.896  0.00  0.00    +0.000 A 
ATOM      9  C   UNL     1       2.495   6.633  19.716  0.00  0.00    +0.000 C 
ATOM     10  N   UNL     1       2.495   4.242  18.903  0.00  0.00    +0.000 N 
BRANCH  10  11
ATOM     11  C   UNL     1       1.324   3.933  19.719  0.00  0.00    +0.000 C 
ATOM     12  C   UNL     1       0.584   2.620  19.557  0.00  0.00    +0.000 C 
ATOM     13  C   UNL     1       1.211   2.960  20.866  0.00  0.00    +0.000 C 
ENDBRANCH  10  11
ENDBRANCH   2   7
ENDBRANCH   1   2
BRANCH   1  14
ATOM     14  C   UNL     1       7.240   6.653  17.141  0.00  0.00    +0.000 C 
BRANCH  14  15
ATOM     15  C   UNL     1       7.251   5.465  16.173  0.00  0.00    +0.000 C 
ATOM     16  O   UNL     1       7.872   4.443  16.457  0.00  0.00    +0.000 OA
ATOM     17  N   UNL     1       6.554   5.689  14.995  0.00  0.00    +0.000 N 
ATOM     18  H   UNL     1       6.266   6.651  14.801  0.00  0.00    +0.000 HD
BRANCH  17  19
ATOM     19  C   UNL     1       6.442   4.787  13.910  0.00  0.00    +0.000 A 
ATOM     20  C   UNL     1       5.386   3.884  13.769  0.00  0.00    +0.000 A 
ATOM     21  C   UNL     1       5.370   2.972  12.711  0.00  0.00    +0.000 A 
ATOM     22  C   UNL     1       6.407   2.974  11.783  0.00  0.00    +0.000 A 
ATOM     23  F   UNL     1       6.400   2.077  10.787  0.00  0.00    +0.000 F 
ATOM     24  C   UNL     1       7.447   3.885  11.877  0.00  0.00    +0.000 A 
ATOM     25  C   UNL     1       7.451   4.792  12.934  0.00  0.00    +0.000 A 
ATOM     26  F   UNL     1       8.463   5.667  13.027  0.00  0.00    +0.000 F 
ENDBRANCH  17  19
ENDBRANCH  14  15
ENDBRANCH   1  14
TORSDOF 6
ENDMDL
MODEL 8
REMARK VINA RESULT:      -7.2      4.929      6.992
REMARK  Name = 
REMARK  8 active torsions:
REMARK  status: ('A' for Active; 'I' for Inactive)
REMARK    1  A    between atoms: C_1  and  C_2
REMARK    2  A    between atoms: C_4  and  C_5
REMARK    3  A    between atoms: C_5  and  O_7
REMARK    4  A    between atoms: O_7  and  C_8
REMARK    5  A    between atoms: C_8  and  C_9
REMARK    6  A    between atoms: N_11  and  C_12
REMARK    7  A    between atoms: C_20  and  C_21
REMARK    8  A    between atoms: N_22  and  C_23
REMARK                            x       y       z     vdW  Elec       q    Type
REMARK                         _______ _______ _______ _____ _____    ______ ____
ROOT
ATOM      1  O   UNL     1       6.645   6.486  17.758  0.00  0.00    +0.000 OA
ENDROOT
BRANCH   1   2
ATOM      2  C   UNL     1       5.312   6.301  17.534  0.00  0.00    +0.000 C 
ATOM      3  O   UNL     1       4.700   6.921  16.671  0.00  0.00    +0.000 OA
BRANCH   2   7
ATOM      4  C   UNL     1       4.343   2.038  20.169  0.00  0.00    +0.000 C 
ATOM      5  C   UNL     1       4.254   3.408  19.602  0.00  0.00    +0.000 A 
ATOM      6  C   UNL     1       5.125   3.990  18.692  0.00  0.00    +0.000 A 
ATOM      7  C   UNL     1       4.702   5.324  18.430  0.00  0.00    +0.000 A 
ATOM      8  C   UNL     1       3.568   5.528  19.213  0.00  0.00    +0.000 A 
ATOM      9  C   UNL     1       2.691   6.736  19.314  0.00  0.00    +0.000 C 
ATOM     10  N   UNL     1       3.307   4.362  19.914  0.00  0.00    +0.000 N 
BRANCH  10  11
ATOM     11  C   UNL     1       2.148   4.252  20.794  0.00  0.00    +0.000 C 
ATOM     12  C   UNL     1       0.886   3.546  20.338  0.00  0.00    +0.000 C 
ATOM     13  C   UNL     1       1.636   3.032  21.520  0.00  0.00    +0.000 C 
ENDBRANCH  10  11
ENDBRANCH   2   7
ENDBRANCH   1   2
BRANCH   1  14
ATOM     14  C   UNL     1       7.184   7.629  17.095  0.00  0.00    +0.000 C 
BRANCH  14  15
ATOM     15  C   UNL     1       8.109   8.457  17.993  0.00  0.00    +0.000 C 
ATOM     16  O   UNL     1       8.710   7.918  18.921  0.00  0.00    +0.000 OA
ATOM     17  N   UNL     1       8.147   9.806  17.677  0.00  0.00    +0.000 N 
ATOM     18  H   UNL     1       7.441  10.150  17.021  0.00  0.00    +0.000 HD
BRANCH  17  19
ATOM     19  C   UNL     1       8.876  10.802  18.369  0.00  0.00    +0.000 A 
ATOM     20  C   UNL     1       9.707  10.528  19.456  0.00  0.00    +0.000 A 
ATOM     21  C   UNL     1      10.345  11.566  20.140  0.00  0.00    +0.000 A 
ATOM     22  C   UNL     1      10.162  12.881  19.723  0.00  0.00    +0.000 A 
ATOM     23  F   UNL     1      10.754  13.874  20.402  0.00  0.00    +0.000 F 
ATOM     24  C   UNL     1       9.374  13.178  18.623  0.00  0.00    +0.000 A 
ATOM     25  C   UNL     1       8.746  12.135  17.947  0.00  0.00    +0.000 A 
ATOM     26  F   UNL     1       7.977  12.426  16.887  0.00  0.00    +0.000 F 
ENDBRANCH  17  19
ENDBRANCH  14  15
ENDBRANCH   1  14
TORSDOF 6
ENDMDL
MODEL 9
REMARK VINA RESULT:      -7.2      2.357      4.553
REMARK  Name = 
REMARK  8 active torsions:
REMARK  status: ('A' for Active; 'I' for Inactive)
REMARK    1  A    between atoms: C_1  and  C_2
REMARK    2  A    between atoms: C_4  and  C_5
REMARK    3  A    between atoms: C_5  and  O_7
REMARK    4  A    between atoms: O_7  and  C_8
REMARK    5  A    between atoms: C_8  and  C_9
REMARK    6  A    between atoms: N_11  and  C_12
REMARK    7  A    between atoms: C_20  and  C_21
REMARK    8  A    between atoms: N_22  and  C_23
REMARK                            x       y       z     vdW  Elec       q    Type
REMARK                         _______ _______ _______ _____ _____    ______ ____
ROOT
ATOM      1  O   UNL     1       4.553   5.098  15.524  0.00  0.00    +0.000 OA
ENDROOT
BRANCH   1   2
ATOM      2  C   UNL     1       5.005   4.062  16.286  0.00  0.00    +0.000 C 
ATOM      3  O   UNL     1       6.107   3.552  16.112  0.00  0.00    +0.000 OA
BRANCH   2   7
ATOM      4  C   UNL     1       0.793   2.302  18.570  0.00  0.00    +0.000 C 
ATOM      5  C   UNL     1       2.154   2.846  18.323  0.00  0.00    +0.000 A 
ATOM      6  C   UNL     1       2.716   3.156  17.094  0.00  0.00    +0.000 A 
ATOM      7  C   UNL     1       4.047   3.619  17.293  0.00  0.00    +0.000 A 
ATOM      8  C   UNL     1       4.270   3.567  18.667  0.00  0.00    +0.000 A 
ATOM      9  C   UNL     1       5.484   3.965  19.446  0.00  0.00    +0.000 C 
ATOM     10  N   UNL     1       3.118   3.100  19.278  0.00  0.00    +0.000 N 
BRANCH  10  11
ATOM     11  C   UNL     1       3.027   2.975  20.729  0.00  0.00    +0.000 C 
ATOM     12  C   UNL     1       2.172   3.927  21.543  0.00  0.00    +0.000 C 
ATOM     13  C   UNL     1       1.872   2.466  21.556  0.00  0.00    +0.000 C 
ENDBRANCH  10  11
ENDBRANCH   2   7
ENDBRANCH   1   2
BRANCH   1  14
ATOM     14  C   UNL     1       5.184   6.344  15.818  0.00  0.00    +0.000 C 
BRANCH  14  15
ATOM     15  C   UNL     1       4.714   6.951  17.144  0.00  0.00    +0.000 C 
ATOM     16  O   UNL     1       5.534   7.242  18.014  0.00  0.00    +0.000 OA
ATOM     17  N   UNL     1       3.338   7.082  17.251  0.00  0.00    +0.000 N 
ATOM     18  H   UNL     1       2.770   6.609  16.544  0.00  0.00    +0.000 HD
BRANCH  17  19
ATOM     19  C   UNL     1       2.633   7.564  18.379  0.00  0.00    +0.000 A 
ATOM     20  C   UNL     1       2.496   6.839  19.564  0.00  0.00    +0.000 A 
ATOM     21  C   UNL     1       1.728   7.342  20.618  0.00  0.00    +0.000 A 
ATOM     22  C   UNL     1       1.109   8.582  20.489  0.00  0.00    +0.000 A 
ATOM     23  F   UNL     1       0.351   9.046  21.492  0.00  0.00    +0.000 F 
ATOM     24  C   UNL     1       1.262   9.340  19.339  0.00  0.00    +0.000 A 
ATOM     25  C   UNL     1       2.032   8.830  18.297  0.00  0.00    +0.000 A 
ATOM     26  F   UNL     1       2.172   9.562  17.182  0.00  0.00    +0.000 F 
ENDBRANCH  17  19
ENDBRANCH  14  15
ENDBRANCH   1  14
TORSDOF 6
ENDMDL
