MODEL 1
REMARK VINA RESULT:      -7.9      0.000      0.000
REMARK  Name = 
REMARK  4 active torsions:
REMARK  status: ('A' for Active; 'I' for Inactive)
REMARK    1  A    between atoms: C_2  and  C_15
REMARK    2  A    between atoms: N_3  and  C_4
REMARK    3  A    between atoms: N_7  and  C_8
REMARK    4  A    between atoms: C_8  and  C_9
REMARK                            x       y       z     vdW  Elec       q    Type
REMARK                         _______ _______ _______ _____ _____    ______ ____
ROOT
ATOM      1  O   UNL     1       3.565   7.181  17.965  0.00  0.00    +0.000 OA
ATOM      2  C   UNL     1       3.891   6.037  18.253  0.00  0.00    +0.000 C 
ATOM      3  N   UNL     1       5.078   5.451  17.853  0.00  0.00    +0.000 N 
ATOM      4  H   UNL     1       5.188   4.455  18.005  0.00  0.00    +0.000 HD
ENDROOT
BRANCH   2   5
ATOM      5  C   UNL     1       2.989   5.212  19.097  0.00  0.00    +0.000 A 
ATOM      6  C   UNL     1       2.208   5.841  20.080  0.00  0.00    +0.000 A 
ATOM      7  C   UNL     1       1.324   5.098  20.882  0.00  0.00    +0.000 A 
ATOM      8  C   UNL     1       1.199   3.719  20.702  0.00  0.00    +0.000 A 
ATOM      9  C   UNL     1       1.976   3.125  19.727  0.00  0.00    +0.000 A 
ATOM     10  C   UNL     1       2.856   3.844  18.949  0.00  0.00    +0.000 A 
ATOM     11  O   UNL     1       3.516   3.045  18.061  0.00  0.00    +0.000 OA
ATOM     12  C   UNL     1       2.949   1.756  18.364  0.00  0.00    +0.000 C 
ATOM     13  O   UNL     1       1.969   1.799  19.418  0.00  0.00    +0.000 OA
ENDBRANCH   2   5
BRANCH   3  14
ATOM     14  C   UNL     1       5.993   6.139  16.945  0.00  0.00    +0.000 C 
ATOM     15  C   UNL     1       5.323   6.431  15.601  0.00  0.00    +0.000 C 
ATOM     16  C   UNL     1       5.223   5.183  14.727  0.00  0.00    +0.000 C 
ATOM     17  N   UNL     1       6.546   4.575  14.526  0.00  0.00    +0.000 NA
ATOM     18  C   UNL     1       7.158   4.176  15.799  0.00  0.00    +0.000 C 
ATOM     19  C   UNL     1       7.297   5.361  16.753  0.00  0.00    +0.000 C 
BRANCH  17  20
ATOM     20  C   UNL     1       6.480   3.432  13.576  0.00  0.00    +0.000 C 
BRANCH  20  21
ATOM     21  C   UNL     1       6.646   3.648  12.052  0.00  0.00    +0.000 C 
ATOM     22  F   UNL     1       7.328   4.775  11.740  0.00  0.00    +0.000 F 
ATOM     23  F   UNL     1       7.310   2.613  11.488  0.00  0.00    +0.000 F 
ATOM     24  F   UNL     1       5.441   3.735  11.444  0.00  0.00    +0.000 F 
ENDBRANCH  20  21
ENDBRANCH  17  20
ENDBRANCH   3  14
TORSDOF 4
ENDMDL
MODEL 2
REMARK VINA RESULT:      -7.6      1.326      1.646
REMARK  Name = 
REMARK  4 active torsions:
REMARK  status: ('A' for Active; 'I' for Inactive)
REMARK    1  A    between atoms: C_2  and  C_15
REMARK    2  A    between atoms: N_3  and  C_4
REMARK    3  A    between atoms: N_7  and  C_8
REMARK    4  A    between atoms: C_8  and  C_9
REMARK                            x       y       z     vdW  Elec       q    Type
REMARK                         _______ _______ _______ _____ _____    ______ ____
ROOT
ATOM      1  O   UNL     1       3.533   6.968  18.706  0.00  0.00    +0.000 OA
ATOM      2  C   UNL     1       3.904   5.824  18.941  0.00  0.00    +0.000 C 
ATOM      3  N   UNL     1       5.221   5.411  18.866  0.00  0.00    +0.000 N 
ATOM      4  H   UNL     1       5.408   4.417  18.924  0.00  0.00    +0.000 HD
ENDROOT
BRANCH   2   5
ATOM      5  C   UNL     1       2.905   4.805  19.353  0.00  0.00    +0.000 A 
ATOM      6  C   UNL     1       1.805   5.201  20.131  0.00  0.00    +0.000 A 
ATOM      7  C   UNL     1       0.826   4.269  20.519  0.00  0.00    +0.000 A 
ATOM      8  C   UNL     1       0.927   2.935  20.123  0.00  0.00    +0.000 A 
ATOM      9  C   UNL     1       2.017   2.571  19.357  0.00  0.00    +0.000 A 
ATOM     10  C   UNL     1       2.988   3.474  18.986  0.00  0.00    +0.000 A 
ATOM     11  O   UNL     1       3.967   2.887  18.239  0.00  0.00    +0.000 OA
ATOM     12  C   UNL     1       3.498   1.526  18.178  0.00  0.00    +0.000 C 
ATOM     13  O   UNL     1       2.260   1.319  18.883  0.00  0.00    +0.000 OA
ENDBRANCH   2   5
BRANCH   3  14
ATOM     14  C   UNL     1       6.269   6.307  18.382  0.00  0.00    +0.000 C 
ATOM     15  C   UNL     1       5.803   7.090  17.153  0.00  0.00    +0.000 C 
ATOM     16  C   UNL     1       5.806   6.230  15.891  0.00  0.00    +0.000 C 
ATOM     17  N   UNL     1       7.133   5.641  15.660  0.00  0.00    +0.000 NA
ATOM     18  C   UNL     1       7.550   4.787  16.778  0.00  0.00    +0.000 C 
ATOM     19  C   UNL     1       7.573   5.558  18.097  0.00  0.00    +0.000 C 
BRANCH  17  20
ATOM     20  C   UNL     1       7.182   4.903  14.368  0.00  0.00    +0.000 C 
BRANCH  20  21
ATOM     21  C   UNL     1       6.120   3.834  14.016  0.00  0.00    +0.000 C 
ATOM     22  F   UNL     1       5.880   2.962  15.024  0.00  0.00    +0.000 F 
ATOM     23  F   UNL     1       4.939   4.413  13.703  0.00  0.00    +0.000 F 
ATOM     24  F   UNL     1       6.509   3.103  12.946  0.00  0.00    +0.000 F 
ENDBRANCH  20  21
ENDBRANCH  17  20
ENDBRANCH   3  14
TORSDOF 4
ENDMDL
MODEL 3
REMARK VINA RESULT:      -7.6      0.935      1.212
REMARK  Name = 
REMARK  4 active torsions:
REMARK  status: ('A' for Active; 'I' for Inactive)
REMARK    1  A    between atoms: C_2  and  C_15
REMARK    2  A    between atoms: N_3  and  C_4
REMARK    3  A    between atoms: N_7  and  C_8
REMARK    4  A    between atoms: C_8  and  C_9
REMARK                            x       y       z     vdW  Elec       q    Type
REMARK                         _______ _______ _______ _____ _____    ______ ____
ROOT
ATOM      1  O   UNL     1       3.492   7.152  18.156  0.00  0.00    +0.000 OA
ATOM      2  C   UNL     1       3.950   6.060  18.468  0.00  0.00    +0.000 C 
ATOM      3  N   UNL     1       5.160   5.573  18.009  0.00  0.00    +0.000 N 
ATOM      4  H   UNL     1       5.379   4.601  18.195  0.00  0.00    +0.000 HD
ENDROOT
BRANCH   2   5
ATOM      5  C   UNL     1       3.195   5.195  19.409  0.00  0.00    +0.000 A 
ATOM      6  C   UNL     1       1.943   5.626  19.878  0.00  0.00    +0.000 A 
ATOM      7  C   UNL     1       1.186   4.823  20.751  0.00  0.00    +0.000 A 
ATOM      8  C   UNL     1       1.665   3.576  21.154  0.00  0.00    +0.000 A 
ATOM      9  C   UNL     1       2.897   3.174  20.677  0.00  0.00    +0.000 A 
ATOM     10  C   UNL     1       3.652   3.961  19.836  0.00  0.00    +0.000 A 
ATOM     11  O   UNL     1       4.830   3.361  19.502  0.00  0.00    +0.000 OA
ATOM     12  C   UNL     1       4.727   2.116  20.220  0.00  0.00    +0.000 C 
ATOM     13  O   UNL     1       3.502   1.989  20.965  0.00  0.00    +0.000 OA
ENDBRANCH   2   5
BRANCH   3  14
ATOM     14  C   UNL     1       5.938   6.300  17.008  0.00  0.00    +0.000 C 
ATOM     15  C   UNL     1       5.156   6.451  15.702  0.00  0.00    +0.000 C 
ATOM     16  C   UNL     1       5.131   5.154  14.896  0.00  0.00    +0.000 C 
ATOM     17  N   UNL     1       6.494   4.673  14.632  0.00  0.00    +0.000 NA
ATOM     18  C   UNL     1       7.225   4.407  15.876  0.00  0.00    +0.000 C 
ATOM     19  C   UNL     1       7.301   5.649  16.763  0.00  0.00    +0.000 C 
BRANCH  17  20
ATOM     20  C   UNL     1       6.487   3.480  13.743  0.00  0.00    +0.000 C 
BRANCH  20  21
ATOM     21  C   UNL     1       6.524   3.630  12.203  0.00  0.00    +0.000 C 
ATOM     22  F   UNL     1       5.298   3.778  11.647  0.00  0.00    +0.000 F 
ATOM     23  F   UNL     1       7.257   4.709  11.841  0.00  0.00    +0.000 F 
ATOM     24  F   UNL     1       7.090   2.544  11.627  0.00  0.00    +0.000 F 
ENDBRANCH  20  21
ENDBRANCH  17  20
ENDBRANCH   3  14
TORSDOF 4
ENDMDL
MODEL 4
REMARK VINA RESULT:      -7.5      1.256      1.468
REMARK  Name = 
REMARK  4 active torsions:
REMARK  status: ('A' for Active; 'I' for Inactive)
REMARK    1  A    between atoms: C_2  and  C_15
REMARK    2  A    between atoms: N_3  and  C_4
REMARK    3  A    between atoms: N_7  and  C_8
REMARK    4  A    between atoms: C_8  and  C_9
REMARK                            x       y       z     vdW  Elec       q    Type
REMARK                         _______ _______ _______ _____ _____    ______ ____
ROOT
ATOM      1  O   UNL     1       2.942   6.926  18.906  0.00  0.00    +0.000 OA
ATOM      2  C   UNL     1       3.522   5.848  18.946  0.00  0.00    +0.000 C 
ATOM      3  N   UNL     1       4.816   5.654  18.497  0.00  0.00    +0.000 N 
ATOM      4  H   UNL     1       5.152   4.701  18.425  0.00  0.00    +0.000 HD
ENDROOT
BRANCH   2   5
ATOM      5  C   UNL     1       2.829   4.668  19.521  0.00  0.00    +0.000 A 
ATOM      6  C   UNL     1       1.935   4.853  20.588  0.00  0.00    +0.000 A 
ATOM      7  C   UNL     1       1.241   3.763  21.144  0.00  0.00    +0.000 A 
ATOM      8  C   UNL     1       1.422   2.478  20.631  0.00  0.00    +0.000 A 
ATOM      9  C   UNL     1       2.305   2.322  19.580  0.00  0.00    +0.000 A 
ATOM     10  C   UNL     1       3.000   3.382  19.042  0.00  0.00    +0.000 A 
ATOM     11  O   UNL     1       3.814   2.987  18.021  0.00  0.00    +0.000 OA
ATOM     12  C   UNL     1       3.547   1.572  17.976  0.00  0.00    +0.000 C 
ATOM     13  O   UNL     1       2.588   1.144  18.961  0.00  0.00    +0.000 OA
ENDBRANCH   2   5
BRANCH   3  14
ATOM     14  C   UNL     1       5.554   6.723  17.829  0.00  0.00    +0.000 C 
ATOM     15  C   UNL     1       4.933   7.060  16.472  0.00  0.00    +0.000 C 
ATOM     16  C   UNL     1       5.273   6.016  15.411  0.00  0.00    +0.000 C 
ATOM     17  N   UNL     1       6.727   5.847  15.289  0.00  0.00    +0.000 NA
ATOM     18  C   UNL     1       7.331   5.406  16.552  0.00  0.00    +0.000 C 
ATOM     19  C   UNL     1       7.040   6.387  17.687  0.00  0.00    +0.000 C 
BRANCH  17  20
ATOM     20  C   UNL     1       7.075   4.925  14.173  0.00  0.00    +0.000 C 
BRANCH  20  21
ATOM     21  C   UNL     1       6.121   3.781  13.753  0.00  0.00    +0.000 C 
ATOM     22  F   UNL     1       4.912   4.219  13.328  0.00  0.00    +0.000 F 
ATOM     23  F   UNL     1       6.656   3.052  12.748  0.00  0.00    +0.000 F 
ATOM     24  F   UNL     1       5.893   2.940  14.788  0.00  0.00    +0.000 F 
ENDBRANCH  20  21
ENDBRANCH  17  20
ENDBRANCH   3  14
TORSDOF 4
ENDMDL
MODEL 5
REMARK VINA RESULT:      -7.3      3.106      4.745
REMARK  Name = 
REMARK  4 active torsions:
REMARK  status: ('A' for Active; 'I' for Inactive)
REMARK    1  A    between atoms: C_2  and  C_15
REMARK    2  A    between atoms: N_3  and  C_4
REMARK    3  A    between atoms: N_7  and  C_8
REMARK    4  A    between atoms: C_8  and  C_9
REMARK                            x       y       z     vdW  Elec       q    Type
REMARK                         _______ _______ _______ _____ _____    ______ ____
ROOT
ATOM      1  O   UNL     1       1.943   5.782  20.570  0.00  0.00    +0.000 OA
ATOM      2  C   UNL     1       2.511   6.496  19.753  0.00  0.00    +0.000 C 
ATOM      3  N   UNL     1       3.636   6.112  19.046  0.00  0.00    +0.000 N 
ATOM      4  H   UNL     1       4.125   6.822  18.514  0.00  0.00    +0.000 HD
ENDROOT
BRANCH   2   5
ATOM      5  C   UNL     1       1.974   7.851  19.470  0.00  0.00    +0.000 A 
ATOM      6  C   UNL     1       2.038   8.351  18.159  0.00  0.00    +0.000 A 
ATOM      7  C   UNL     1       1.518   9.620  17.846  0.00  0.00    +0.000 A 
ATOM      8  C   UNL     1       0.915  10.397  18.836  0.00  0.00    +0.000 A 
ATOM      9  C   UNL     1       0.862   9.882  20.117  0.00  0.00    +0.000 A 
ATOM     10  C   UNL     1       1.384   8.648  20.434  0.00  0.00    +0.000 A 
ATOM     11  O   UNL     1       1.222   8.354  21.756  0.00  0.00    +0.000 OA
ATOM     12  C   UNL     1       0.539   9.532  22.226  0.00  0.00    +0.000 C 
ATOM     13  O   UNL     1       0.304  10.504  21.190  0.00  0.00    +0.000 OA
ENDBRANCH   2   5
BRANCH   3  14
ATOM     14  C   UNL     1       4.301   4.839  19.314  0.00  0.00    +0.000 C 
ATOM     15  C   UNL     1       5.822   4.981  19.235  0.00  0.00    +0.000 C 
ATOM     16  C   UNL     1       6.316   5.058  17.792  0.00  0.00    +0.000 C 
ATOM     17  N   UNL     1       5.863   3.893  17.020  0.00  0.00    +0.000 NA
ATOM     18  C   UNL     1       4.399   3.803  16.982  0.00  0.00    +0.000 C 
ATOM     19  C   UNL     1       3.802   3.728  18.387  0.00  0.00    +0.000 C 
BRANCH  17  20
ATOM     20  C   UNL     1       6.441   3.892  15.648  0.00  0.00    +0.000 C 
BRANCH  20  21
ATOM     21  C   UNL     1       5.914   4.856  14.558  0.00  0.00    +0.000 C 
ATOM     22  F   UNL     1       5.313   5.960  15.061  0.00  0.00    +0.000 F 
ATOM     23  F   UNL     1       6.922   5.281  13.762  0.00  0.00    +0.000 F 
ATOM     24  F   UNL     1       5.006   4.239  13.767  0.00  0.00    +0.000 F 
ENDBRANCH  20  21
ENDBRANCH  17  20
ENDBRANCH   3  14
TORSDOF 4
ENDMDL
MODEL 6
REMARK VINA RESULT:      -7.2      2.844      4.571
REMARK  Name = 
REMARK  4 active torsions:
REMARK  status: ('A' for Active; 'I' for Inactive)
REMARK    1  A    between atoms: C_2  and  C_15
REMARK    2  A    between atoms: N_3  and  C_4
REMARK    3  A    between atoms: N_7  and  C_8
REMARK    4  A    between atoms: C_8  and  C_9
REMARK                            x       y       z     vdW  Elec       q    Type
REMARK                         _______ _______ _______ _____ _____    ______ ____
ROOT
ATOM      1  O   UNL     1       1.553   5.384  20.777  0.00  0.00    +0.000 OA
ATOM      2  C   UNL     1       2.127   6.370  20.331  0.00  0.00    +0.000 C 
ATOM      3  N   UNL     1       3.317   6.315  19.628  0.00  0.00    +0.000 N 
ATOM      4  H   UNL     1       3.794   7.189  19.438  0.00  0.00    +0.000 HD
ENDROOT
BRANCH   2   5
ATOM      5  C   UNL     1       1.526   7.714  20.525  0.00  0.00    +0.000 A 
ATOM      6  C   UNL     1       0.901   8.012  21.747  0.00  0.00    +0.000 A 
ATOM      7  C   UNL     1       0.341   9.282  21.978  0.00  0.00    +0.000 A 
ATOM      8  C   UNL     1       0.413  10.272  20.997  0.00  0.00    +0.000 A 
ATOM      9  C   UNL     1       1.035   9.954  19.805  0.00  0.00    +0.000 A 
ATOM     10  C   UNL     1       1.570   8.708  19.566  0.00  0.00    +0.000 A 
ATOM     11  O   UNL     1       2.126   8.626  18.322  0.00  0.00    +0.000 OA
ATOM     12  C   UNL     1       1.886   9.954  17.817  0.00  0.00    +0.000 C 
ATOM     13  O   UNL     1       1.196  10.803  18.754  0.00  0.00    +0.000 OA
ENDBRANCH   2   5
BRANCH   3  14
ATOM     14  C   UNL     1       4.041   5.057  19.462  0.00  0.00    +0.000 C 
ATOM     15  C   UNL     1       5.550   5.292  19.386  0.00  0.00    +0.000 C 
ATOM     16  C   UNL     1       5.977   5.842  18.026  0.00  0.00    +0.000 C 
ATOM     17  N   UNL     1       5.534   4.957  16.940  0.00  0.00    +0.000 NA
ATOM     18  C   UNL     1       4.074   4.811  16.920  0.00  0.00    +0.000 C 
ATOM     19  C   UNL     1       3.544   4.270  18.247  0.00  0.00    +0.000 C 
BRANCH  17  20
ATOM     20  C   UNL     1       6.050   5.415  15.622  0.00  0.00    +0.000 C 
BRANCH  20  21
ATOM     21  C   UNL     1       6.163   4.440  14.424  0.00  0.00    +0.000 C 
ATOM     22  F   UNL     1       7.105   4.803  13.523  0.00  0.00    +0.000 F 
ATOM     23  F   UNL     1       6.475   3.193  14.846  0.00  0.00    +0.000 F 
ATOM     24  F   UNL     1       4.988   4.360  13.757  0.00  0.00    +0.000 F 
ENDBRANCH  20  21
ENDBRANCH  17  20
ENDBRANCH   3  14
TORSDOF 4
ENDMDL
MODEL 7
REMARK VINA RESULT:      -7.0      5.543      7.184
REMARK  Name = 
REMARK  4 active torsions:
REMARK  status: ('A' for Active; 'I' for Inactive)
REMARK    1  A    between atoms: C_2  and  C_15
REMARK    2  A    between atoms: N_3  and  C_4
REMARK    3  A    between atoms: N_7  and  C_8
REMARK    4  A    between atoms: C_8  and  C_9
REMARK                            x       y       z     vdW  Elec       q    Type
REMARK                         _______ _______ _______ _____ _____    ______ ____
ROOT
ATOM      1  O   UNL     1       2.165   9.124  17.225  0.00  0.00    +0.000 OA
ATOM      2  C   UNL     1       1.805   8.699  18.315  0.00  0.00    +0.000 C 
ATOM      3  N   UNL     1       2.195   7.478  18.833  0.00  0.00    +0.000 N 
ATOM      4  H   UNL     1       1.723   7.145  19.665  0.00  0.00    +0.000 HD
ENDROOT
BRANCH   2   5
ATOM      5  C   UNL     1       0.911   9.529  19.163  0.00  0.00    +0.000 A 
ATOM      6  C   UNL     1      -0.018  10.383  18.544  0.00  0.00    +0.000 A 
ATOM      7  C   UNL     1      -0.898  11.166  19.312  0.00  0.00    +0.000 A 
ATOM      8  C   UNL     1      -0.870  11.096  20.706  0.00  0.00    +0.000 A 
ATOM      9  C   UNL     1       0.051  10.247  21.289  0.00  0.00    +0.000 A 
ATOM     10  C   UNL     1       0.927   9.490  20.544  0.00  0.00    +0.000 A 
ATOM     11  O   UNL     1       1.743   8.735  21.336  0.00  0.00    +0.000 OA
ATOM     12  C   UNL     1       1.278   9.099  22.650  0.00  0.00    +0.000 C 
ATOM     13  O   UNL     1       0.202  10.056  22.628  0.00  0.00    +0.000 OA
ENDBRANCH   2   5
BRANCH   3  14
ATOM     14  C   UNL     1       2.996   6.543  18.045  0.00  0.00    +0.000 C 
ATOM     15  C   UNL     1       2.142   5.383  17.529  0.00  0.00    +0.000 C 
ATOM     16  C   UNL     1       1.837   4.364  18.625  0.00  0.00    +0.000 C 
ATOM     17  N   UNL     1       3.076   3.866  19.238  0.00  0.00    +0.000 NA
ATOM     18  C   UNL     1       3.855   4.950  19.846  0.00  0.00    +0.000 C 
ATOM     19  C   UNL     1       4.208   6.031  18.826  0.00  0.00    +0.000 C 
BRANCH  17  20
ATOM     20  C   UNL     1       2.798   2.782  20.220  0.00  0.00    +0.000 C 
BRANCH  20  21
ATOM     21  C   UNL     1       1.874   3.024  21.438  0.00  0.00    +0.000 C 
ATOM     22  F   UNL     1       2.339   3.972  22.285  0.00  0.00    +0.000 F 
ATOM     23  F   UNL     1       0.643   3.417  21.038  0.00  0.00    +0.000 F 
ATOM     24  F   UNL     1       1.723   1.889  22.160  0.00  0.00    +0.000 F 
ENDBRANCH  20  21
ENDBRANCH  17  20
ENDBRANCH   3  14
TORSDOF 4
ENDMDL
MODEL 8
REMARK VINA RESULT:      -7.0      0.799      1.119
REMARK  Name = 
REMARK  4 active torsions:
REMARK  status: ('A' for Active; 'I' for Inactive)
REMARK    1  A    between atoms: C_2  and  C_15
REMARK    2  A    between atoms: N_3  and  C_4
REMARK    3  A    between atoms: N_7  and  C_8
REMARK    4  A    between atoms: C_8  and  C_9
REMARK                            x       y       z     vdW  Elec       q    Type
REMARK                         _______ _______ _______ _____ _____    ______ ____
ROOT
ATOM      1  O   UNL     1       5.673   5.540  19.479  0.00  0.00    +0.000 OA
ATOM      2  C   UNL     1       4.650   5.395  18.823  0.00  0.00    +0.000 C 
ATOM      3  N   UNL     1       4.534   5.746  17.490  0.00  0.00    +0.000 N 
ATOM      4  H   UNL     1       3.608   5.736  17.078  0.00  0.00    +0.000 HD
ENDROOT
BRANCH   2   5
ATOM      5  C   UNL     1       3.453   4.792  19.462  0.00  0.00    +0.000 A 
ATOM      6  C   UNL     1       2.690   5.568  20.351  0.00  0.00    +0.000 A 
ATOM      7  C   UNL     1       1.536   5.041  20.958  0.00  0.00    +0.000 A 
ATOM      8  C   UNL     1       1.122   3.739  20.673  0.00  0.00    +0.000 A 
ATOM      9  C   UNL     1       1.888   2.998  19.794  0.00  0.00    +0.000 A 
ATOM     10  C   UNL     1       3.029   3.501  19.209  0.00  0.00    +0.000 A 
ATOM     11  O   UNL     1       3.620   2.588  18.385  0.00  0.00    +0.000 OA
ATOM     12  C   UNL     1       2.724   1.467  18.515  0.00  0.00    +0.000 C 
ATOM     13  O   UNL     1       1.621   1.721  19.405  0.00  0.00    +0.000 OA
ENDBRANCH   2   5
BRANCH   3  14
ATOM     14  C   UNL     1       5.618   6.432  16.791  0.00  0.00    +0.000 C 
ATOM     15  C   UNL     1       5.270   6.659  15.319  0.00  0.00    +0.000 C 
ATOM     16  C   UNL     1       5.403   5.380  14.494  0.00  0.00    +0.000 C 
ATOM     17  N   UNL     1       6.749   4.808  14.628  0.00  0.00    +0.000 NA
ATOM     18  C   UNL     1       7.060   4.469  16.021  0.00  0.00    +0.000 C 
ATOM     19  C   UNL     1       6.948   5.689  16.935  0.00  0.00    +0.000 C 
BRANCH  17  20
ATOM     20  C   UNL     1       6.931   3.632  13.733  0.00  0.00    +0.000 C 
BRANCH  20  21
ATOM     21  C   UNL     1       6.690   3.743  12.208  0.00  0.00    +0.000 C 
ATOM     22  F   UNL     1       7.196   2.702  11.506  0.00  0.00    +0.000 F 
ATOM     23  F   UNL     1       5.367   3.802  11.932  0.00  0.00    +0.000 F 
ATOM     24  F   UNL     1       7.258   4.866  11.711  0.00  0.00    +0.000 F 
ENDBRANCH  20  21
ENDBRANCH  17  20
ENDBRANCH   3  14
TORSDOF 4
ENDMDL
MODEL 9
REMARK VINA RESULT:      -6.9      1.571      2.069
REMARK  Name = 
REMARK  4 active torsions:
REMARK  status: ('A' for Active; 'I' for Inactive)
REMARK    1  A    between atoms: C_2  and  C_15
REMARK    2  A    between atoms: N_3  and  C_4
REMARK    3  A    between atoms: N_7  and  C_8
REMARK    4  A    between atoms: C_8  and  C_9
REMARK                            x       y       z     vdW  Elec       q    Type
REMARK                         _______ _______ _______ _____ _____    ______ ____
ROOT
ATOM      1  O   UNL     1       3.239   6.644  19.114  0.00  0.00    +0.000 OA
ATOM      2  C   UNL     1       3.478   5.497  18.758  0.00  0.00    +0.000 C 
ATOM      3  N   UNL     1       4.672   5.103  18.181  0.00  0.00    +0.000 N 
ATOM      4  H   UNL     1       4.718   4.175  17.777  0.00  0.00    +0.000 HD
ENDROOT
BRANCH   2   5
ATOM      5  C   UNL     1       2.454   4.441  18.961  0.00  0.00    +0.000 A 
ATOM      6  C   UNL     1       1.734   3.965  17.853  0.00  0.00    +0.000 A 
ATOM      7  C   UNL     1       0.773   2.949  18.001  0.00  0.00    +0.000 A 
ATOM      8  C   UNL     1       0.530   2.387  19.255  0.00  0.00    +0.000 A 
ATOM      9  C   UNL     1       1.252   2.871  20.329  0.00  0.00    +0.000 A 
ATOM     10  C   UNL     1       2.183   3.877  20.194  0.00  0.00    +0.000 A 
ATOM     11  O   UNL     1       2.764   4.192  21.388  0.00  0.00    +0.000 OA
ATOM     12  C   UNL     1       2.101   3.272  22.277  0.00  0.00    +0.000 C 
ATOM     13  O   UNL     1       1.143   2.428  21.611  0.00  0.00    +0.000 OA
ENDBRANCH   2   5
BRANCH   3  14
ATOM     14  C   UNL     1       5.710   6.077  17.850  0.00  0.00    +0.000 C 
ATOM     15  C   UNL     1       5.322   6.903  16.622  0.00  0.00    +0.000 C 
ATOM     16  C   UNL     1       5.495   6.117  15.325  0.00  0.00    +0.000 C 
ATOM     17  N   UNL     1       6.869   5.610  15.197  0.00  0.00    +0.000 NA
ATOM     18  C   UNL     1       7.222   4.717  16.306  0.00  0.00    +0.000 C 
ATOM     19  C   UNL     1       7.074   5.412  17.659  0.00  0.00    +0.000 C 
BRANCH  17  20
ATOM     20  C   UNL     1       7.084   4.950  13.881  0.00  0.00    +0.000 C 
BRANCH  20  21
ATOM     21  C   UNL     1       6.185   3.779  13.416  0.00  0.00    +0.000 C 
ATOM     22  F   UNL     1       6.689   3.101  12.358  0.00  0.00    +0.000 F 
ATOM     23  F   UNL     1       6.007   2.883  14.414  0.00  0.00    +0.000 F 
ATOM     24  F   UNL     1       4.962   4.228  13.051  0.00  0.00    +0.000 F 
ENDBRANCH  20  21
ENDBRANCH  17  20
ENDBRANCH   3  14
TORSDOF 4
ENDMDL
