MODEL 1
REMARK VINA RESULT:      -6.0      0.000      0.000
REMARK  Name = 
REMARK  2 active torsions:
REMARK  status: ('A' for Active; 'I' for Inactive)
REMARK    1  A    between atoms: N_1  and  C_2
REMARK    2  A    between atoms: N_12  and  O_13
REMARK                            x       y       z     vdW  Elec       q    Type
REMARK                         _______ _______ _______ _____ _____    ______ ____
ROOT
ATOM      1  C   UNL     1       7.228   4.654  17.839  0.00  0.00    +0.000 A 
ATOM      2  N   UNL     1       7.521   4.725  16.521  0.00  0.00    +0.000 NA
ATOM      3  C   UNL     1       6.545   4.444  15.630  0.00  0.00    +0.000 A 
ATOM      4  N   UNL     1       5.265   4.094  15.874  0.00  0.00    +0.000 NA
ATOM      5  C   UNL     1       5.015   4.062  17.198  0.00  0.00    +0.000 A 
ATOM      6  C   UNL     1       5.914   4.332  18.216  0.00  0.00    +0.000 A 
ATOM      7  N   UNL     1       5.311   4.238  19.446  0.00  0.00    +0.000 NA
ATOM      8  C   UNL     1       4.061   3.918  19.177  0.00  0.00    +0.000 A 
ATOM      9  N   UNL     1       3.811   3.809  17.826  0.00  0.00    +0.000 N 
ATOM     10  C   UNL     1       2.635   3.467  17.159  0.00  0.00    +0.000 C 
ATOM     11  N   UNL     1       1.414   3.514  17.609  0.00  0.00    +0.000 NA
ENDROOT
BRANCH   1  12
ATOM     12  N   UNL     1       8.227   4.931  18.757  0.00  0.00    +0.000 N 
ATOM     13  H   UNL     1       7.899   5.497  19.530  0.00  0.00    +0.000 HD
ATOM     14  H   UNL     1       8.814   4.131  18.971  0.00  0.00    +0.000 HD
ENDBRANCH   1  12
BRANCH  11  15
ATOM     15  O   UNL     1       1.300   4.098  18.871  0.00  0.00    +0.000 OA
ATOM     16  H   UNL     1       0.786   3.434  19.370  0.00  0.00    +0.000 HD
ENDBRANCH  11  15
TORSDOF 2
ENDMDL
MODEL 2
REMARK VINA RESULT:      -6.0      1.549      2.601
REMARK  Name = 
REMARK  2 active torsions:
REMARK  status: ('A' for Active; 'I' for Inactive)
REMARK    1  A    between atoms: N_1  and  C_2
REMARK    2  A    between atoms: N_12  and  O_13
REMARK                            x       y       z     vdW  Elec       q    Type
REMARK                         _______ _______ _______ _____ _____    ______ ____
ROOT
ATOM      1  C   UNL     1       6.995   5.385  16.841  0.00  0.00    +0.000 A 
ATOM      2  N   UNL     1       7.731   5.874  17.865  0.00  0.00    +0.000 NA
ATOM      3  C   UNL     1       7.303   5.652  19.127  0.00  0.00    +0.000 A 
ATOM      4  N   UNL     1       6.207   4.979  19.532  0.00  0.00    +0.000 NA
ATOM      5  C   UNL     1       5.522   4.488  18.480  0.00  0.00    +0.000 A 
ATOM      6  C   UNL     1       5.846   4.635  17.141  0.00  0.00    +0.000 A 
ATOM      7  N   UNL     1       4.947   3.977  16.339  0.00  0.00    +0.000 NA
ATOM      8  C   UNL     1       4.088   3.436  17.182  0.00  0.00    +0.000 A 
ATOM      9  N   UNL     1       4.389   3.699  18.501  0.00  0.00    +0.000 N 
ATOM     10  C   UNL     1       3.714   3.327  19.663  0.00  0.00    +0.000 C 
ATOM     11  N   UNL     1       2.852   2.362  19.818  0.00  0.00    +0.000 NA
ENDROOT
BRANCH   1  12
ATOM     12  N   UNL     1       7.423   5.618  15.544  0.00  0.00    +0.000 N 
ATOM     13  H   UNL     1       7.955   6.475  15.459  0.00  0.00    +0.000 HD
ATOM     14  H   UNL     1       7.781   4.790  15.081  0.00  0.00    +0.000 HD
ENDBRANCH   1  12
BRANCH  11  15
ATOM     15  O   UNL     1       2.709   1.548  18.693  0.00  0.00    +0.000 OA
ATOM     16  H   UNL     1       1.981   0.950  18.952  0.00  0.00    +0.000 HD
ENDBRANCH  11  15
TORSDOF 2
ENDMDL
MODEL 3
REMARK VINA RESULT:      -5.9      2.167      2.621
REMARK  Name = 
REMARK  2 active torsions:
REMARK  status: ('A' for Active; 'I' for Inactive)
REMARK    1  A    between atoms: N_1  and  C_2
REMARK    2  A    between atoms: N_12  and  O_13
REMARK                            x       y       z     vdW  Elec       q    Type
REMARK                         _______ _______ _______ _____ _____    ______ ____
ROOT
ATOM      1  C   UNL     1       5.896   4.672  18.226  0.00  0.00    +0.000 A 
ATOM      2  N   UNL     1       5.467   5.806  17.627  0.00  0.00    +0.000 NA
ATOM      3  C   UNL     1       4.167   6.149  17.758  0.00  0.00    +0.000 A 
ATOM      4  N   UNL     1       3.195   5.501  18.432  0.00  0.00    +0.000 NA
ATOM      5  C   UNL     1       3.676   4.393  19.033  0.00  0.00    +0.000 A 
ATOM      6  C   UNL     1       4.980   3.929  18.988  0.00  0.00    +0.000 A 
ATOM      7  N   UNL     1       5.126   2.791  19.741  0.00  0.00    +0.000 NA
ATOM      8  C   UNL     1       3.925   2.569  20.239  0.00  0.00    +0.000 A 
ATOM      9  N   UNL     1       2.999   3.516  19.857  0.00  0.00    +0.000 N 
ATOM     10  C   UNL     1       1.640   3.609  20.153  0.00  0.00    +0.000 C 
ATOM     11  N   UNL     1       0.991   3.043  21.132  0.00  0.00    +0.000 NA
ENDROOT
BRANCH   1  12
ATOM     12  N   UNL     1       7.226   4.309  18.087  0.00  0.00    +0.000 N 
ATOM     13  H   UNL     1       7.859   4.994  18.482  0.00  0.00    +0.000 HD
ATOM     14  H   UNL     1       7.402   3.330  18.287  0.00  0.00    +0.000 HD
ENDBRANCH   1  12
BRANCH  11  15
ATOM     15  O   UNL     1       1.811   2.375  22.041  0.00  0.00    +0.000 OA
ATOM     16  H   UNL     1       2.607   2.178  21.508  0.00  0.00    +0.000 HD
ENDBRANCH  11  15
TORSDOF 2
ENDMDL
MODEL 4
REMARK VINA RESULT:      -5.9      1.673      1.743
REMARK  Name = 
REMARK  2 active torsions:
REMARK  status: ('A' for Active; 'I' for Inactive)
REMARK    1  A    between atoms: N_1  and  C_2
REMARK    2  A    between atoms: N_12  and  O_13
REMARK                            x       y       z     vdW  Elec       q    Type
REMARK                         _______ _______ _______ _____ _____    ______ ____
ROOT
ATOM      1  C   UNL     1       6.656   6.471  16.777  0.00  0.00    +0.000 A 
ATOM      2  N   UNL     1       7.433   5.686  15.996  0.00  0.00    +0.000 NA
ATOM      3  C   UNL     1       6.987   4.450  15.682  0.00  0.00    +0.000 A 
ATOM      4  N   UNL     1       5.827   3.863  16.044  0.00  0.00    +0.000 NA
ATOM      5  C   UNL     1       5.077   4.692  16.798  0.00  0.00    +0.000 A 
ATOM      6  C   UNL     1       5.407   5.979  17.188  0.00  0.00    +0.000 A 
ATOM      7  N   UNL     1       4.396   6.547  17.922  0.00  0.00    +0.000 NA
ATOM      8  C   UNL     1       3.463   5.616  17.974  0.00  0.00    +0.000 A 
ATOM      9  N   UNL     1       3.810   4.466  17.297  0.00  0.00    +0.000 N 
ATOM     10  C   UNL     1       3.109   3.270  17.149  0.00  0.00    +0.000 C 
ATOM     11  N   UNL     1       1.831   3.064  17.300  0.00  0.00    +0.000 NA
ENDROOT
BRANCH   1  12
ATOM     12  N   UNL     1       7.114   7.735  17.111  0.00  0.00    +0.000 N 
ATOM     13  H   UNL     1       7.010   8.399  16.354  0.00  0.00    +0.000 HD
ATOM     14  H   UNL     1       6.840   8.032  18.042  0.00  0.00    +0.000 HD
ENDBRANCH   1  12
BRANCH  11  15
ATOM     15  O   UNL     1       1.093   4.229  17.515  0.00  0.00    +0.000 OA
ATOM     16  H   UNL     1       0.926   4.202  18.477  0.00  0.00    +0.000 HD
ENDBRANCH  11  15
TORSDOF 2
ENDMDL
MODEL 5
REMARK VINA RESULT:      -5.8      2.518      3.983
REMARK  Name = 
REMARK  2 active torsions:
REMARK  status: ('A' for Active; 'I' for Inactive)
REMARK    1  A    between atoms: N_1  and  C_2
REMARK    2  A    between atoms: N_12  and  O_13
REMARK                            x       y       z     vdW  Elec       q    Type
REMARK                         _______ _______ _______ _____ _____    ______ ____
ROOT
ATOM      1  C   UNL     1       4.316   2.428  19.569  0.00  0.00    +0.000 A 
ATOM      2  N   UNL     1       3.276   1.860  18.918  0.00  0.00    +0.000 NA
ATOM      3  C   UNL     1       2.833   2.444  17.783  0.00  0.00    +0.000 A 
ATOM      4  N   UNL     1       3.301   3.554  17.176  0.00  0.00    +0.000 NA
ATOM      5  C   UNL     1       4.351   4.068  17.847  0.00  0.00    +0.000 A 
ATOM      6  C   UNL     1       4.910   3.572  19.013  0.00  0.00    +0.000 A 
ATOM      7  N   UNL     1       5.990   4.325  19.403  0.00  0.00    +0.000 NA
ATOM      8  C   UNL     1       6.086   5.264  18.483  0.00  0.00    +0.000 A 
ATOM      9  N   UNL     1       5.126   5.157  17.499  0.00  0.00    +0.000 N 
ATOM     10  C   UNL     1       4.889   5.966  16.389  0.00  0.00    +0.000 C 
ATOM     11  N   UNL     1       5.710   6.797  15.811  0.00  0.00    +0.000 NA
ENDROOT
BRANCH   1  12
ATOM     12  N   UNL     1       4.768   1.839  20.739  0.00  0.00    +0.000 N 
ATOM     13  H   UNL     1       5.641   2.237  21.062  0.00  0.00    +0.000 HD
ATOM     14  H   UNL     1       4.035   1.685  21.424  0.00  0.00    +0.000 HD
ENDBRANCH   1  12
BRANCH  11  15
ATOM     15  O   UNL     1       7.009   6.750  16.317  0.00  0.00    +0.000 OA
ATOM     16  H   UNL     1       6.873   6.428  17.229  0.00  0.00    +0.000 HD
ENDBRANCH  11  15
TORSDOF 2
ENDMDL
MODEL 6
REMARK VINA RESULT:      -5.8      2.441      4.412
REMARK  Name = 
REMARK  2 active torsions:
REMARK  status: ('A' for Active; 'I' for Inactive)
REMARK    1  A    between atoms: N_1  and  C_2
REMARK    2  A    between atoms: N_12  and  O_13
REMARK                            x       y       z     vdW  Elec       q    Type
REMARK                         _______ _______ _______ _____ _____    ______ ____
ROOT
ATOM      1  C   UNL     1       2.681   4.629  19.789  0.00  0.00    +0.000 A 
ATOM      2  N   UNL     1       1.719   4.023  19.056  0.00  0.00    +0.000 NA
ATOM      3  C   UNL     1       2.010   3.666  17.786  0.00  0.00    +0.000 A 
ATOM      4  N   UNL     1       3.170   3.827  17.117  0.00  0.00    +0.000 NA
ATOM      5  C   UNL     1       4.104   4.410  17.896  0.00  0.00    +0.000 A 
ATOM      6  C   UNL     1       3.945   4.819  19.209  0.00  0.00    +0.000 A 
ATOM      7  N   UNL     1       5.112   5.342  19.708  0.00  0.00    +0.000 NA
ATOM      8  C   UNL     1       5.969   5.249  18.710  0.00  0.00    +0.000 A 
ATOM      9  N   UNL     1       5.421   4.677  17.581  0.00  0.00    +0.000 N 
ATOM     10  C   UNL     1       5.995   4.435  16.334  0.00  0.00    +0.000 C 
ATOM     11  N   UNL     1       7.260   4.358  16.033  0.00  0.00    +0.000 NA
ENDROOT
BRANCH   1  12
ATOM     12  N   UNL     1       2.385   5.006  21.089  0.00  0.00    +0.000 N 
ATOM     13  H   UNL     1       1.495   5.484  21.163  0.00  0.00    +0.000 HD
ATOM     14  H   UNL     1       2.597   4.291  21.777  0.00  0.00    +0.000 HD
ENDBRANCH   1  12
BRANCH  11  15
ATOM     15  O   UNL     1       8.107   4.404  17.140  0.00  0.00    +0.000 OA
ATOM     16  H   UNL     1       8.140   3.469  17.424  0.00  0.00    +0.000 HD
ENDBRANCH  11  15
TORSDOF 2
ENDMDL
MODEL 7
REMARK VINA RESULT:      -5.7      1.447      1.447
REMARK  Name = 
REMARK  2 active torsions:
REMARK  status: ('A' for Active; 'I' for Inactive)
REMARK    1  A    between atoms: N_1  and  C_2
REMARK    2  A    between atoms: N_12  and  O_13
REMARK                            x       y       z     vdW  Elec       q    Type
REMARK                         _______ _______ _______ _____ _____    ______ ____
ROOT
ATOM      1  C   UNL     1       6.965   5.653  18.796  0.00  0.00    +0.000 A 
ATOM      2  N   UNL     1       7.002   6.680  17.917  0.00  0.00    +0.000 NA
ATOM      3  C   UNL     1       5.972   6.825  17.055  0.00  0.00    +0.000 A 
ATOM      4  N   UNL     1       4.863   6.066  16.942  0.00  0.00    +0.000 NA
ATOM      5  C   UNL     1       4.860   5.073  17.854  0.00  0.00    +0.000 A 
ATOM      6  C   UNL     1       5.840   4.812  18.796  0.00  0.00    +0.000 A 
ATOM      7  N   UNL     1       5.496   3.744  19.586  0.00  0.00    +0.000 NA
ATOM      8  C   UNL     1       4.319   3.362  19.130  0.00  0.00    +0.000 A 
ATOM      9  N   UNL     1       3.869   4.138  18.083  0.00  0.00    +0.000 N 
ATOM     10  C   UNL     1       2.699   4.034  17.331  0.00  0.00    +0.000 C 
ATOM     11  N   UNL     1       1.595   3.419  17.646  0.00  0.00    +0.000 NA
ENDROOT
BRANCH   1  12
ATOM     12  N   UNL     1       8.023   5.493  19.676  0.00  0.00    +0.000 N 
ATOM     13  H   UNL     1       8.726   4.854  19.326  0.00  0.00    +0.000 HD
ATOM     14  H   UNL     1       8.339   6.363  20.092  0.00  0.00    +0.000 HD
ENDBRANCH   1  12
BRANCH  11  15
ATOM     15  O   UNL     1       1.576   2.924  18.950  0.00  0.00    +0.000 OA
ATOM     16  H   UNL     1       0.627   2.741  19.096  0.00  0.00    +0.000 HD
ENDBRANCH  11  15
TORSDOF 2
ENDMDL
MODEL 8
REMARK VINA RESULT:      -5.7      1.414      1.455
REMARK  Name = 
REMARK  2 active torsions:
REMARK  status: ('A' for Active; 'I' for Inactive)
REMARK    1  A    between atoms: N_1  and  C_2
REMARK    2  A    between atoms: N_12  and  O_13
REMARK                            x       y       z     vdW  Elec       q    Type
REMARK                         _______ _______ _______ _____ _____    ______ ____
ROOT
ATOM      1  C   UNL     1       7.025   5.991  16.661  0.00  0.00    +0.000 A 
ATOM      2  N   UNL     1       7.291   5.495  15.432  0.00  0.00    +0.000 NA
ATOM      3  C   UNL     1       6.647   4.374  15.039  0.00  0.00    +0.000 A 
ATOM      4  N   UNL     1       5.735   3.651  15.721  0.00  0.00    +0.000 NA
ATOM      5  C   UNL     1       5.484   4.199  16.927  0.00  0.00    +0.000 A 
ATOM      6  C   UNL     1       6.063   5.342  17.452  0.00  0.00    +0.000 A 
ATOM      7  N   UNL     1       5.550   5.632  18.692  0.00  0.00    +0.000 NA
ATOM      8  C   UNL     1       4.668   4.678  18.915  0.00  0.00    +0.000 A 
ATOM      9  N   UNL     1       4.569   3.780  17.873  0.00  0.00    +0.000 N 
ATOM     10  C   UNL     1       3.779   2.638  17.748  0.00  0.00    +0.000 C 
ATOM     11  N   UNL     1       2.698   2.334  18.409  0.00  0.00    +0.000 NA
ENDROOT
BRANCH   1  12
ATOM     12  N   UNL     1       7.690   7.135  17.074  0.00  0.00    +0.000 N 
ATOM     13  H   UNL     1       8.047   7.678  16.298  0.00  0.00    +0.000 HD
ATOM     14  H   UNL     1       7.216   7.631  17.822  0.00  0.00    +0.000 HD
ENDBRANCH   1  12
BRANCH  11  15
ATOM     15  O   UNL     1       2.241   3.354  19.244  0.00  0.00    +0.000 OA
ATOM     16  H   UNL     1       1.325   3.492  18.932  0.00  0.00    +0.000 HD
ENDBRANCH  11  15
TORSDOF 2
ENDMDL
MODEL 9
REMARK VINA RESULT:      -5.7      2.015      2.137
REMARK  Name = 
REMARK  2 active torsions:
REMARK  status: ('A' for Active; 'I' for Inactive)
REMARK    1  A    between atoms: N_1  and  C_2
REMARK    2  A    between atoms: N_12  and  O_13
REMARK                            x       y       z     vdW  Elec       q    Type
REMARK                         _______ _______ _______ _____ _____    ______ ____
ROOT
ATOM      1  C   UNL     1       6.689   5.030  17.114  0.00  0.00    +0.000 A 
ATOM      2  N   UNL     1       6.510   6.039  16.232  0.00  0.00    +0.000 NA
ATOM      3  C   UNL     1       5.347   6.727  16.270  0.00  0.00    +0.000 A 
ATOM      4  N   UNL     1       4.298   6.549  17.098  0.00  0.00    +0.000 NA
ATOM      5  C   UNL     1       4.534   5.552  17.974  0.00  0.00    +0.000 A 
ATOM      6  C   UNL     1       5.676   4.773  18.051  0.00  0.00    +0.000 A 
ATOM      7  N   UNL     1       5.591   3.872  19.084  0.00  0.00    +0.000 NA
ATOM      8  C   UNL     1       4.413   4.104  19.628  0.00  0.00    +0.000 A 
ATOM      9  N   UNL     1       3.723   5.124  19.007  0.00  0.00    +0.000 N 
ATOM     10  C   UNL     1       2.454   5.636  19.272  0.00  0.00    +0.000 C 
ATOM     11  N   UNL     1       1.759   5.532  20.370  0.00  0.00    +0.000 NA
ENDROOT
BRANCH   1  12
ATOM     12  N   UNL     1       7.875   4.315  17.073  0.00  0.00    +0.000 N 
ATOM     13  H   UNL     1       8.374   4.439  16.201  0.00  0.00    +0.000 HD
ATOM     14  H   UNL     1       8.408   4.364  17.935  0.00  0.00    +0.000 HD
ENDBRANCH   1  12
BRANCH  11  15
ATOM     15  O   UNL     1       2.454   4.936  21.423  0.00  0.00    +0.000 OA
ATOM     16  H   UNL     1       3.300   5.425  21.427  0.00  0.00    +0.000 HD
ENDBRANCH  11  15
TORSDOF 2
ENDMDL
