MODEL 1
REMARK VINA RESULT:      -8.4      0.000      0.000
REMARK  Name = 
REMARK  5 active torsions:
REMARK  status: ('A' for Active; 'I' for Inactive)
REMARK    1  A    between atoms: C_1  and  O_2
REMARK    2  A    between atoms: O_2  and  C_3
REMARK    3  A    between atoms: C_6  and  C_7
REMARK    4  A    between atoms: C_11  and  C_12
REMARK    5  A    between atoms: C_12  and  N_13
REMARK                            x       y       z     vdW  Elec       q    Type
REMARK                         _______ _______ _______ _____ _____    ______ ____
ROOT
ATOM      1  N   UNL     1       1.227  10.996  19.142  0.00  0.00    +0.000 N 
ATOM      2  N   UNL     1       0.551  11.341  20.335  0.00  0.00    +0.000 NA
ATOM      3  C   UNL     1       0.493  12.580  20.691  0.00  0.00    +0.000 A 
ATOM      4  N   UNL     1      -0.386  13.094  21.807  0.00  0.00    +0.000 N 
ATOM      5  C   UNL     1      -0.511  14.521  21.745  0.00  0.00    +0.000 A 
ATOM      6  C   UNL     1      -0.356  14.753  23.087  0.00  0.00    +0.000 A 
ATOM      7  C   UNL     1      -1.489  14.146  23.574  0.00  0.00    +0.000 A 
ATOM      8  C   UNL     1      -2.464  14.653  24.466  0.00  0.00    +0.000 A 
ATOM      9  C   UNL     1      -3.625  14.001  24.789  0.00  0.00    +0.000 A 
ATOM     10  C   UNL     1      -3.742  12.742  24.243  0.00  0.00    +0.000 A 
ATOM     11  F   UNL     1      -4.860  12.073  24.595  0.00  0.00    +0.000 F 
ATOM     12  C   UNL     1      -2.731  12.128  23.329  0.00  0.00    +0.000 A 
ATOM     13  C   UNL     1      -1.550  12.896  22.878  0.00  0.00    +0.000 A 
ATOM     14  C   UNL     1       1.307  13.644  19.839  0.00  0.00    +0.000 A 
ATOM     15  C   UNL     1       2.070  13.249  18.794  0.00  0.00    +0.000 A 
ATOM     16  C   UNL     1       2.081  11.863  18.379  0.00  0.00    +0.000 A 
ATOM     17  O   UNL     1       2.694  11.513  17.382  0.00  0.00    +0.000 OA
ENDROOT
BRANCH   1  18
ATOM     18  C   UNL     1       0.778   9.802  18.496  0.00  0.00    +0.000 C 
BRANCH  18  23
ATOM     19  C   UNL     1       3.145   6.741  18.348  0.00  0.00    +0.000 A 
ATOM     20  C   UNL     1       2.914   6.202  19.623  0.00  0.00    +0.000 A 
ATOM     21  C   UNL     1       2.031   6.811  20.515  0.00  0.00    +0.000 A 
ATOM     22  C   UNL     1       1.367   7.980  20.150  0.00  0.00    +0.000 A 
ATOM     23  C   UNL     1       1.588   8.574  18.901  0.00  0.00    +0.000 A 
ATOM     24  C   UNL     1       2.502   7.963  18.025  0.00  0.00    +0.000 A 
BRANCH  19  28
ATOM     25  C   UNL     1       5.659   4.598  15.745  0.00  0.00    +0.000 A 
ATOM     26  C   UNL     1       5.661   5.952  15.843  0.00  0.00    +0.000 A 
ATOM     27  N   UNL     1       4.838   6.687  16.616  0.00  0.00    +0.000 NA
ATOM     28  C   UNL     1       3.930   6.014  17.356  0.00  0.00    +0.000 A 
ATOM     29  N   UNL     1       3.843   4.661  17.347  0.00  0.00    +0.000 NA
ATOM     30  C   UNL     1       4.696   3.999  16.542  0.00  0.00    +0.000 A 
BRANCH  25  32
ATOM     31  C   UNL     1       6.125   3.812  13.607  0.00  0.00    +0.000 C 
ATOM     32  O   UNL     1       6.464   3.798  14.998  0.00  0.00    +0.000 OA
ENDBRANCH  25  32
ENDBRANCH  19  28
ENDBRANCH  18  23
ENDBRANCH   1  18
TORSDOF 4
ENDMDL
MODEL 2
REMARK VINA RESULT:      -8.4      4.664     10.441
REMARK  Name = 
REMARK  5 active torsions:
REMARK  status: ('A' for Active; 'I' for Inactive)
REMARK    1  A    between atoms: C_1  and  O_2
REMARK    2  A    between atoms: O_2  and  C_3
REMARK    3  A    between atoms: C_6  and  C_7
REMARK    4  A    between atoms: C_11  and  C_12
REMARK    5  A    between atoms: C_12  and  N_13
REMARK                            x       y       z     vdW  Elec       q    Type
REMARK                         _______ _______ _______ _____ _____    ______ ____
ROOT
ATOM      1  N   UNL     1       0.698  10.142  20.377  0.00  0.00    +0.000 N 
ATOM      2  N   UNL     1       1.577   9.100  20.003  0.00  0.00    +0.000 NA
ATOM      3  C   UNL     1       1.434   7.933  20.536  0.00  0.00    +0.000 A 
ATOM      4  N   UNL     1       2.153   6.695  20.053  0.00  0.00    +0.000 N 
ATOM      5  C   UNL     1       1.547   5.510  20.588  0.00  0.00    +0.000 A 
ATOM      6  C   UNL     1       2.714   4.866  20.909  0.00  0.00    +0.000 A 
ATOM      7  C   UNL     1       3.239   4.669  19.655  0.00  0.00    +0.000 A 
ATOM      8  C   UNL     1       3.741   3.481  19.071  0.00  0.00    +0.000 A 
ATOM      9  C   UNL     1       4.129   3.371  17.761  0.00  0.00    +0.000 A 
ATOM     10  C   UNL     1       4.082   4.551  17.052  0.00  0.00    +0.000 A 
ATOM     11  F   UNL     1       4.508   4.463  15.775  0.00  0.00    +0.000 F 
ATOM     12  C   UNL     1       3.603   5.850  17.618  0.00  0.00    +0.000 A 
ATOM     13  C   UNL     1       3.058   5.924  18.991  0.00  0.00    +0.000 A 
ATOM     14  C   UNL     1       0.362   7.764  21.694  0.00  0.00    +0.000 A 
ATOM     15  C   UNL     1      -0.351   8.827  22.131  0.00  0.00    +0.000 A 
ATOM     16  C   UNL     1      -0.214  10.115  21.487  0.00  0.00    +0.000 A 
ATOM     17  O   UNL     1      -0.919  11.057  21.814  0.00  0.00    +0.000 OA
ENDROOT
BRANCH   1  18
ATOM     18  C   UNL     1       0.491  11.163  19.397  0.00  0.00    +0.000 C 
BRANCH  18  23
ATOM     19  C   UNL     1      -3.217  11.386  18.307  0.00  0.00    +0.000 A 
ATOM     20  C   UNL     1      -3.213  10.448  17.263  0.00  0.00    +0.000 A 
ATOM     21  C   UNL     1      -2.047   9.768  16.907  0.00  0.00    +0.000 A 
ATOM     22  C   UNL     1      -0.858  10.024  17.586  0.00  0.00    +0.000 A 
ATOM     23  C   UNL     1      -0.804  10.973  18.613  0.00  0.00    +0.000 A 
ATOM     24  C   UNL     1      -1.980  11.669  18.940  0.00  0.00    +0.000 A 
BRANCH  19  28
ATOM     25  C   UNL     1      -6.820  12.797  19.954  0.00  0.00    +0.000 A 
ATOM     26  C   UNL     1      -6.761  11.928  18.912  0.00  0.00    +0.000 A 
ATOM     27  N   UNL     1      -5.637  11.493  18.312  0.00  0.00    +0.000 NA
ATOM     28  C   UNL     1      -4.466  11.966  18.791  0.00  0.00    +0.000 A 
ATOM     29  N   UNL     1      -4.401  12.829  19.835  0.00  0.00    +0.000 NA
ATOM     30  C   UNL     1      -5.570  13.223  20.374  0.00  0.00    +0.000 A 
BRANCH  25  32
ATOM     31  C   UNL     1      -7.678  13.478  22.005  0.00  0.00    +0.000 C 
ATOM     32  O   UNL     1      -7.914  13.266  20.609  0.00  0.00    +0.000 OA
ENDBRANCH  25  32
ENDBRANCH  19  28
ENDBRANCH  18  23
ENDBRANCH   1  18
TORSDOF 4
ENDMDL
MODEL 3
REMARK VINA RESULT:      -8.3      4.638      8.615
REMARK  Name = 
REMARK  5 active torsions:
REMARK  status: ('A' for Active; 'I' for Inactive)
REMARK    1  A    between atoms: C_1  and  O_2
REMARK    2  A    between atoms: O_2  and  C_3
REMARK    3  A    between atoms: C_6  and  C_7
REMARK    4  A    between atoms: C_11  and  C_12
REMARK    5  A    between atoms: C_12  and  N_13
REMARK                            x       y       z     vdW  Elec       q    Type
REMARK                         _______ _______ _______ _____ _____    ______ ____
ROOT
ATOM      1  N   UNL     1      -6.139  12.817  23.071  0.00  0.00    +0.000 N 
ATOM      2  N   UNL     1      -5.689  12.174  21.895  0.00  0.00    +0.000 NA
ATOM      3  C   UNL     1      -6.091  12.606  20.747  0.00  0.00    +0.000 A 
ATOM      4  N   UNL     1      -5.507  12.156  19.428  0.00  0.00    +0.000 N 
ATOM      5  C   UNL     1      -5.893  13.042  18.369  0.00  0.00    +0.000 A 
ATOM      6  C   UNL     1      -6.186  12.070  17.448  0.00  0.00    +0.000 A 
ATOM      7  C   UNL     1      -4.938  11.530  17.254  0.00  0.00    +0.000 A 
ATOM      8  C   UNL     1      -4.251  11.273  16.043  0.00  0.00    +0.000 A 
ATOM      9  C   UNL     1      -2.951  10.843  15.972  0.00  0.00    +0.000 A 
ATOM     10  C   UNL     1      -2.369  10.583  17.192  0.00  0.00    +0.000 A 
ATOM     11  F   UNL     1      -1.106  10.113  17.130  0.00  0.00    +0.000 F 
ATOM     12  C   UNL     1      -3.050  10.791  18.507  0.00  0.00    +0.000 A 
ATOM     13  C   UNL     1      -4.403  11.386  18.575  0.00  0.00    +0.000 A 
ATOM     14  C   UNL     1      -7.186  13.755  20.720  0.00  0.00    +0.000 A 
ATOM     15  C   UNL     1      -7.707  14.236  21.871  0.00  0.00    +0.000 A 
ATOM     16  C   UNL     1      -7.206  13.776  23.149  0.00  0.00    +0.000 A 
ATOM     17  O   UNL     1      -7.605  14.270  24.192  0.00  0.00    +0.000 OA
ENDROOT
BRANCH   1  18
ATOM     18  C   UNL     1      -5.265  12.732  24.199  0.00  0.00    +0.000 C 
BRANCH  18  23
ATOM     19  C   UNL     1      -1.621  12.495  22.912  0.00  0.00    +0.000 A 
ATOM     20  C   UNL     1      -1.116  13.707  23.409  0.00  0.00    +0.000 A 
ATOM     21  C   UNL     1      -1.927  14.586  24.128  0.00  0.00    +0.000 A 
ATOM     22  C   UNL     1      -3.264  14.271  24.357  0.00  0.00    +0.000 A 
ATOM     23  C   UNL     1      -3.822  13.090  23.855  0.00  0.00    +0.000 A 
ATOM     24  C   UNL     1      -3.000  12.229  23.108  0.00  0.00    +0.000 A 
BRANCH  19  28
ATOM     25  C   UNL     1       0.667   9.560  20.953  0.00  0.00    +0.000 A 
ATOM     26  C   UNL     1      -0.100   9.308  22.044  0.00  0.00    +0.000 A 
ATOM     27  N   UNL     1      -0.803  10.221  22.740  0.00  0.00    +0.000 NA
ATOM     28  C   UNL     1      -0.736  11.501  22.314  0.00  0.00    +0.000 A 
ATOM     29  N   UNL     1      -0.010  11.870  21.230  0.00  0.00    +0.000 NA
ATOM     30  C   UNL     1       0.672  10.899  20.592  0.00  0.00    +0.000 A 
BRANCH  25  32
ATOM     31  C   UNL     1       1.611   7.438  20.858  0.00  0.00    +0.000 C 
ATOM     32  O   UNL     1       1.390   8.689  20.201  0.00  0.00    +0.000 OA
ENDBRANCH  25  32
ENDBRANCH  19  28
ENDBRANCH  18  23
ENDBRANCH   1  18
TORSDOF 4
ENDMDL
MODEL 4
REMARK VINA RESULT:      -8.2      4.805     10.552
REMARK  Name = 
REMARK  5 active torsions:
REMARK  status: ('A' for Active; 'I' for Inactive)
REMARK    1  A    between atoms: C_1  and  O_2
REMARK    2  A    between atoms: O_2  and  C_3
REMARK    3  A    between atoms: C_6  and  C_7
REMARK    4  A    between atoms: C_11  and  C_12
REMARK    5  A    between atoms: C_12  and  N_13
REMARK                            x       y       z     vdW  Elec       q    Type
REMARK                         _______ _______ _______ _____ _____    ______ ____
ROOT
ATOM      1  N   UNL     1       0.836   9.972  20.271  0.00  0.00    +0.000 N 
ATOM      2  N   UNL     1       1.828   9.102  19.762  0.00  0.00    +0.000 NA
ATOM      3  C   UNL     1       1.814   7.859  20.109  0.00  0.00    +0.000 A 
ATOM      4  N   UNL     1       2.669   6.795  19.460  0.00  0.00    +0.000 N 
ATOM      5  C   UNL     1       2.196   5.484  19.796  0.00  0.00    +0.000 A 
ATOM      6  C   UNL     1       3.426   4.930  20.041  0.00  0.00    +0.000 A 
ATOM      7  C   UNL     1       3.976   4.985  18.783  0.00  0.00    +0.000 A 
ATOM      8  C   UNL     1       4.611   3.963  18.037  0.00  0.00    +0.000 A 
ATOM      9  C   UNL     1       5.015   4.099  16.735  0.00  0.00    +0.000 A 
ATOM     10  C   UNL     1       4.840   5.361  16.212  0.00  0.00    +0.000 A 
ATOM     11  F   UNL     1       5.279   5.517  14.946  0.00  0.00    +0.000 F 
ATOM     12  C   UNL     1       4.216   6.497  16.957  0.00  0.00    +0.000 A 
ATOM     13  C   UNL     1       3.659   6.300  18.313  0.00  0.00    +0.000 A 
ATOM     14  C   UNL     1       0.761   7.398  21.204  0.00  0.00    +0.000 A 
ATOM     15  C   UNL     1      -0.068   8.297  21.781  0.00  0.00    +0.000 A 
ATOM     16  C   UNL     1      -0.073   9.676  21.343  0.00  0.00    +0.000 A 
ATOM     17  O   UNL     1      -0.880  10.474  21.793  0.00  0.00    +0.000 OA
ENDROOT
BRANCH   1  18
ATOM     18  C   UNL     1       0.522  11.102  19.452  0.00  0.00    +0.000 C 
BRANCH  18  23
ATOM     19  C   UNL     1      -3.130  11.277  18.179  0.00  0.00    +0.000 A 
ATOM     20  C   UNL     1      -3.068  10.321  17.153  0.00  0.00    +0.000 A 
ATOM     21  C   UNL     1      -1.882   9.645  16.867  0.00  0.00    +0.000 A 
ATOM     22  C   UNL     1      -0.729   9.921  17.598  0.00  0.00    +0.000 A 
ATOM     23  C   UNL     1      -0.732  10.888  18.610  0.00  0.00    +0.000 A 
ATOM     24  C   UNL     1      -1.928  11.581  18.867  0.00  0.00    +0.000 A 
BRANCH  19  28
ATOM     25  C   UNL     1      -6.718  13.233  19.173  0.00  0.00    +0.000 A 
ATOM     26  C   UNL     1      -5.598  13.285  19.939  0.00  0.00    +0.000 A 
ATOM     27  N   UNL     1      -4.447  12.632  19.696  0.00  0.00    +0.000 NA
ATOM     28  C   UNL     1      -4.405  11.855  18.591  0.00  0.00    +0.000 A 
ATOM     29  N   UNL     1      -5.458  11.735  17.746  0.00  0.00    +0.000 NA
ATOM     30  C   UNL     1      -6.577  12.414  18.064  0.00  0.00    +0.000 A 
BRANCH  25  32
ATOM     31  C   UNL     1      -7.917  15.189  18.795  0.00  0.00    +0.000 C 
ATOM     32  O   UNL     1      -7.903  13.872  19.354  0.00  0.00    +0.000 OA
ENDBRANCH  25  32
ENDBRANCH  19  28
ENDBRANCH  18  23
ENDBRANCH   1  18
TORSDOF 4
ENDMDL
MODEL 5
REMARK VINA RESULT:      -7.9      6.558     10.250
REMARK  Name = 
REMARK  5 active torsions:
REMARK  status: ('A' for Active; 'I' for Inactive)
REMARK    1  A    between atoms: C_1  and  O_2
REMARK    2  A    between atoms: O_2  and  C_3
REMARK    3  A    between atoms: C_6  and  C_7
REMARK    4  A    between atoms: C_11  and  C_12
REMARK    5  A    between atoms: C_12  and  N_13
REMARK                            x       y       z     vdW  Elec       q    Type
REMARK                         _______ _______ _______ _____ _____    ______ ____
ROOT
ATOM      1  N   UNL     1       5.896  15.170  22.127  0.00  0.00    +0.000 N 
ATOM      2  N   UNL     1       7.097  14.881  21.439  0.00  0.00    +0.000 NA
ATOM      3  C   UNL     1       7.693  13.756  21.656  0.00  0.00    +0.000 A 
ATOM      4  N   UNL     1       8.842  13.239  20.823  0.00  0.00    +0.000 N 
ATOM      5  C   UNL     1       9.063  11.843  21.066  0.00  0.00    +0.000 A 
ATOM      6  C   UNL     1      10.431  11.908  21.135  0.00  0.00    +0.000 A 
ATOM      7  C   UNL     1      10.725  12.271  19.842  0.00  0.00    +0.000 A 
ATOM      8  C   UNL     1      11.649  11.693  18.939  0.00  0.00    +0.000 A 
ATOM      9  C   UNL     1      11.772  12.061  17.624  0.00  0.00    +0.000 A 
ATOM     10  C   UNL     1      10.977  13.123  17.253  0.00  0.00    +0.000 A 
ATOM     11  F   UNL     1      11.128  13.524  15.973  0.00  0.00    +0.000 F 
ATOM     12  C   UNL     1      10.012  13.807  18.167  0.00  0.00    +0.000 A 
ATOM     13  C   UNL     1       9.788  13.312  19.542  0.00  0.00    +0.000 A 
ATOM     14  C   UNL     1       7.117  12.811  22.794  0.00  0.00    +0.000 A 
ATOM     15  C   UNL     1       6.056  13.197  23.537  0.00  0.00    +0.000 A 
ATOM     16  C   UNL     1       5.370  14.437  23.245  0.00  0.00    +0.000 A 
ATOM     17  O   UNL     1       4.356  14.750  23.850  0.00  0.00    +0.000 OA
ENDROOT
BRANCH   1  18
ATOM     18  C   UNL     1       5.000  16.065  21.462  0.00  0.00    +0.000 C 
BRANCH  18  23
ATOM     19  C   UNL     1       2.631  13.735  19.475  0.00  0.00    +0.000 A 
ATOM     20  C   UNL     1       3.024  14.059  18.167  0.00  0.00    +0.000 A 
ATOM     21  C   UNL     1       4.015  15.012  17.926  0.00  0.00    +0.000 A 
ATOM     22  C   UNL     1       4.627  15.666  18.993  0.00  0.00    +0.000 A 
ATOM     23  C   UNL     1       4.248  15.399  20.314  0.00  0.00    +0.000 A 
ATOM     24  C   UNL     1       3.228  14.458  20.538  0.00  0.00    +0.000 A 
BRANCH  19  28
ATOM     25  C   UNL     1       0.311  10.318  20.265  0.00  0.00    +0.000 A 
ATOM     26  C   UNL     1       0.666  10.710  19.015  0.00  0.00    +0.000 A 
ATOM     27  N   UNL     1       1.356  11.824  18.706  0.00  0.00    +0.000 NA
ATOM     28  C   UNL     1       1.725  12.621  19.732  0.00  0.00    +0.000 A 
ATOM     29  N   UNL     1       1.435  12.325  21.024  0.00  0.00    +0.000 NA
ATOM     30  C   UNL     1       0.734  11.197  21.249  0.00  0.00    +0.000 A 
BRANCH  25  32
ATOM     31  C   UNL     1      -0.307   8.969  22.056  0.00  0.00    +0.000 C 
ATOM     32  O   UNL     1      -0.372   9.207  20.646  0.00  0.00    +0.000 OA
ENDBRANCH  25  32
ENDBRANCH  19  28
ENDBRANCH  18  23
ENDBRANCH   1  18
TORSDOF 4
ENDMDL
MODEL 6
REMARK VINA RESULT:      -7.9      4.287      7.200
REMARK  Name = 
REMARK  5 active torsions:
REMARK  status: ('A' for Active; 'I' for Inactive)
REMARK    1  A    between atoms: C_1  and  O_2
REMARK    2  A    between atoms: O_2  and  C_3
REMARK    3  A    between atoms: C_6  and  C_7
REMARK    4  A    between atoms: C_11  and  C_12
REMARK    5  A    between atoms: C_12  and  N_13
REMARK                            x       y       z     vdW  Elec       q    Type
REMARK                         _______ _______ _______ _____ _____    ______ ____
ROOT
ATOM      1  N   UNL     1       4.018   6.584  16.874  0.00  0.00    +0.000 N 
ATOM      2  N   UNL     1       3.374   7.835  17.011  0.00  0.00    +0.000 NA
ATOM      3  C   UNL     1       2.502   7.996  17.949  0.00  0.00    +0.000 A 
ATOM      4  N   UNL     1       1.923   9.336  18.338  0.00  0.00    +0.000 N 
ATOM      5  C   UNL     1       1.267   9.261  19.610  0.00  0.00    +0.000 A 
ATOM      6  C   UNL     1       0.159   9.989  19.261  0.00  0.00    +0.000 A 
ATOM      7  C   UNL     1       0.732  11.217  19.037  0.00  0.00    +0.000 A 
ATOM      8  C   UNL     1       0.356  12.486  19.539  0.00  0.00    +0.000 A 
ATOM      9  C   UNL     1       1.079  13.635  19.347  0.00  0.00    +0.000 A 
ATOM     10  C   UNL     1       2.179  13.486  18.532  0.00  0.00    +0.000 A 
ATOM     11  F   UNL     1       2.869  14.621  18.297  0.00  0.00    +0.000 F 
ATOM     12  C   UNL     1       2.608  12.185  17.933  0.00  0.00    +0.000 A 
ATOM     13  C   UNL     1       1.900  10.928  18.260  0.00  0.00    +0.000 A 
ATOM     14  C   UNL     1       2.093   6.732  18.818  0.00  0.00    +0.000 A 
ATOM     15  C   UNL     1       2.620   5.515  18.551  0.00  0.00    +0.000 A 
ATOM     16  C   UNL     1       3.634   5.365  17.530  0.00  0.00    +0.000 A 
ATOM     17  O   UNL     1       4.181   4.289  17.344  0.00  0.00    +0.000 OA
ENDROOT
BRANCH   1  18
ATOM     18  C   UNL     1       5.320   6.616  16.284  0.00  0.00    +0.000 C 
BRANCH  18  23
ATOM     19  C   UNL     1       8.025   8.484  18.329  0.00  0.00    +0.000 A 
ATOM     20  C   UNL     1       8.574   7.403  19.037  0.00  0.00    +0.000 A 
ATOM     21  C   UNL     1       8.080   6.108  18.874  0.00  0.00    +0.000 A 
ATOM     22  C   UNL     1       7.020   5.872  18.003  0.00  0.00    +0.000 A 
ATOM     23  C   UNL     1       6.418   6.921  17.298  0.00  0.00    +0.000 A 
ATOM     24  C   UNL     1       6.908   8.224  17.495  0.00  0.00    +0.000 A 
BRANCH  19  28
ATOM     25  C   UNL     1       9.574  12.378  18.681  0.00  0.00    +0.000 A 
ATOM     26  C   UNL     1       8.679  12.011  17.729  0.00  0.00    +0.000 A 
ATOM     27  N   UNL     1       8.199  10.768  17.538  0.00  0.00    +0.000 NA
ATOM     28  C   UNL     1       8.650   9.802  18.368  0.00  0.00    +0.000 A 
ATOM     29  N   UNL     1       9.536  10.054  19.364  0.00  0.00    +0.000 NA
ATOM     30  C   UNL     1       9.975  11.322  19.484  0.00  0.00    +0.000 A 
BRANCH  25  32
ATOM     31  C   UNL     1       9.326  14.665  18.340  0.00  0.00    +0.000 C 
ATOM     32  O   UNL     1      10.089  13.610  18.934  0.00  0.00    +0.000 OA
ENDBRANCH  25  32
ENDBRANCH  19  28
ENDBRANCH  18  23
ENDBRANCH   1  18
TORSDOF 4
ENDMDL
MODEL 7
REMARK VINA RESULT:      -7.9      2.503      3.411
REMARK  Name = 
REMARK  5 active torsions:
REMARK  status: ('A' for Active; 'I' for Inactive)
REMARK    1  A    between atoms: C_1  and  O_2
REMARK    2  A    between atoms: O_2  and  C_3
REMARK    3  A    between atoms: C_6  and  C_7
REMARK    4  A    between atoms: C_11  and  C_12
REMARK    5  A    between atoms: C_12  and  N_13
REMARK                            x       y       z     vdW  Elec       q    Type
REMARK                         _______ _______ _______ _____ _____    ______ ____
ROOT
ATOM      1  N   UNL     1      -0.825  11.671  18.604  0.00  0.00    +0.000 N 
ATOM      2  N   UNL     1      -1.108  12.604  19.627  0.00  0.00    +0.000 NA
ATOM      3  C   UNL     1      -2.309  12.684  20.093  0.00  0.00    +0.000 A 
ATOM      4  N   UNL     1      -2.681  13.467  21.331  0.00  0.00    +0.000 N 
ATOM      5  C   UNL     1      -3.983  13.095  21.800  0.00  0.00    +0.000 A 
ATOM      6  C   UNL     1      -4.428  14.366  22.059  0.00  0.00    +0.000 A 
ATOM      7  C   UNL     1      -3.581  14.719  23.082  0.00  0.00    +0.000 A 
ATOM      8  C   UNL     1      -3.888  15.270  24.349  0.00  0.00    +0.000 A 
ATOM      9  C   UNL     1      -2.967  15.470  25.345  0.00  0.00    +0.000 A 
ATOM     10  C   UNL     1      -1.670  15.176  24.989  0.00  0.00    +0.000 A 
ATOM     11  F   UNL     1      -0.750  15.415  25.947  0.00  0.00    +0.000 F 
ATOM     12  C   UNL     1      -1.270  14.633  23.654  0.00  0.00    +0.000 A 
ATOM     13  C   UNL     1      -2.289  14.291  22.638  0.00  0.00    +0.000 A 
ATOM     14  C   UNL     1      -3.444  11.823  19.392  0.00  0.00    +0.000 A 
ATOM     15  C   UNL     1      -3.160  11.060  18.313  0.00  0.00    +0.000 A 
ATOM     16  C   UNL     1      -1.798  10.943  17.837  0.00  0.00    +0.000 A 
ATOM     17  O   UNL     1      -1.517  10.186  16.921  0.00  0.00    +0.000 OA
ENDROOT
BRANCH   1  18
ATOM     18  C   UNL     1       0.524  11.200  18.548  0.00  0.00    +0.000 C 
BRANCH  18  23
ATOM     19  C   UNL     1       1.744   7.819  19.987  0.00  0.00    +0.000 A 
ATOM     20  C   UNL     1       1.075   7.832  21.221  0.00  0.00    +0.000 A 
ATOM     21  C   UNL     1       0.262   8.905  21.590  0.00  0.00    +0.000 A 
ATOM     22  C   UNL     1       0.111   9.991  20.731  0.00  0.00    +0.000 A 
ATOM     23  C   UNL     1       0.782  10.039  19.504  0.00  0.00    +0.000 A 
ATOM     24  C   UNL     1       1.620   8.964  19.160  0.00  0.00    +0.000 A 
BRANCH  19  28
ATOM     25  C   UNL     1       3.487   4.303  18.475  0.00  0.00    +0.000 A 
ATOM     26  C   UNL     1       2.827   4.363  19.660  0.00  0.00    +0.000 A 
ATOM     27  N   UNL     1       2.304   5.473  20.215  0.00  0.00    +0.000 NA
ATOM     28  C   UNL     1       2.451   6.627  19.529  0.00  0.00    +0.000 A 
ATOM     29  N   UNL     1       3.082   6.687  18.330  0.00  0.00    +0.000 NA
ATOM     30  C   UNL     1       3.585   5.534  17.847  0.00  0.00    +0.000 A 
BRANCH  25  32
ATOM     31  C   UNL     1       3.427   1.987  18.267  0.00  0.00    +0.000 C 
ATOM     32  O   UNL     1       4.027   3.220  17.857  0.00  0.00    +0.000 OA
ENDBRANCH  25  32
ENDBRANCH  19  28
ENDBRANCH  18  23
ENDBRANCH   1  18
TORSDOF 4
ENDMDL
MODEL 8
REMARK VINA RESULT:      -7.8      3.058      4.064
REMARK  Name = 
REMARK  5 active torsions:
REMARK  status: ('A' for Active; 'I' for Inactive)
REMARK    1  A    between atoms: C_1  and  O_2
REMARK    2  A    between atoms: O_2  and  C_3
REMARK    3  A    between atoms: C_6  and  C_7
REMARK    4  A    between atoms: C_11  and  C_12
REMARK    5  A    between atoms: C_12  and  N_13
REMARK                            x       y       z     vdW  Elec       q    Type
REMARK                         _______ _______ _______ _____ _____    ______ ____
ROOT
ATOM      1  N   UNL     1      -1.337  11.523  18.550  0.00  0.00    +0.000 N 
ATOM      2  N   UNL     1      -2.121  12.437  19.291  0.00  0.00    +0.000 NA
ATOM      3  C   UNL     1      -3.387  12.220  19.422  0.00  0.00    +0.000 A 
ATOM      4  N   UNL     1      -4.278  12.988  20.370  0.00  0.00    +0.000 N 
ATOM      5  C   UNL     1      -5.528  12.312  20.557  0.00  0.00    +0.000 A 
ATOM      6  C   UNL     1      -6.325  13.424  20.470  0.00  0.00    +0.000 A 
ATOM      7  C   UNL     1      -5.921  14.105  21.594  0.00  0.00    +0.000 A 
ATOM      8  C   UNL     1      -6.704  14.671  22.628  0.00  0.00    +0.000 A 
ATOM      9  C   UNL     1      -6.186  15.223  23.771  0.00  0.00    +0.000 A 
ATOM     10  C   UNL     1      -4.811  15.274  23.807  0.00  0.00    +0.000 A 
ATOM     11  F   UNL     1      -4.293  15.859  24.906  0.00  0.00    +0.000 F 
ATOM     12  C   UNL     1      -3.924  14.734  22.731  0.00  0.00    +0.000 A 
ATOM     13  C   UNL     1      -4.492  14.017  21.568  0.00  0.00    +0.000 A 
ATOM     14  C   UNL     1      -4.026  11.007  18.621  0.00  0.00    +0.000 A 
ATOM     15  C   UNL     1      -3.266  10.250  17.798  0.00  0.00    +0.000 A 
ATOM     16  C   UNL     1      -1.840  10.476  17.705  0.00  0.00    +0.000 A 
ATOM     17  O   UNL     1      -1.132   9.740  17.036  0.00  0.00    +0.000 OA
ENDROOT
BRANCH   1  18
ATOM     18  C   UNL     1       0.044  11.450  18.916  0.00  0.00    +0.000 C 
BRANCH  18  23
ATOM     19  C   UNL     1       1.389   8.099  20.314  0.00  0.00    +0.000 A 
ATOM     20  C   UNL     1       0.713   8.068  21.544  0.00  0.00    +0.000 A 
ATOM     21  C   UNL     1      -0.144   9.102  21.923  0.00  0.00    +0.000 A 
ATOM     22  C   UNL     1      -0.333  10.195  21.080  0.00  0.00    +0.000 A 
ATOM     23  C   UNL     1       0.342  10.286  19.857  0.00  0.00    +0.000 A 
ATOM     24  C   UNL     1       1.224   9.250  19.503  0.00  0.00    +0.000 A 
BRANCH  19  28
ATOM     25  C   UNL     1       3.270   4.665  18.779  0.00  0.00    +0.000 A 
ATOM     26  C   UNL     1       2.657   4.706  19.990  0.00  0.00    +0.000 A 
ATOM     27  N   UNL     1       2.093   5.793  20.550  0.00  0.00    +0.000 NA
ATOM     28  C   UNL     1       2.145   6.943  19.844  0.00  0.00    +0.000 A 
ATOM     29  N   UNL     1       2.722   7.019  18.619  0.00  0.00    +0.000 NA
ATOM     30  C   UNL     1       3.271   5.890  18.131  0.00  0.00    +0.000 A 
BRANCH  25  32
ATOM     31  C   UNL     1       2.893   2.635  17.710  0.00  0.00    +0.000 C 
ATOM     32  O   UNL     1       3.847   3.606  18.154  0.00  0.00    +0.000 OA
ENDBRANCH  25  32
ENDBRANCH  19  28
ENDBRANCH  18  23
ENDBRANCH   1  18
TORSDOF 4
ENDMDL
MODEL 9
REMARK VINA RESULT:      -7.7      3.338      4.299
REMARK  Name = 
REMARK  5 active torsions:
REMARK  status: ('A' for Active; 'I' for Inactive)
REMARK    1  A    between atoms: C_1  and  O_2
REMARK    2  A    between atoms: O_2  and  C_3
REMARK    3  A    between atoms: C_6  and  C_7
REMARK    4  A    between atoms: C_11  and  C_12
REMARK    5  A    between atoms: C_12  and  N_13
REMARK                            x       y       z     vdW  Elec       q    Type
REMARK                         _______ _______ _______ _____ _____    ______ ____
ROOT
ATOM      1  N   UNL     1      -1.966  11.547  18.148  0.00  0.00    +0.000 N 
ATOM      2  N   UNL     1      -2.874  12.344  18.882  0.00  0.00    +0.000 NA
ATOM      3  C   UNL     1      -4.076  11.915  19.075  0.00  0.00    +0.000 A 
ATOM      4  N   UNL     1      -5.057  12.560  20.026  0.00  0.00    +0.000 N 
ATOM      5  C   UNL     1      -6.160  11.684  20.296  0.00  0.00    +0.000 A 
ATOM      6  C   UNL     1      -7.144  12.632  20.195  0.00  0.00    +0.000 A 
ATOM      7  C   UNL     1      -6.829  13.429  21.269  0.00  0.00    +0.000 A 
ATOM      8  C   UNL     1      -7.665  13.899  22.310  0.00  0.00    +0.000 A 
ATOM      9  C   UNL     1      -7.216  14.590  23.406  0.00  0.00    +0.000 A 
ATOM     10  C   UNL     1      -5.870  14.884  23.381  0.00  0.00    +0.000 A 
ATOM     11  F   UNL     1      -5.428  15.606  24.431  0.00  0.00    +0.000 F 
ATOM     12  C   UNL     1      -4.939  14.456  22.292  0.00  0.00    +0.000 A 
ATOM     13  C   UNL     1      -5.409  13.593  21.187  0.00  0.00    +0.000 A 
ATOM     14  C   UNL     1      -4.516  10.570  18.355  0.00  0.00    +0.000 A 
ATOM     15  C   UNL     1      -3.662   9.918  17.534  0.00  0.00    +0.000 A 
ATOM     16  C   UNL     1      -2.303  10.387  17.371  0.00  0.00    +0.000 A 
ATOM     17  O   UNL     1      -1.498   9.755  16.704  0.00  0.00    +0.000 OA
ENDROOT
BRANCH   1  18
ATOM     18  C   UNL     1      -0.583  11.737  18.458  0.00  0.00    +0.000 C 
BRANCH  18  23
ATOM     19  C   UNL     1       1.354   8.637  19.733  0.00  0.00    +0.000 A 
ATOM     20  C   UNL     1       0.820   8.540  21.027  0.00  0.00    +0.000 A 
ATOM     21  C   UNL     1      -0.129   9.455  21.486  0.00  0.00    +0.000 A 
ATOM     22  C   UNL     1      -0.555  10.491  20.659  0.00  0.00    +0.000 A 
ATOM     23  C   UNL     1      -0.029  10.647  19.371  0.00  0.00    +0.000 A 
ATOM     24  C   UNL     1       0.947   9.735  18.934  0.00  0.00    +0.000 A 
BRANCH  19  28
ATOM     25  C   UNL     1       4.097   5.758  18.361  0.00  0.00    +0.000 A 
ATOM     26  C   UNL     1       3.789   6.888  17.674  0.00  0.00    +0.000 A 
ATOM     27  N   UNL     1       2.877   7.808  18.040  0.00  0.00    +0.000 NA
ATOM     28  C   UNL     1       2.211   7.585  19.194  0.00  0.00    +0.000 A 
ATOM     29  N   UNL     1       2.443   6.497  19.969  0.00  0.00    +0.000 NA
ATOM     30  C   UNL     1       3.364   5.619  19.529  0.00  0.00    +0.000 A 
BRANCH  25  32
ATOM     31  C   UNL     1       5.551   4.946  16.739  0.00  0.00    +0.000 C 
ATOM     32  O   UNL     1       5.008   4.798  18.055  0.00  0.00    +0.000 OA
ENDBRANCH  25  32
ENDBRANCH  19  28
ENDBRANCH  18  23
ENDBRANCH   1  18
TORSDOF 4
ENDMDL
