MODEL 1
REMARK VINA RESULT:      -8.4      0.000      0.000
REMARK  Name = 
REMARK  5 active torsions:
REMARK  status: ('A' for Active; 'I' for Inactive)
REMARK    1  A    between atoms: C_1  and  C_2
REMARK    2  A    between atoms: N_4  and  C_5
REMARK    3  A    between atoms: C_9  and  C_10
REMARK    4  A    between atoms: C_22  and  C_24
REMARK    5  A    between atoms: C_24  and  C_25
REMARK                            x       y       z     vdW  Elec       q    Type
REMARK                         _______ _______ _______ _____ _____    ______ ____
ROOT
ATOM      1  C   UNL     1       3.000  16.095  17.862  0.00  0.00    +0.000 C 
ATOM      2  C   UNL     1       3.789  14.809  18.137  0.00  0.00    +0.000 C 
ATOM      3  C   UNL     1       2.846  13.603  18.369  0.00  0.00    +0.000 C 
ATOM      4  N   UNL     1       2.183  13.749  19.666  0.00  0.00    +0.000 N 
ATOM      5  C   UNL     1       3.112  13.845  20.810  0.00  0.00    +0.000 C 
ATOM      6  C   UNL     1       4.076  15.026  20.607  0.00  0.00    +0.000 C 
ATOM      7  N   UNL     1       4.719  14.973  19.283  0.00  0.00    +0.000 N 
ATOM      8  C   UNL     1       6.097  14.869  19.215  0.00  0.00    +0.000 C 
ATOM      9  O   UNL     1       6.803  14.790  20.224  0.00  0.00    +0.000 OA
ENDROOT
BRANCH   4  10
ATOM     10  C   UNL     1       0.849  13.522  19.859  0.00  0.00    +0.000 A 
ATOM     11  S   UNL     1      -0.244  14.773  20.352  0.00  0.00    +0.000 S 
ATOM     12  C   UNL     1      -1.563  13.724  20.110  0.00  0.00    +0.000 A 
ATOM     13  N   UNL     1      -1.279  12.481  19.792  0.00  0.00    +0.000 NA
ATOM     14  C   UNL     1       0.104  12.346  19.731  0.00  0.00    +0.000 A 
BRANCH  14  15
ATOM     15  C   UNL     1       0.704  10.979  19.552  0.00  0.00    +0.000 A 
ATOM     16  N   UNL     1       1.189  10.489  18.430  0.00  0.00    +0.000 NA
ATOM     17  C   UNL     1       1.605   9.223  18.720  0.00  0.00    +0.000 A 
ATOM     18  C   UNL     1       2.188   8.271  17.871  0.00  0.00    +0.000 A 
ATOM     19  C   UNL     1       2.530   7.030  18.405  0.00  0.00    +0.000 A 
ATOM     20  C   UNL     1       2.268   6.735  19.746  0.00  0.00    +0.000 A 
ATOM     21  C   UNL     1       1.677   7.675  20.605  0.00  0.00    +0.000 A 
ATOM     22  C   UNL     1       1.372   8.915  20.050  0.00  0.00    +0.000 A 
ATOM     23  N   UNL     1       0.841  10.072  20.572  0.00  0.00    +0.000 N 
ATOM     24  H   UNL     1       0.570  10.244  21.524  0.00  0.00    +0.000 HD
ENDBRANCH  14  15
ENDBRANCH   4  10
BRANCH   8  25
ATOM     25  C   UNL     1       6.736  14.845  17.838  0.00  0.00    +0.000 C 
BRANCH  25  26
ATOM     26  C   UNL     1       8.241  14.906  17.876  0.00  0.00    +0.000 A 
ATOM     27  C   UNL     1       8.986  16.070  17.818  0.00  0.00    +0.000 A 
ATOM     28  S   UNL     1      10.663  15.788  17.788  0.00  0.00    +0.000 S 
ATOM     29  C   UNL     1      10.449  14.082  17.832  0.00  0.00    +0.000 A 
ATOM     30  C   UNL     1      11.463  13.105  17.779  0.00  0.00    +0.000 A 
ATOM     31  C   UNL     1      11.109  11.757  17.840  0.00  0.00    +0.000 A 
ATOM     32  C   UNL     1       9.781  11.384  17.971  0.00  0.00    +0.000 A 
ATOM     33  C   UNL     1       8.778  12.357  18.017  0.00  0.00    +0.000 A 
ATOM     34  C   UNL     1       9.098  13.737  17.927  0.00  0.00    +0.000 A 
ENDBRANCH  25  26
ENDBRANCH   8  25
TORSDOF 4
ENDMDL
MODEL 2
REMARK VINA RESULT:      -8.2      4.052      7.884
REMARK  Name = 
REMARK  5 active torsions:
REMARK  status: ('A' for Active; 'I' for Inactive)
REMARK    1  A    between atoms: C_1  and  C_2
REMARK    2  A    between atoms: N_4  and  C_5
REMARK    3  A    between atoms: C_9  and  C_10
REMARK    4  A    between atoms: C_22  and  C_24
REMARK    5  A    between atoms: C_24  and  C_25
REMARK                            x       y       z     vdW  Elec       q    Type
REMARK                         _______ _______ _______ _____ _____    ______ ____
ROOT
ATOM      1  C   UNL     1       1.931  11.393  18.263  0.00  0.00    +0.000 C 
ATOM      2  C   UNL     1       0.975  10.208  18.437  0.00  0.00    +0.000 C 
ATOM      3  C   UNL     1      -0.486  10.681  18.637  0.00  0.00    +0.000 C 
ATOM      4  N   UNL     1      -0.623  11.285  19.963  0.00  0.00    +0.000 N 
ATOM      5  C   UNL     1      -0.267  10.381  21.075  0.00  0.00    +0.000 C 
ATOM      6  C   UNL     1       1.176   9.878  20.903  0.00  0.00    +0.000 C 
ATOM      7  N   UNL     1       1.395   9.326  19.555  0.00  0.00    +0.000 N 
ATOM      8  C   UNL     1       1.762   7.997  19.431  0.00  0.00    +0.000 C 
ATOM      9  O   UNL     1       1.885   7.253  20.407  0.00  0.00    +0.000 OA
ENDROOT
BRANCH   4  10
ATOM     10  C   UNL     1      -1.292  12.455  20.192  0.00  0.00    +0.000 A 
ATOM     11  S   UNL     1      -3.012  12.515  20.395  0.00  0.00    +0.000 S 
ATOM     12  C   UNL     1      -2.908  14.158  20.831  0.00  0.00    +0.000 A 
ATOM     13  N   UNL     1      -1.723  14.718  20.747  0.00  0.00    +0.000 NA
ATOM     14  C   UNL     1      -0.815  13.764  20.301  0.00  0.00    +0.000 A 
BRANCH  14  15
ATOM     15  C   UNL     1       0.586  14.185  19.953  0.00  0.00    +0.000 A 
ATOM     16  N   UNL     1       1.651  14.029  20.712  0.00  0.00    +0.000 NA
ATOM     17  C   UNL     1       2.693  14.568  20.018  0.00  0.00    +0.000 A 
ATOM     18  C   UNL     1       4.042  14.666  20.388  0.00  0.00    +0.000 A 
ATOM     19  C   UNL     1       4.930  15.270  19.499  0.00  0.00    +0.000 A 
ATOM     20  C   UNL     1       4.476  15.791  18.284  0.00  0.00    +0.000 A 
ATOM     21  C   UNL     1       3.127  15.709  17.904  0.00  0.00    +0.000 A 
ATOM     22  C   UNL     1       2.270  15.076  18.801  0.00  0.00    +0.000 A 
ATOM     23  N   UNL     1       0.928  14.774  18.762  0.00  0.00    +0.000 N 
ATOM     24  H   UNL     1       0.281  14.959  18.016  0.00  0.00    +0.000 HD
ENDBRANCH  14  15
ENDBRANCH   4  10
BRANCH   8  25
ATOM     25  C   UNL     1       2.009   7.462  18.032  0.00  0.00    +0.000 C 
BRANCH  25  26
ATOM     26  C   UNL     1       3.062   6.386  17.982  0.00  0.00    +0.000 A 
ATOM     27  C   UNL     1       4.416   6.613  17.809  0.00  0.00    +0.000 A 
ATOM     28  S   UNL     1       5.324   5.179  17.703  0.00  0.00    +0.000 S 
ATOM     29  C   UNL     1       3.924   4.195  17.865  0.00  0.00    +0.000 A 
ATOM     30  C   UNL     1       3.874   2.788  17.815  0.00  0.00    +0.000 A 
ATOM     31  C   UNL     1       2.646   2.146  17.979  0.00  0.00    +0.000 A 
ATOM     32  C   UNL     1       1.494   2.882  18.209  0.00  0.00    +0.000 A 
ATOM     33  C   UNL     1       1.547   4.278  18.250  0.00  0.00    +0.000 A 
ATOM     34  C   UNL     1       2.774   4.966  18.057  0.00  0.00    +0.000 A 
ENDBRANCH  25  26
ENDBRANCH   8  25
TORSDOF 4
ENDMDL
MODEL 3
REMARK VINA RESULT:      -8.1      4.094      7.913
REMARK  Name = 
REMARK  5 active torsions:
REMARK  status: ('A' for Active; 'I' for Inactive)
REMARK    1  A    between atoms: C_1  and  C_2
REMARK    2  A    between atoms: N_4  and  C_5
REMARK    3  A    between atoms: C_9  and  C_10
REMARK    4  A    between atoms: C_22  and  C_24
REMARK    5  A    between atoms: C_24  and  C_25
REMARK                            x       y       z     vdW  Elec       q    Type
REMARK                         _______ _______ _______ _____ _____    ______ ____
ROOT
ATOM      1  C   UNL     1       1.945  11.204  18.204  0.00  0.00    +0.000 C 
ATOM      2  C   UNL     1       1.019   9.996  18.381  0.00  0.00    +0.000 C 
ATOM      3  C   UNL     1      -0.459  10.431  18.539  0.00  0.00    +0.000 C 
ATOM      4  N   UNL     1      -0.642  11.057  19.850  0.00  0.00    +0.000 N 
ATOM      5  C   UNL     1      -0.286  10.185  20.987  0.00  0.00    +0.000 C 
ATOM      6  C   UNL     1       1.175   9.720  20.857  0.00  0.00    +0.000 C 
ATOM      7  N   UNL     1       1.439   9.148  19.525  0.00  0.00    +0.000 N 
ATOM      8  C   UNL     1       1.845   7.828  19.436  0.00  0.00    +0.000 C 
ATOM      9  O   UNL     1       1.967   7.107  20.430  0.00  0.00    +0.000 OA
ENDROOT
BRANCH   4  10
ATOM     10  C   UNL     1      -1.348  12.211  20.040  0.00  0.00    +0.000 A 
ATOM     11  S   UNL     1      -3.075  12.229  20.188  0.00  0.00    +0.000 S 
ATOM     12  C   UNL     1      -3.028  13.879  20.604  0.00  0.00    +0.000 A 
ATOM     13  N   UNL     1      -1.856  14.470  20.548  0.00  0.00    +0.000 NA
ATOM     14  C   UNL     1      -0.909  13.534  20.144  0.00  0.00    +0.000 A 
BRANCH  14  15
ATOM     15  C   UNL     1       0.490  13.987  19.834  0.00  0.00    +0.000 A 
ATOM     16  N   UNL     1       0.895  14.523  18.701  0.00  0.00    +0.000 NA
ATOM     17  C   UNL     1       2.230  14.759  18.850  0.00  0.00    +0.000 A 
ATOM     18  C   UNL     1       3.135  15.311  17.932  0.00  0.00    +0.000 A 
ATOM     19  C   UNL     1       4.467  15.452  18.319  0.00  0.00    +0.000 A 
ATOM     20  C   UNL     1       4.891  15.023  19.581  0.00  0.00    +0.000 A 
ATOM     21  C   UNL     1       3.997  14.461  20.507  0.00  0.00    +0.000 A 
ATOM     22  C   UNL     1       2.669  14.359  20.101  0.00  0.00    +0.000 A 
ATOM     23  N   UNL     1       1.528  13.914  20.728  0.00  0.00    +0.000 N 
ATOM     24  H   UNL     1       1.442  13.570  21.668  0.00  0.00    +0.000 HD
ENDBRANCH  14  15
ENDBRANCH   4  10
BRANCH   8  25
ATOM     25  C   UNL     1       2.138   7.272  18.054  0.00  0.00    +0.000 C 
BRANCH  25  26
ATOM     26  C   UNL     1       3.118   6.129  18.066  0.00  0.00    +0.000 A 
ATOM     27  C   UNL     1       4.486   6.258  17.905  0.00  0.00    +0.000 A 
ATOM     28  S   UNL     1       5.298   4.765  17.873  0.00  0.00    +0.000 S 
ATOM     29  C   UNL     1       3.834   3.882  18.055  0.00  0.00    +0.000 A 
ATOM     30  C   UNL     1       3.691   2.481  18.064  0.00  0.00    +0.000 A 
ATOM     31  C   UNL     1       2.422   1.929  18.236  0.00  0.00    +0.000 A 
ATOM     32  C   UNL     1       1.319   2.748  18.416  0.00  0.00    +0.000 A 
ATOM     33  C   UNL     1       1.463   4.139  18.399  0.00  0.00    +0.000 A 
ATOM     34  C   UNL     1       2.736   4.735  18.196  0.00  0.00    +0.000 A 
ENDBRANCH  25  26
ENDBRANCH   8  25
TORSDOF 4
ENDMDL
MODEL 4
REMARK VINA RESULT:      -8.0      4.392      7.854
REMARK  Name = 
REMARK  5 active torsions:
REMARK  status: ('A' for Active; 'I' for Inactive)
REMARK    1  A    between atoms: C_1  and  C_2
REMARK    2  A    between atoms: N_4  and  C_5
REMARK    3  A    between atoms: C_9  and  C_10
REMARK    4  A    between atoms: C_22  and  C_24
REMARK    5  A    between atoms: C_24  and  C_25
REMARK                            x       y       z     vdW  Elec       q    Type
REMARK                         _______ _______ _______ _____ _____    ______ ____
ROOT
ATOM      1  C   UNL     1      -0.355   8.378  21.592  0.00  0.00    +0.000 C 
ATOM      2  C   UNL     1       0.996   8.883  21.073  0.00  0.00    +0.000 C 
ATOM      3  C   UNL     1       1.344  10.276  21.655  0.00  0.00    +0.000 C 
ATOM      4  N   UNL     1       0.473  11.285  21.050  0.00  0.00    +0.000 N 
ATOM      5  C   UNL     1       0.566  11.355  19.578  0.00  0.00    +0.000 C 
ATOM      6  C   UNL     1       0.240   9.983  18.964  0.00  0.00    +0.000 C 
ATOM      7  N   UNL     1       1.036   8.913  19.589  0.00  0.00    +0.000 N 
ATOM      8  C   UNL     1       1.898   8.174  18.797  0.00  0.00    +0.000 C 
ATOM      9  O   UNL     1       2.043   8.400  17.593  0.00  0.00    +0.000 OA
ENDROOT
BRANCH   4  10
ATOM     10  C   UNL     1      -0.144  12.272  21.766  0.00  0.00    +0.000 A 
ATOM     11  S   UNL     1      -1.463  11.951  22.843  0.00  0.00    +0.000 S 
ATOM     12  C   UNL     1      -1.406  13.559  23.400  0.00  0.00    +0.000 A 
ATOM     13  N   UNL     1      -0.564  14.365  22.794  0.00  0.00    +0.000 NA
ATOM     14  C   UNL     1       0.097  13.648  21.803  0.00  0.00    +0.000 A 
BRANCH  14  15
ATOM     15  C   UNL     1       0.996  14.375  20.842  0.00  0.00    +0.000 A 
ATOM     16  N   UNL     1       0.623  15.309  19.990  0.00  0.00    +0.000 NA
ATOM     17  C   UNL     1       1.748  15.672  19.310  0.00  0.00    +0.000 A 
ATOM     18  C   UNL     1       1.892  16.621  18.288  0.00  0.00    +0.000 A 
ATOM     19  C   UNL     1       3.159  16.816  17.740  0.00  0.00    +0.000 A 
ATOM     20  C   UNL     1       4.249  16.060  18.180  0.00  0.00    +0.000 A 
ATOM     21  C   UNL     1       4.118  15.100  19.196  0.00  0.00    +0.000 A 
ATOM     22  C   UNL     1       2.846  14.947  19.743  0.00  0.00    +0.000 A 
ATOM     23  N   UNL     1       2.348  14.161  20.757  0.00  0.00    +0.000 N 
ATOM     24  H   UNL     1       2.857  13.516  21.335  0.00  0.00    +0.000 HD
ENDBRANCH  14  15
ENDBRANCH   4  10
BRANCH   8  25
ATOM     25  C   UNL     1       2.684   7.058  19.461  0.00  0.00    +0.000 C 
BRANCH  25  26
ATOM     26  C   UNL     1       2.861   5.848  18.583  0.00  0.00    +0.000 A 
ATOM     27  C   UNL     1       2.013   4.756  18.561  0.00  0.00    +0.000 A 
ATOM     28  S   UNL     1       2.546   3.516  17.527  0.00  0.00    +0.000 S 
ATOM     29  C   UNL     1       3.955   4.395  17.082  0.00  0.00    +0.000 A 
ATOM     30  C   UNL     1       4.988   3.956  16.230  0.00  0.00    +0.000 A 
ATOM     31  C   UNL     1       6.059   4.810  15.965  0.00  0.00    +0.000 A 
ATOM     32  C   UNL     1       6.096   6.081  16.516  0.00  0.00    +0.000 A 
ATOM     33  C   UNL     1       5.073   6.511  17.366  0.00  0.00    +0.000 A 
ATOM     34  C   UNL     1       3.983   5.657  17.682  0.00  0.00    +0.000 A 
ENDBRANCH  25  26
ENDBRANCH   8  25
TORSDOF 4
ENDMDL
MODEL 5
REMARK VINA RESULT:      -8.0      4.376      8.500
REMARK  Name = 
REMARK  5 active torsions:
REMARK  status: ('A' for Active; 'I' for Inactive)
REMARK    1  A    between atoms: C_1  and  C_2
REMARK    2  A    between atoms: N_4  and  C_5
REMARK    3  A    between atoms: C_9  and  C_10
REMARK    4  A    between atoms: C_22  and  C_24
REMARK    5  A    between atoms: C_24  and  C_25
REMARK                            x       y       z     vdW  Elec       q    Type
REMARK                         _______ _______ _______ _____ _____    ______ ____
ROOT
ATOM      1  C   UNL     1      -0.378   8.397  21.658  0.00  0.00    +0.000 C 
ATOM      2  C   UNL     1       0.991   8.907  21.194  0.00  0.00    +0.000 C 
ATOM      3  C   UNL     1       1.294  10.318  21.757  0.00  0.00    +0.000 C 
ATOM      4  N   UNL     1       0.441  11.300  21.087  0.00  0.00    +0.000 N 
ATOM      5  C   UNL     1       0.604  11.337  19.620  0.00  0.00    +0.000 C 
ATOM      6  C   UNL     1       0.325   9.947  19.024  0.00  0.00    +0.000 C 
ATOM      7  N   UNL     1       1.102   8.902  19.712  0.00  0.00    +0.000 N 
ATOM      8  C   UNL     1       2.010   8.157  18.982  0.00  0.00    +0.000 C 
ATOM      9  O   UNL     1       2.211   8.355  17.781  0.00  0.00    +0.000 OA
ENDROOT
BRANCH   4  10
ATOM     10  C   UNL     1      -0.222  12.296  21.748  0.00  0.00    +0.000 A 
ATOM     11  S   UNL     1      -1.601  11.986  22.751  0.00  0.00    +0.000 S 
ATOM     12  C   UNL     1      -1.585  13.604  23.282  0.00  0.00    +0.000 A 
ATOM     13  N   UNL     1      -0.712  14.405  22.713  0.00  0.00    +0.000 NA
ATOM     14  C   UNL     1       0.010  13.674  21.775  0.00  0.00    +0.000 A 
BRANCH  14  15
ATOM     15  C   UNL     1       0.961  14.390  20.856  0.00  0.00    +0.000 A 
ATOM     16  N   UNL     1       0.623  15.196  19.870  0.00  0.00    +0.000 NA
ATOM     17  C   UNL     1       1.791  15.601  19.295  0.00  0.00    +0.000 A 
ATOM     18  C   UNL     1       1.985  16.456  18.201  0.00  0.00    +0.000 A 
ATOM     19  C   UNL     1       3.291  16.721  17.791  0.00  0.00    +0.000 A 
ATOM     20  C   UNL     1       4.375  16.121  18.439  0.00  0.00    +0.000 A 
ATOM     21  C   UNL     1       4.196  15.255  19.529  0.00  0.00    +0.000 A 
ATOM     22  C   UNL     1       2.882  15.033  19.933  0.00  0.00    +0.000 A 
ATOM     23  N   UNL     1       2.326  14.302  20.958  0.00  0.00    +0.000 N 
ATOM     24  H   UNL     1       2.808  13.769  21.659  0.00  0.00    +0.000 HD
ENDBRANCH  14  15
ENDBRANCH   4  10
BRANCH   8  25
ATOM     25  C   UNL     1       2.777   7.067  19.710  0.00  0.00    +0.000 C 
BRANCH  25  26
ATOM     26  C   UNL     1       3.076   5.869  18.848  0.00  0.00    +0.000 A 
ATOM     27  C   UNL     1       4.010   5.841  17.828  0.00  0.00    +0.000 A 
ATOM     28  S   UNL     1       4.035   4.364  16.986  0.00  0.00    +0.000 S 
ATOM     29  C   UNL     1       2.772   3.710  17.951  0.00  0.00    +0.000 A 
ATOM     30  C   UNL     1       2.168   2.445  17.803  0.00  0.00    +0.000 A 
ATOM     31  C   UNL     1       1.158   2.067  18.688  0.00  0.00    +0.000 A 
ATOM     32  C   UNL     1       0.768   2.916  19.712  0.00  0.00    +0.000 A 
ATOM     33  C   UNL     1       1.365   4.173  19.851  0.00  0.00    +0.000 A 
ATOM     34  C   UNL     1       2.375   4.602  18.950  0.00  0.00    +0.000 A 
ENDBRANCH  25  26
ENDBRANCH   8  25
TORSDOF 4
ENDMDL
MODEL 6
REMARK VINA RESULT:      -8.0      5.074      7.814
REMARK  Name = 
REMARK  5 active torsions:
REMARK  status: ('A' for Active; 'I' for Inactive)
REMARK    1  A    between atoms: C_1  and  C_2
REMARK    2  A    between atoms: N_4  and  C_5
REMARK    3  A    between atoms: C_9  and  C_10
REMARK    4  A    between atoms: C_22  and  C_24
REMARK    5  A    between atoms: C_24  and  C_25
REMARK                            x       y       z     vdW  Elec       q    Type
REMARK                         _______ _______ _______ _____ _____    ______ ____
ROOT
ATOM      1  C   UNL     1       2.101  12.095  18.636  0.00  0.00    +0.000 C 
ATOM      2  C   UNL     1       0.968  11.065  18.718  0.00  0.00    +0.000 C 
ATOM      3  C   UNL     1      -0.401  11.744  18.971  0.00  0.00    +0.000 C 
ATOM      4  N   UNL     1      -0.445  12.246  20.345  0.00  0.00    +0.000 N 
ATOM      5  C   UNL     1      -0.240  11.206  21.373  0.00  0.00    +0.000 C 
ATOM      6  C   UNL     1       1.106  10.498  21.145  0.00  0.00    +0.000 C 
ATOM      7  N   UNL     1       1.240  10.035  19.754  0.00  0.00    +0.000 N 
ATOM      8  C   UNL     1       1.393   8.681  19.514  0.00  0.00    +0.000 C 
ATOM      9  O   UNL     1       1.393   7.847  20.423  0.00  0.00    +0.000 OA
ENDROOT
BRANCH   4  10
ATOM     10  C   UNL     1      -0.922  13.483  20.679  0.00  0.00    +0.000 A 
ATOM     11  S   UNL     1       0.089  14.714  21.361  0.00  0.00    +0.000 S 
ATOM     12  C   UNL     1      -1.179  15.842  21.218  0.00  0.00    +0.000 A 
ATOM     13  N   UNL     1      -2.337  15.380  20.803  0.00  0.00    +0.000 NA
ATOM     14  C   UNL     1      -2.211  14.014  20.575  0.00  0.00    +0.000 A 
BRANCH  14  15
ATOM     15  C   UNL     1      -3.436  13.203  20.256  0.00  0.00    +0.000 A 
ATOM     16  N   UNL     1      -4.458  12.999  21.061  0.00  0.00    +0.000 NA
ATOM     17  C   UNL     1      -5.324  12.198  20.377  0.00  0.00    +0.000 A 
ATOM     18  C   UNL     1      -6.561  11.681  20.789  0.00  0.00    +0.000 A 
ATOM     19  C   UNL     1      -7.271  10.874  19.902  0.00  0.00    +0.000 A 
ATOM     20  C   UNL     1      -6.744  10.565  18.644  0.00  0.00    +0.000 A 
ATOM     21  C   UNL     1      -5.503  11.067  18.221  0.00  0.00    +0.000 A 
ATOM     22  C   UNL     1      -4.831  11.893  19.119  0.00  0.00    +0.000 A 
ATOM     23  N   UNL     1      -3.645  12.588  19.048  0.00  0.00    +0.000 N 
ATOM     24  H   UNL     1      -3.012  12.637  18.270  0.00  0.00    +0.000 HD
ENDBRANCH  14  15
ENDBRANCH   4  10
BRANCH   8  25
ATOM     25  C   UNL     1       1.557   8.234  18.072  0.00  0.00    +0.000 C 
BRANCH  25  26
ATOM     26  C   UNL     1       2.726   7.306  17.864  0.00  0.00    +0.000 A 
ATOM     27  C   UNL     1       4.024   7.714  17.618  0.00  0.00    +0.000 A 
ATOM     28  S   UNL     1       5.088   6.417  17.335  0.00  0.00    +0.000 S 
ATOM     29  C   UNL     1       3.834   5.255  17.515  0.00  0.00    +0.000 A 
ATOM     30  C   UNL     1       3.950   3.859  17.358  0.00  0.00    +0.000 A 
ATOM     31  C   UNL     1       2.825   3.058  17.556  0.00  0.00    +0.000 A 
ATOM     32  C   UNL     1       1.615   3.625  17.921  0.00  0.00    +0.000 A 
ATOM     33  C   UNL     1       1.502   5.011  18.069  0.00  0.00    +0.000 A 
ATOM     34  C   UNL     1       2.618   5.860  17.847  0.00  0.00    +0.000 A 
ENDBRANCH  25  26
ENDBRANCH   8  25
TORSDOF 4
ENDMDL
MODEL 7
REMARK VINA RESULT:      -8.0      4.243      7.887
REMARK  Name = 
REMARK  5 active torsions:
REMARK  status: ('A' for Active; 'I' for Inactive)
REMARK    1  A    between atoms: C_1  and  C_2
REMARK    2  A    between atoms: N_4  and  C_5
REMARK    3  A    between atoms: C_9  and  C_10
REMARK    4  A    between atoms: C_22  and  C_24
REMARK    5  A    between atoms: C_24  and  C_25
REMARK                            x       y       z     vdW  Elec       q    Type
REMARK                         _______ _______ _______ _____ _____    ______ ____
ROOT
ATOM      1  C   UNL     1      -0.405   8.460  21.566  0.00  0.00    +0.000 C 
ATOM      2  C   UNL     1       0.957   8.924  21.035  0.00  0.00    +0.000 C 
ATOM      3  C   UNL     1       1.339  10.318  21.591  0.00  0.00    +0.000 C 
ATOM      4  N   UNL     1       0.490  11.336  20.972  0.00  0.00    +0.000 N 
ATOM      5  C   UNL     1       0.579  11.379  19.498  0.00  0.00    +0.000 C 
ATOM      6  C   UNL     1       0.220  10.005  18.909  0.00  0.00    +0.000 C 
ATOM      7  N   UNL     1       0.992   8.927  19.550  0.00  0.00    +0.000 N 
ATOM      8  C   UNL     1       1.834   8.156  18.769  0.00  0.00    +0.000 C 
ATOM      9  O   UNL     1       1.980   8.356  17.560  0.00  0.00    +0.000 OA
ENDROOT
BRANCH   4  10
ATOM     10  C   UNL     1      -0.102  12.350  21.672  0.00  0.00    +0.000 A 
ATOM     11  S   UNL     1      -1.643  12.169  22.443  0.00  0.00    +0.000 S 
ATOM     12  C   UNL     1      -1.457  13.690  23.185  0.00  0.00    +0.000 A 
ATOM     13  N   UNL     1      -0.398  14.389  22.843  0.00  0.00    +0.000 NA
ATOM     14  C   UNL     1       0.333  13.656  21.914  0.00  0.00    +0.000 A 
BRANCH  14  15
ATOM     15  C   UNL     1       1.506  14.298  21.227  0.00  0.00    +0.000 A 
ATOM     16  N   UNL     1       2.743  14.332  21.680  0.00  0.00    +0.000 NA
ATOM     17  C   UNL     1       3.465  15.026  20.755  0.00  0.00    +0.000 A 
ATOM     18  C   UNL     1       4.829  15.352  20.765  0.00  0.00    +0.000 A 
ATOM     19  C   UNL     1       5.344  16.081  19.694  0.00  0.00    +0.000 A 
ATOM     20  C   UNL     1       4.510  16.501  18.653  0.00  0.00    +0.000 A 
ATOM     21  C   UNL     1       3.141  16.190  18.634  0.00  0.00    +0.000 A 
ATOM     22  C   UNL     1       2.662  15.438  19.704  0.00  0.00    +0.000 A 
ATOM     23  N   UNL     1       1.425  14.917  20.005  0.00  0.00    +0.000 N 
ATOM     24  H   UNL     1       0.585  14.982  19.458  0.00  0.00    +0.000 HD
ENDBRANCH  14  15
ENDBRANCH   4  10
BRANCH   8  25
ATOM     25  C   UNL     1       2.596   7.033  19.450  0.00  0.00    +0.000 C 
BRANCH  25  26
ATOM     26  C   UNL     1       2.825   5.840  18.559  0.00  0.00    +0.000 A 
ATOM     27  C   UNL     1       1.991   4.739  18.482  0.00  0.00    +0.000 A 
ATOM     28  S   UNL     1       2.583   3.524  17.450  0.00  0.00    +0.000 S 
ATOM     29  C   UNL     1       3.999   4.427  17.081  0.00  0.00    +0.000 A 
ATOM     30  C   UNL     1       5.072   4.014  16.267  0.00  0.00    +0.000 A 
ATOM     31  C   UNL     1       6.143   4.885  16.063  0.00  0.00    +0.000 A 
ATOM     32  C   UNL     1       6.142   6.146  16.637  0.00  0.00    +0.000 A 
ATOM     33  C   UNL     1       5.078   6.549  17.450  0.00  0.00    +0.000 A 
ATOM     34  C   UNL     1       3.986   5.678  17.704  0.00  0.00    +0.000 A 
ENDBRANCH  25  26
ENDBRANCH   8  25
TORSDOF 4
ENDMDL
MODEL 8
REMARK VINA RESULT:      -7.9      4.362      8.539
REMARK  Name = 
REMARK  5 active torsions:
REMARK  status: ('A' for Active; 'I' for Inactive)
REMARK    1  A    between atoms: C_1  and  C_2
REMARK    2  A    between atoms: N_4  and  C_5
REMARK    3  A    between atoms: C_9  and  C_10
REMARK    4  A    between atoms: C_22  and  C_24
REMARK    5  A    between atoms: C_24  and  C_25
REMARK                            x       y       z     vdW  Elec       q    Type
REMARK                         _______ _______ _______ _____ _____    ______ ____
ROOT
ATOM      1  C   UNL     1      -0.485   8.546  21.633  0.00  0.00    +0.000 C 
ATOM      2  C   UNL     1       0.874   9.064  21.147  0.00  0.00    +0.000 C 
ATOM      3  C   UNL     1       1.161  10.492  21.674  0.00  0.00    +0.000 C 
ATOM      4  N   UNL     1       0.290  11.446  20.986  0.00  0.00    +0.000 N 
ATOM      5  C   UNL     1       0.442  11.449  19.517  0.00  0.00    +0.000 C 
ATOM      6  C   UNL     1       0.179  10.041  18.958  0.00  0.00    +0.000 C 
ATOM      7  N   UNL     1       0.975   9.024  19.665  0.00  0.00    +0.000 N 
ATOM      8  C   UNL     1       1.888   8.274  18.946  0.00  0.00    +0.000 C 
ATOM      9  O   UNL     1       2.078   8.446  17.739  0.00  0.00    +0.000 OA
ENDROOT
BRANCH   4  10
ATOM     10  C   UNL     1      -0.382  12.448  21.627  0.00  0.00    +0.000 A 
ATOM     11  S   UNL     1      -2.008  12.259  22.197  0.00  0.00    +0.000 S 
ATOM     12  C   UNL     1      -1.913  13.765  22.987  0.00  0.00    +0.000 A 
ATOM     13  N   UNL     1      -0.819  14.466  22.792  0.00  0.00    +0.000 NA
ATOM     14  C   UNL     1       0.021  13.748  21.947  0.00  0.00    +0.000 A 
BRANCH  14  15
ATOM     15  C   UNL     1       1.272  14.398  21.424  0.00  0.00    +0.000 A 
ATOM     16  N   UNL     1       2.421  14.485  22.060  0.00  0.00    +0.000 NA
ATOM     17  C   UNL     1       3.263  15.165  21.230  0.00  0.00    +0.000 A 
ATOM     18  C   UNL     1       4.600  15.531  21.437  0.00  0.00    +0.000 A 
ATOM     19  C   UNL     1       5.258  16.235  20.430  0.00  0.00    +0.000 A 
ATOM     20  C   UNL     1       4.587  16.592  19.257  0.00  0.00    +0.000 A 
ATOM     21  C   UNL     1       3.245  16.241  19.039  0.00  0.00    +0.000 A 
ATOM     22  C   UNL     1       2.623  15.514  20.052  0.00  0.00    +0.000 A 
ATOM     23  N   UNL     1       1.367  14.969  20.180  0.00  0.00    +0.000 N 
ATOM     24  H   UNL     1       0.621  14.989  19.507  0.00  0.00    +0.000 HD
ENDBRANCH  14  15
ENDBRANCH   4  10
BRANCH   8  25
ATOM     25  C   UNL     1       2.675   7.213  19.696  0.00  0.00    +0.000 C 
BRANCH  25  26
ATOM     26  C   UNL     1       3.003   6.007  18.854  0.00  0.00    +0.000 A 
ATOM     27  C   UNL     1       3.936   5.986  17.833  0.00  0.00    +0.000 A 
ATOM     28  S   UNL     1       3.998   4.495  17.017  0.00  0.00    +0.000 S 
ATOM     29  C   UNL     1       2.753   3.826  17.996  0.00  0.00    +0.000 A 
ATOM     30  C   UNL     1       2.182   2.544  17.871  0.00  0.00    +0.000 A 
ATOM     31  C   UNL     1       1.184   2.156  18.765  0.00  0.00    +0.000 A 
ATOM     32  C   UNL     1       0.774   3.012  19.775  0.00  0.00    +0.000 A 
ATOM     33  C   UNL     1       1.338   4.286  19.891  0.00  0.00    +0.000 A 
ATOM     34  C   UNL     1       2.335   4.726  18.980  0.00  0.00    +0.000 A 
ENDBRANCH  25  26
ENDBRANCH   8  25
TORSDOF 4
ENDMDL
MODEL 9
REMARK VINA RESULT:      -7.9      4.538      8.542
REMARK  Name = 
REMARK  5 active torsions:
REMARK  status: ('A' for Active; 'I' for Inactive)
REMARK    1  A    between atoms: C_1  and  C_2
REMARK    2  A    between atoms: N_4  and  C_5
REMARK    3  A    between atoms: C_9  and  C_10
REMARK    4  A    between atoms: C_22  and  C_24
REMARK    5  A    between atoms: C_24  and  C_25
REMARK                            x       y       z     vdW  Elec       q    Type
REMARK                         _______ _______ _______ _____ _____    ______ ____
ROOT
ATOM      1  C   UNL     1      -0.432   8.506  21.812  0.00  0.00    +0.000 C 
ATOM      2  C   UNL     1       0.903   9.030  21.271  0.00  0.00    +0.000 C 
ATOM      3  C   UNL     1       1.199  10.463  21.777  0.00  0.00    +0.000 C 
ATOM      4  N   UNL     1       0.295  11.407  21.116  0.00  0.00    +0.000 N 
ATOM      5  C   UNL     1       0.392  11.401  19.643  0.00  0.00    +0.000 C 
ATOM      6  C   UNL     1       0.118   9.987  19.103  0.00  0.00    +0.000 C 
ATOM      7  N   UNL     1       0.948   8.981  19.787  0.00  0.00    +0.000 N 
ATOM      8  C   UNL     1       1.839   8.232  19.039  0.00  0.00    +0.000 C 
ATOM      9  O   UNL     1       1.981   8.397  17.824  0.00  0.00    +0.000 OA
ENDROOT
BRANCH   4  10
ATOM     10  C   UNL     1      -0.359  12.409  21.776  0.00  0.00    +0.000 A 
ATOM     11  S   UNL     1      -1.688  12.102  22.846  0.00  0.00    +0.000 S 
ATOM     12  C   UNL     1      -1.683  13.735  23.329  0.00  0.00    +0.000 A 
ATOM     13  N   UNL     1      -0.852  14.535  22.700  0.00  0.00    +0.000 NA
ATOM     14  C   UNL     1      -0.155  13.791  21.753  0.00  0.00    +0.000 A 
BRANCH  14  15
ATOM     15  C   UNL     1       0.741  14.498  20.774  0.00  0.00    +0.000 A 
ATOM     16  N   UNL     1       2.047  14.353  20.678  0.00  0.00    +0.000 NA
ATOM     17  C   UNL     1       2.448  15.192  19.681  0.00  0.00    +0.000 A 
ATOM     18  C   UNL     1       3.741  15.422  19.189  0.00  0.00    +0.000 A 
ATOM     19  C   UNL     1       3.901  16.341  18.153  0.00  0.00    +0.000 A 
ATOM     20  C   UNL     1       2.801  17.034  17.640  0.00  0.00    +0.000 A 
ATOM     21  C   UNL     1       1.501  16.821  18.128  0.00  0.00    +0.000 A 
ATOM     22  C   UNL     1       1.370  15.877  19.145  0.00  0.00    +0.000 A 
ATOM     23  N   UNL     1       0.284  15.379  19.828  0.00  0.00    +0.000 N 
ATOM     24  H   UNL     1      -0.683  15.617  19.694  0.00  0.00    +0.000 HD
ENDBRANCH  14  15
ENDBRANCH   4  10
BRANCH   8  25
ATOM     25  C   UNL     1       2.662   7.182  19.764  0.00  0.00    +0.000 C 
BRANCH  25  26
ATOM     26  C   UNL     1       2.997   5.989  18.908  0.00  0.00    +0.000 A 
ATOM     27  C   UNL     1       3.939   5.982  17.896  0.00  0.00    +0.000 A 
ATOM     28  S   UNL     1       4.008   4.504  17.058  0.00  0.00    +0.000 S 
ATOM     29  C   UNL     1       2.754   3.821  18.014  0.00  0.00    +0.000 A 
ATOM     30  C   UNL     1       2.183   2.541  17.865  0.00  0.00    +0.000 A 
ATOM     31  C   UNL     1       1.176   2.141  18.744  0.00  0.00    +0.000 A 
ATOM     32  C   UNL     1       0.757   2.982  19.762  0.00  0.00    +0.000 A 
ATOM     33  C   UNL     1       1.321   4.253  19.903  0.00  0.00    +0.000 A 
ATOM     34  C   UNL     1       2.327   4.706  19.008  0.00  0.00    +0.000 A 
ENDBRANCH  25  26
ENDBRANCH   8  25
TORSDOF 4
ENDMDL
