MODEL 1
REMARK VINA RESULT:      -7.5      0.000      0.000
REMARK  Name = 
REMARK  3 active torsions:
REMARK  status: ('A' for Active; 'I' for Inactive)
REMARK    1  A    between atoms: N_1  and  C_2
REMARK    2  A    between atoms: C_4  and  C_6
REMARK    3  A    between atoms: C_10  and  S_11
REMARK                            x       y       z     vdW  Elec       q    Type
REMARK                         _______ _______ _______ _____ _____    ______ ____
ROOT
ATOM      1  C   UNL     1       4.934   5.290  17.076  0.00  0.00    +0.000 A 
ATOM      2  C   UNL     1       5.482   5.813  18.273  0.00  0.00    +0.000 A 
ATOM      3  C   UNL     1       4.935   5.466  19.515  0.00  0.00    +0.000 A 
ATOM      4  C   UNL     1       3.818   4.629  19.585  0.00  0.00    +0.000 A 
ATOM      5  C   UNL     1       3.227   4.126  18.407  0.00  0.00    +0.000 A 
ATOM      6  C   UNL     1       3.824   4.436  17.167  0.00  0.00    +0.000 A 
ENDROOT
BRANCH   5   7
ATOM      7  S   UNL     1       1.673   3.149  18.473  0.00  0.00    +0.000 S 
ATOM      8  F   UNL     1       0.220   2.249  18.534  0.00  0.00    +0.000 F 
ATOM      9  F   UNL     1       2.243   2.097  17.252  0.00  0.00    +0.000 F 
ATOM     10  F   UNL     1       0.964   4.163  17.285  0.00  0.00    +0.000 F 
ATOM     11  F   UNL     1       1.044   4.183  19.689  0.00  0.00    +0.000 F 
ATOM     12  F   UNL     1       2.348   2.121  19.661  0.00  0.00    +0.000 F 
ENDBRANCH   5   7
BRANCH   1  15
ATOM     13  C   UNL     1       6.756   5.046  14.963  0.00  0.00    +0.000 C 
ATOM     14  C   UNL     1       5.410   4.348  14.872  0.00  0.00    +0.000 C 
ATOM     15  C   UNL     1       5.520   5.623  15.704  0.00  0.00    +0.000 C 
ATOM     16  F   UNL     1       4.897   6.657  15.026  0.00  0.00    +0.000 F 
BRANCH  13  17
ATOM     17  N   UNL     1       7.751   4.533  15.906  0.00  0.00    +0.000 NA
ATOM     18  H   UNL     1       8.648   5.030  15.691  0.00  0.00    +0.000 HD
ATOM     19  H   UNL     1       7.952   3.525  15.728  0.00  0.00    +0.000 HD
ENDBRANCH  13  17
ENDBRANCH   1  15
TORSDOF 3
ENDMDL
MODEL 2
REMARK VINA RESULT:      -7.5      0.067      1.190
REMARK  Name = 
REMARK  3 active torsions:
REMARK  status: ('A' for Active; 'I' for Inactive)
REMARK    1  A    between atoms: N_1  and  C_2
REMARK    2  A    between atoms: C_4  and  C_6
REMARK    3  A    between atoms: C_10  and  S_11
REMARK                            x       y       z     vdW  Elec       q    Type
REMARK                         _______ _______ _______ _____ _____    ______ ____
ROOT
ATOM      1  C   UNL     1       4.926   5.267  17.099  0.00  0.00    +0.000 A 
ATOM      2  C   UNL     1       5.439   5.831  18.293  0.00  0.00    +0.000 A 
ATOM      3  C   UNL     1       4.869   5.510  19.531  0.00  0.00    +0.000 A 
ATOM      4  C   UNL     1       3.762   4.660  19.600  0.00  0.00    +0.000 A 
ATOM      5  C   UNL     1       3.204   4.117  18.423  0.00  0.00    +0.000 A 
ATOM      6  C   UNL     1       3.825   4.401  17.189  0.00  0.00    +0.000 A 
ENDROOT
BRANCH   5   7
ATOM      7  S   UNL     1       1.662   3.121  18.482  0.00  0.00    +0.000 S 
ATOM      8  F   UNL     1       0.226   2.195  18.546  0.00  0.00    +0.000 F 
ATOM      9  F   UNL     1       0.925   4.134  17.319  0.00  0.00    +0.000 F 
ATOM     10  F   UNL     1       1.051   4.108  19.744  0.00  0.00    +0.000 F 
ATOM     11  F   UNL     1       2.346   2.082  19.663  0.00  0.00    +0.000 F 
ATOM     12  F   UNL     1       2.241   2.117  17.225  0.00  0.00    +0.000 F 
ENDBRANCH   5   7
BRANCH   1  15
ATOM     13  C   UNL     1       6.791   4.981  15.029  0.00  0.00    +0.000 C 
ATOM     14  C   UNL     1       5.450   4.276  14.927  0.00  0.00    +0.000 C 
ATOM     15  C   UNL     1       5.538   5.571  15.732  0.00  0.00    +0.000 C 
ATOM     16  F   UNL     1       4.925   6.586  15.017  0.00  0.00    +0.000 F 
BRANCH  13  17
ATOM     17  N   UNL     1       7.768   4.495  16.004  0.00  0.00    +0.000 NA
ATOM     18  H   UNL     1       7.368   3.617  16.413  0.00  0.00    +0.000 HD
ATOM     19  H   UNL     1       7.853   5.152  16.810  0.00  0.00    +0.000 HD
ENDBRANCH  13  17
ENDBRANCH   1  15
TORSDOF 3
ENDMDL
MODEL 3
REMARK VINA RESULT:      -7.5      0.119      1.664
REMARK  Name = 
REMARK  3 active torsions:
REMARK  status: ('A' for Active; 'I' for Inactive)
REMARK    1  A    between atoms: N_1  and  C_2
REMARK    2  A    between atoms: C_4  and  C_6
REMARK    3  A    between atoms: C_10  and  S_11
REMARK                            x       y       z     vdW  Elec       q    Type
REMARK                         _______ _______ _______ _____ _____    ______ ____
ROOT
ATOM      1  C   UNL     1       4.908   5.259  17.083  0.00  0.00    +0.000 A 
ATOM      2  C   UNL     1       5.386   5.867  18.269  0.00  0.00    +0.000 A 
ATOM      3  C   UNL     1       4.796   5.573  19.505  0.00  0.00    +0.000 A 
ATOM      4  C   UNL     1       3.704   4.704  19.577  0.00  0.00    +0.000 A 
ATOM      5  C   UNL     1       3.181   4.115  18.406  0.00  0.00    +0.000 A 
ATOM      6  C   UNL     1       3.822   4.375  17.176  0.00  0.00    +0.000 A 
ENDROOT
BRANCH   5   7
ATOM      7  S   UNL     1       1.657   3.093  18.464  0.00  0.00    +0.000 S 
ATOM      8  F   UNL     1       0.243   2.131  18.517  0.00  0.00    +0.000 F 
ATOM      9  F   UNL     1       1.023   4.049  19.731  0.00  0.00    +0.000 F 
ATOM     10  F   UNL     1       2.384   2.040  19.606  0.00  0.00    +0.000 F 
ATOM     11  F   UNL     1       2.250   2.090  17.205  0.00  0.00    +0.000 F 
ATOM     12  F   UNL     1       0.902   4.121  17.324  0.00  0.00    +0.000 F 
ENDBRANCH   5   7
BRANCH   1  15
ATOM     13  C   UNL     1       6.816   4.940  15.057  0.00  0.00    +0.000 C 
ATOM     14  C   UNL     1       5.484   4.217  14.948  0.00  0.00    +0.000 C 
ATOM     15  C   UNL     1       5.543   5.533  15.720  0.00  0.00    +0.000 C 
ATOM     16  F   UNL     1       4.932   6.522  14.967  0.00  0.00    +0.000 F 
BRANCH  13  17
ATOM     17  N   UNL     1       7.779   4.491  16.063  0.00  0.00    +0.000 NA
ATOM     18  H   UNL     1       7.461   3.543  16.376  0.00  0.00    +0.000 HD
ATOM     19  H   UNL     1       7.733   5.086  16.918  0.00  0.00    +0.000 HD
ENDBRANCH  13  17
ENDBRANCH   1  15
TORSDOF 3
ENDMDL
MODEL 4
REMARK VINA RESULT:      -7.5      0.072      1.162
REMARK  Name = 
REMARK  3 active torsions:
REMARK  status: ('A' for Active; 'I' for Inactive)
REMARK    1  A    between atoms: N_1  and  C_2
REMARK    2  A    between atoms: C_4  and  C_6
REMARK    3  A    between atoms: C_10  and  S_11
REMARK                            x       y       z     vdW  Elec       q    Type
REMARK                         _______ _______ _______ _____ _____    ______ ____
ROOT
ATOM      1  C   UNL     1       4.925   5.270  17.096  0.00  0.00    +0.000 A 
ATOM      2  C   UNL     1       5.435   5.840  18.288  0.00  0.00    +0.000 A 
ATOM      3  C   UNL     1       4.862   5.526  19.526  0.00  0.00    +0.000 A 
ATOM      4  C   UNL     1       3.756   4.675  19.597  0.00  0.00    +0.000 A 
ATOM      5  C   UNL     1       3.202   4.124  18.422  0.00  0.00    +0.000 A 
ATOM      6  C   UNL     1       3.826   4.403  17.188  0.00  0.00    +0.000 A 
ENDROOT
BRANCH   5   7
ATOM      7  S   UNL     1       1.661   3.126  18.482  0.00  0.00    +0.000 S 
ATOM      8  F   UNL     1       0.226   2.197  18.528  0.00  0.00    +0.000 F 
ATOM      9  F   UNL     1       2.345   2.078  19.647  0.00  0.00    +0.000 F 
ATOM     10  F   UNL     1       2.241   2.121  17.220  0.00  0.00    +0.000 F 
ATOM     11  F   UNL     1       0.930   4.136  17.304  0.00  0.00    +0.000 F 
ATOM     12  F   UNL     1       1.052   4.110  19.741  0.00  0.00    +0.000 F 
ENDBRANCH   5   7
BRANCH   1  15
ATOM     13  C   UNL     1       6.796   4.975  15.032  0.00  0.00    +0.000 C 
ATOM     14  C   UNL     1       5.456   4.267  14.930  0.00  0.00    +0.000 C 
ATOM     15  C   UNL     1       5.541   5.567  15.729  0.00  0.00    +0.000 C 
ATOM     16  F   UNL     1       4.928   6.577  15.007  0.00  0.00    +0.000 F 
BRANCH  13  17
ATOM     17  N   UNL     1       7.771   4.495  16.012  0.00  0.00    +0.000 NA
ATOM     18  H   UNL     1       8.628   4.228  15.472  0.00  0.00    +0.000 HD
ATOM     19  H   UNL     1       7.448   3.609  16.459  0.00  0.00    +0.000 HD
ENDBRANCH  13  17
ENDBRANCH   1  15
TORSDOF 3
ENDMDL
MODEL 5
REMARK VINA RESULT:      -7.4      2.955      5.345
REMARK  Name = 
REMARK  3 active torsions:
REMARK  status: ('A' for Active; 'I' for Inactive)
REMARK    1  A    between atoms: N_1  and  C_2
REMARK    2  A    between atoms: C_4  and  C_6
REMARK    3  A    between atoms: C_10  and  S_11
REMARK                            x       y       z     vdW  Elec       q    Type
REMARK                         _______ _______ _______ _____ _____    ______ ____
ROOT
ATOM      1  C   UNL     1       3.207   4.335  18.222  0.00  0.00    +0.000 A 
ATOM      2  C   UNL     1       3.708   4.709  19.493  0.00  0.00    +0.000 A 
ATOM      3  C   UNL     1       5.014   5.198  19.625  0.00  0.00    +0.000 A 
ATOM      4  C   UNL     1       5.851   5.286  18.510  0.00  0.00    +0.000 A 
ATOM      5  C   UNL     1       5.392   4.883  17.238  0.00  0.00    +0.000 A 
ATOM      6  C   UNL     1       4.056   4.448  17.110  0.00  0.00    +0.000 A 
ENDROOT
BRANCH   5   7
ATOM      7  S   UNL     1       6.524   4.850  15.792  0.00  0.00    +0.000 S 
ATOM      8  F   UNL     1       7.586   4.823  14.452  0.00  0.00    +0.000 F 
ATOM      9  F   UNL     1       5.956   3.302  15.341  0.00  0.00    +0.000 F 
ATOM     10  F   UNL     1       7.754   4.133  16.748  0.00  0.00    +0.000 F 
ATOM     11  F   UNL     1       7.142   6.395  16.208  0.00  0.00    +0.000 F 
ATOM     12  F   UNL     1       5.320   5.567  14.811  0.00  0.00    +0.000 F 
ENDBRANCH   5   7
BRANCH   1  15
ATOM     13  C   UNL     1       1.093   2.524  18.536  0.00  0.00    +0.000 C 
ATOM     14  C   UNL     1       1.163   3.751  19.429  0.00  0.00    +0.000 C 
ATOM     15  C   UNL     1       1.779   3.823  18.033  0.00  0.00    +0.000 C 
ATOM     16  F   UNL     1       0.969   4.604  17.226  0.00  0.00    +0.000 F 
BRANCH  13  17
ATOM     17  N   UNL     1       2.068   1.452  18.738  0.00  0.00    +0.000 NA
ATOM     18  H   UNL     1       2.840   1.858  19.318  0.00  0.00    +0.000 HD
ATOM     19  H   UNL     1       2.522   1.184  17.837  0.00  0.00    +0.000 HD
ENDBRANCH  13  17
ENDBRANCH   1  15
TORSDOF 3
ENDMDL
MODEL 6
REMARK VINA RESULT:      -7.3      2.948      5.298
REMARK  Name = 
REMARK  3 active torsions:
REMARK  status: ('A' for Active; 'I' for Inactive)
REMARK    1  A    between atoms: N_1  and  C_2
REMARK    2  A    between atoms: C_4  and  C_6
REMARK    3  A    between atoms: C_10  and  S_11
REMARK                            x       y       z     vdW  Elec       q    Type
REMARK                         _______ _______ _______ _____ _____    ______ ____
ROOT
ATOM      1  C   UNL     1       3.210   4.369  18.226  0.00  0.00    +0.000 A 
ATOM      2  C   UNL     1       3.700   4.769  19.493  0.00  0.00    +0.000 A 
ATOM      3  C   UNL     1       5.002   5.269  19.625  0.00  0.00    +0.000 A 
ATOM      4  C   UNL     1       5.846   5.343  18.514  0.00  0.00    +0.000 A 
ATOM      5  C   UNL     1       5.398   4.914  17.247  0.00  0.00    +0.000 A 
ATOM      6  C   UNL     1       4.065   4.468  17.118  0.00  0.00    +0.000 A 
ENDROOT
BRANCH   5   7
ATOM      7  S   UNL     1       6.540   4.864  15.809  0.00  0.00    +0.000 S 
ATOM      8  F   UNL     1       7.595   4.815  14.464  0.00  0.00    +0.000 F 
ATOM      9  F   UNL     1       7.165   6.404  16.210  0.00  0.00    +0.000 F 
ATOM     10  F   UNL     1       5.348   5.594  14.815  0.00  0.00    +0.000 F 
ATOM     11  F   UNL     1       5.938   3.325  15.351  0.00  0.00    +0.000 F 
ATOM     12  F   UNL     1       7.749   4.134  16.772  0.00  0.00    +0.000 F 
ENDBRANCH   5   7
BRANCH   1  15
ATOM     13  C   UNL     1       1.116   2.535  18.530  0.00  0.00    +0.000 C 
ATOM     14  C   UNL     1       1.176   3.754  19.434  0.00  0.00    +0.000 C 
ATOM     15  C   UNL     1       1.787   3.845  18.037  0.00  0.00    +0.000 C 
ATOM     16  F   UNL     1       0.967   4.625  17.239  0.00  0.00    +0.000 F 
BRANCH  13  17
ATOM     17  N   UNL     1       2.102   1.470  18.718  0.00  0.00    +0.000 NA
ATOM     18  H   UNL     1       2.267   1.399  19.750  0.00  0.00    +0.000 HD
ATOM     19  H   UNL     1       3.026   1.740  18.316  0.00  0.00    +0.000 HD
ENDBRANCH  13  17
ENDBRANCH   1  15
TORSDOF 3
ENDMDL
MODEL 7
REMARK VINA RESULT:      -7.3      2.951      5.340
REMARK  Name = 
REMARK  3 active torsions:
REMARK  status: ('A' for Active; 'I' for Inactive)
REMARK    1  A    between atoms: N_1  and  C_2
REMARK    2  A    between atoms: C_4  and  C_6
REMARK    3  A    between atoms: C_10  and  S_11
REMARK                            x       y       z     vdW  Elec       q    Type
REMARK                         _______ _______ _______ _____ _____    ______ ____
ROOT
ATOM      1  C   UNL     1       3.191   4.371  18.228  0.00  0.00    +0.000 A 
ATOM      2  C   UNL     1       3.679   4.780  19.494  0.00  0.00    +0.000 A 
ATOM      3  C   UNL     1       4.979   5.282  19.625  0.00  0.00    +0.000 A 
ATOM      4  C   UNL     1       5.825   5.351  18.515  0.00  0.00    +0.000 A 
ATOM      5  C   UNL     1       5.380   4.914  17.250  0.00  0.00    +0.000 A 
ATOM      6  C   UNL     1       4.048   4.465  17.121  0.00  0.00    +0.000 A 
ENDROOT
BRANCH   5   7
ATOM      7  S   UNL     1       6.524   4.857  15.814  0.00  0.00    +0.000 S 
ATOM      8  F   UNL     1       7.592   4.794  14.480  0.00  0.00    +0.000 F 
ATOM      9  F   UNL     1       5.340   5.558  14.800  0.00  0.00    +0.000 F 
ATOM     10  F   UNL     1       5.963   3.289  15.406  0.00  0.00    +0.000 F 
ATOM     11  F   UNL     1       7.744   4.137  16.781  0.00  0.00    +0.000 F 
ATOM     12  F   UNL     1       7.108   6.419  16.195  0.00  0.00    +0.000 F 
ENDBRANCH   5   7
BRANCH   1  15
ATOM     13  C   UNL     1       1.099   2.535  18.539  0.00  0.00    +0.000 C 
ATOM     14  C   UNL     1       1.156   3.759  19.436  0.00  0.00    +0.000 C 
ATOM     15  C   UNL     1       1.769   3.844  18.040  0.00  0.00    +0.000 C 
ATOM     16  F   UNL     1       0.949   4.618  17.237  0.00  0.00    +0.000 F 
BRANCH  13  17
ATOM     17  N   UNL     1       2.087   1.473  18.735  0.00  0.00    +0.000 NA
ATOM     18  H   UNL     1       1.554   0.624  19.037  0.00  0.00    +0.000 HD
ATOM     19  H   UNL     1       2.719   1.693  19.536  0.00  0.00    +0.000 HD
ENDBRANCH  13  17
ENDBRANCH   1  15
TORSDOF 3
ENDMDL
MODEL 8
REMARK VINA RESULT:      -7.3      2.263      2.738
REMARK  Name = 
REMARK  3 active torsions:
REMARK  status: ('A' for Active; 'I' for Inactive)
REMARK    1  A    between atoms: N_1  and  C_2
REMARK    2  A    between atoms: C_4  and  C_6
REMARK    3  A    between atoms: C_10  and  S_11
REMARK                            x       y       z     vdW  Elec       q    Type
REMARK                         _______ _______ _______ _____ _____    ______ ____
ROOT
ATOM      1  C   UNL     1       5.067   5.547  18.679  0.00  0.00    +0.000 A 
ATOM      2  C   UNL     1       4.449   6.529  17.866  0.00  0.00    +0.000 A 
ATOM      3  C   UNL     1       3.061   6.708  17.902  0.00  0.00    +0.000 A 
ATOM      4  C   UNL     1       2.265   5.896  18.713  0.00  0.00    +0.000 A 
ATOM      5  C   UNL     1       2.849   4.883  19.503  0.00  0.00    +0.000 A 
ATOM      6  C   UNL     1       4.254   4.753  19.501  0.00  0.00    +0.000 A 
ENDROOT
BRANCH   5   7
ATOM      7  S   UNL     1       1.806   3.711  20.457  0.00  0.00    +0.000 S 
ATOM      8  F   UNL     1       0.832   2.626  21.353  0.00  0.00    +0.000 F 
ATOM      9  F   UNL     1       1.047   3.169  19.025  0.00  0.00    +0.000 F 
ATOM     10  F   UNL     1       0.600   4.915  20.654  0.00  0.00    +0.000 F 
ATOM     11  F   UNL     1       2.522   4.229  21.927  0.00  0.00    +0.000 F 
ATOM     12  F   UNL     1       2.988   2.488  20.282  0.00  0.00    +0.000 F 
ENDBRANCH   5   7
BRANCH   1  15
ATOM     13  C   UNL     1       7.545   4.859  17.570  0.00  0.00    +0.000 C 
ATOM     14  C   UNL     1       7.154   6.323  17.670  0.00  0.00    +0.000 C 
ATOM     15  C   UNL     1       6.582   5.340  18.689  0.00  0.00    +0.000 C 
ATOM     16  F   UNL     1       7.203   5.546  19.909  0.00  0.00    +0.000 F 
BRANCH  13  17
ATOM     17  N   UNL     1       6.853   4.011  16.599  0.00  0.00    +0.000 NA
ATOM     18  H   UNL     1       6.473   4.652  15.863  0.00  0.00    +0.000 HD
ATOM     19  H   UNL     1       6.012   3.564  17.025  0.00  0.00    +0.000 HD
ENDBRANCH  13  17
ENDBRANCH   1  15
TORSDOF 3
ENDMDL
MODEL 9
REMARK VINA RESULT:      -7.3      2.267      3.030
REMARK  Name = 
REMARK  3 active torsions:
REMARK  status: ('A' for Active; 'I' for Inactive)
REMARK    1  A    between atoms: N_1  and  C_2
REMARK    2  A    between atoms: C_4  and  C_6
REMARK    3  A    between atoms: C_10  and  S_11
REMARK                            x       y       z     vdW  Elec       q    Type
REMARK                         _______ _______ _______ _____ _____    ______ ____
ROOT
ATOM      1  C   UNL     1       5.079   5.521  18.695  0.00  0.00    +0.000 A 
ATOM      2  C   UNL     1       4.439   6.506  17.904  0.00  0.00    +0.000 A 
ATOM      3  C   UNL     1       3.051   6.674  17.966  0.00  0.00    +0.000 A 
ATOM      4  C   UNL     1       2.275   5.846  18.781  0.00  0.00    +0.000 A 
ATOM      5  C   UNL     1       2.880   4.829  19.549  0.00  0.00    +0.000 A 
ATOM      6  C   UNL     1       4.286   4.710  19.521  0.00  0.00    +0.000 A 
ENDROOT
BRANCH   5   7
ATOM      7  S   UNL     1       1.864   3.637  20.507  0.00  0.00    +0.000 S 
ATOM      8  F   UNL     1       0.925   2.525  21.406  0.00  0.00    +0.000 F 
ATOM      9  F   UNL     1       0.547   4.726  20.530  0.00  0.00    +0.000 F 
ATOM     10  F   UNL     1       2.448   4.295  21.980  0.00  0.00    +0.000 F 
ATOM     11  F   UNL     1       3.158   2.511  20.530  0.00  0.00    +0.000 F 
ATOM     12  F   UNL     1       1.263   2.956  19.058  0.00  0.00    +0.000 F 
ENDBRANCH   5   7
BRANCH   1  15
ATOM     13  C   UNL     1       7.542   4.854  17.539  0.00  0.00    +0.000 C 
ATOM     14  C   UNL     1       7.140   6.315  17.647  0.00  0.00    +0.000 C 
ATOM     15  C   UNL     1       6.595   5.326  18.676  0.00  0.00    +0.000 C 
ATOM     16  F   UNL     1       7.237   5.536  19.884  0.00  0.00    +0.000 F 
BRANCH  13  17
ATOM     17  N   UNL     1       6.838   4.001  16.580  0.00  0.00    +0.000 NA
ATOM     18  H   UNL     1       7.252   3.044  16.674  0.00  0.00    +0.000 HD
ATOM     19  H   UNL     1       7.046   4.289  15.599  0.00  0.00    +0.000 HD
ENDBRANCH  13  17
ENDBRANCH   1  15
TORSDOF 3
ENDMDL
