MODEL 1
REMARK VINA RESULT:      -8.3      0.000      0.000
REMARK  Name = 
REMARK  7 active torsions:
REMARK  status: ('A' for Active; 'I' for Inactive)
REMARK    1  A    between atoms: C_1  and  O_2
REMARK    2  A    between atoms: O_2  and  C_3
REMARK    3  A    between atoms: C_5  and  N_6
REMARK    4  A    between atoms: C_7  and  C_9
REMARK    5  A    between atoms: C_10  and  C_11
REMARK    6  A    between atoms: C_21  and  O_22
REMARK    7  A    between atoms: O_22  and  C_23
REMARK                            x       y       z     vdW  Elec       q    Type
REMARK                         _______ _______ _______ _____ _____    ______ ____
ROOT
ATOM      1  N   UNL     1       6.612   7.649  17.103  0.00  0.00    +0.000 N 
ATOM      2  C   UNL     1       7.731   7.835  17.916  0.00  0.00    +0.000 C 
ATOM      3  O   UNL     1       8.259   6.968  18.602  0.00  0.00    +0.000 OA
ATOM      4  H   UNL     1       6.305   8.427  16.541  0.00  0.00    +0.000 HD
ENDROOT
BRANCH   1   7
ATOM      5  C   UNL     1       3.893   5.013  17.540  0.00  0.00    +0.000 A 
ATOM      6  C   UNL     1       4.641   6.198  17.730  0.00  0.00    +0.000 A 
ATOM      7  C   UNL     1       5.805   6.455  16.998  0.00  0.00    +0.000 A 
ATOM      8  C   UNL     1       6.189   5.478  16.062  0.00  0.00    +0.000 A 
ATOM      9  C   UNL     1       5.459   4.284  15.866  0.00  0.00    +0.000 A 
ATOM     10  C   UNL     1       4.313   4.057  16.617  0.00  0.00    +0.000 A 
BRANCH   5  12
ATOM     11  C   UNL     1       2.500   3.662  18.953  0.00  0.00    +0.000 C 
ATOM     12  O   UNL     1       2.757   4.905  18.300  0.00  0.00    +0.000 OA
ENDBRANCH   5  12
BRANCH   9  13
ATOM     13  O   UNL     1       5.953   3.435  14.907  0.00  0.00    +0.000 OA
ATOM     14  C   UNL     1       6.395   4.028  13.681  0.00  0.00    +0.000 C 
ENDBRANCH   9  13
ENDBRANCH   1   7
BRANCH   2  15
ATOM     15  C   UNL     1       8.284   9.273  17.929  0.00  0.00    +0.000 C 
ATOM     16  C   UNL     1       9.089   9.614  18.958  0.00  0.00    +0.000 C 
BRANCH  16  17
ATOM     17  C   UNL     1       9.721  10.821  19.440  0.00  0.00    +0.000 A 
ATOM     18  C   UNL     1       9.456  11.186  20.752  0.00  0.00    +0.000 A 
ATOM     19  N   UNL     1       9.524  12.545  20.767  0.00  0.00    +0.000 N 
ATOM     20  C   UNL     1      10.504  12.917  19.888  0.00  0.00    +0.000 A 
ATOM     21  C   UNL     1      11.242  14.106  19.851  0.00  0.00    +0.000 A 
ATOM     22  C   UNL     1      12.199  14.225  18.853  0.00  0.00    +0.000 A 
ATOM     23  C   UNL     1      12.333  13.224  17.891  0.00  0.00    +0.000 A 
ATOM     24  C   UNL     1      11.527  12.059  17.907  0.00  0.00    +0.000 A 
ATOM     25  C   UNL     1      10.621  11.853  18.968  0.00  0.00    +0.000 A 
ATOM     26  H   UNL     1       9.048  13.156  21.415  0.00  0.00    +0.000 HD
ENDBRANCH  16  17
ENDBRANCH   2  15
TORSDOF 5
ENDMDL
MODEL 2
REMARK VINA RESULT:      -8.3      0.388      2.533
REMARK  Name = 
REMARK  7 active torsions:
REMARK  status: ('A' for Active; 'I' for Inactive)
REMARK    1  A    between atoms: C_1  and  O_2
REMARK    2  A    between atoms: O_2  and  C_3
REMARK    3  A    between atoms: C_5  and  N_6
REMARK    4  A    between atoms: C_7  and  C_9
REMARK    5  A    between atoms: C_10  and  C_11
REMARK    6  A    between atoms: C_21  and  O_22
REMARK    7  A    between atoms: O_22  and  C_23
REMARK                            x       y       z     vdW  Elec       q    Type
REMARK                         _______ _______ _______ _____ _____    ______ ____
ROOT
ATOM      1  N   UNL     1       6.844   7.604  16.861  0.00  0.00    +0.000 N 
ATOM      2  C   UNL     1       7.775   7.831  17.876  0.00  0.00    +0.000 C 
ATOM      3  O   UNL     1       8.174   6.989  18.671  0.00  0.00    +0.000 OA
ATOM      4  H   UNL     1       6.638   8.365  16.233  0.00  0.00    +0.000 HD
ENDROOT
BRANCH   1   7
ATOM      5  C   UNL     1       5.673   4.222  15.549  0.00  0.00    +0.000 A 
ATOM      6  C   UNL     1       6.443   5.399  15.695  0.00  0.00    +0.000 A 
ATOM      7  C   UNL     1       6.100   6.388  16.622  0.00  0.00    +0.000 A 
ATOM      8  C   UNL     1       4.955   6.150  17.403  0.00  0.00    +0.000 A 
ATOM      9  C   UNL     1       4.168   4.985  17.263  0.00  0.00    +0.000 A 
ATOM     10  C   UNL     1       4.533   4.027  16.326  0.00  0.00    +0.000 A 
BRANCH   5  12
ATOM     11  C   UNL     1       6.085   3.683  13.245  0.00  0.00    +0.000 C 
ATOM     12  O   UNL     1       6.141   3.322  14.625  0.00  0.00    +0.000 OA
ENDBRANCH   5  12
BRANCH   9  13
ATOM     13  O   UNL     1       3.088   4.891  18.106  0.00  0.00    +0.000 OA
ATOM     14  C   UNL     1       2.281   3.714  17.994  0.00  0.00    +0.000 C 
ENDBRANCH   9  13
ENDBRANCH   1   7
BRANCH   2  15
ATOM     15  C   UNL     1       8.283   9.283  17.968  0.00  0.00    +0.000 C 
ATOM     16  C   UNL     1       9.063   9.595  19.026  0.00  0.00    +0.000 C 
BRANCH  16  17
ATOM     17  C   UNL     1       9.650  10.796  19.577  0.00  0.00    +0.000 A 
ATOM     18  C   UNL     1       9.297  11.126  20.877  0.00  0.00    +0.000 A 
ATOM     19  N   UNL     1       9.350  12.485  20.930  0.00  0.00    +0.000 N 
ATOM     20  C   UNL     1      10.382  12.886  20.125  0.00  0.00    +0.000 A 
ATOM     21  C   UNL     1      11.109  14.081  20.165  0.00  0.00    +0.000 A 
ATOM     22  C   UNL     1      12.128  14.232  19.235  0.00  0.00    +0.000 A 
ATOM     23  C   UNL     1      12.333  13.257  18.259  0.00  0.00    +0.000 A 
ATOM     24  C   UNL     1      11.540  12.086  18.195  0.00  0.00    +0.000 A 
ATOM     25  C   UNL     1      10.568  11.846  19.190  0.00  0.00    +0.000 A 
ATOM     26  H   UNL     1       8.828  13.076  21.559  0.00  0.00    +0.000 HD
ENDBRANCH  16  17
ENDBRANCH   2  15
TORSDOF 5
ENDMDL
MODEL 3
REMARK VINA RESULT:      -7.9      1.156      1.908
REMARK  Name = 
REMARK  7 active torsions:
REMARK  status: ('A' for Active; 'I' for Inactive)
REMARK    1  A    between atoms: C_1  and  O_2
REMARK    2  A    between atoms: O_2  and  C_3
REMARK    3  A    between atoms: C_5  and  N_6
REMARK    4  A    between atoms: C_7  and  C_9
REMARK    5  A    between atoms: C_10  and  C_11
REMARK    6  A    between atoms: C_21  and  O_22
REMARK    7  A    between atoms: O_22  and  C_23
REMARK                            x       y       z     vdW  Elec       q    Type
REMARK                         _______ _______ _______ _____ _____    ______ ____
ROOT
ATOM      1  N   UNL     1       6.742   7.546  16.994  0.00  0.00    +0.000 N 
ATOM      2  C   UNL     1       7.779   7.936  17.844  0.00  0.00    +0.000 C 
ATOM      3  O   UNL     1       8.316   7.218  18.679  0.00  0.00    +0.000 OA
ATOM      4  H   UNL     1       6.421   8.212  16.308  0.00  0.00    +0.000 HD
ENDROOT
BRANCH   1   7
ATOM      5  C   UNL     1       4.401   4.665  17.860  0.00  0.00    +0.000 A 
ATOM      6  C   UNL     1       5.065   5.911  17.941  0.00  0.00    +0.000 A 
ATOM      7  C   UNL     1       6.037   6.285  17.007  0.00  0.00    +0.000 A 
ATOM      8  C   UNL     1       6.315   5.362  15.983  0.00  0.00    +0.000 A 
ATOM      9  C   UNL     1       5.668   4.109  15.892  0.00  0.00    +0.000 A 
ATOM     10  C   UNL     1       4.714   3.766  16.842  0.00  0.00    +0.000 A 
BRANCH   5  12
ATOM     11  C   UNL     1       3.066   5.533  19.657  0.00  0.00    +0.000 C 
ATOM     12  O   UNL     1       3.449   4.441  18.821  0.00  0.00    +0.000 OA
ENDBRANCH   5  12
BRANCH   9  13
ATOM     13  O   UNL     1       6.038   3.324  14.829  0.00  0.00    +0.000 OA
ATOM     14  C   UNL     1       6.339   3.995  13.601  0.00  0.00    +0.000 C 
ENDBRANCH   9  13
ENDBRANCH   1   7
BRANCH   2  15
ATOM     15  C   UNL     1       8.220   9.404  17.689  0.00  0.00    +0.000 C 
ATOM     16  C   UNL     1       8.960   9.933  18.687  0.00  0.00    +0.000 C 
BRANCH  16  17
ATOM     17  C   UNL     1       9.480  11.237  19.028  0.00  0.00    +0.000 A 
ATOM     18  C   UNL     1      10.173  11.914  18.034  0.00  0.00    +0.000 A 
ATOM     19  N   UNL     1      11.093  12.672  18.691  0.00  0.00    +0.000 N 
ATOM     20  C   UNL     1      10.521  13.088  19.861  0.00  0.00    +0.000 A 
ATOM     21  C   UNL     1      10.855  14.192  20.655  0.00  0.00    +0.000 A 
ATOM     22  C   UNL     1      10.096  14.402  21.798  0.00  0.00    +0.000 A 
ATOM     23  C   UNL     1       9.110  13.484  22.159  0.00  0.00    +0.000 A 
ATOM     24  C   UNL     1       8.834  12.337  21.377  0.00  0.00    +0.000 A 
ATOM     25  C   UNL     1       9.509  12.149  20.153  0.00  0.00    +0.000 A 
ATOM     26  H   UNL     1      11.975  12.992  18.317  0.00  0.00    +0.000 HD
ENDBRANCH  16  17
ENDBRANCH   2  15
TORSDOF 5
ENDMDL
MODEL 4
REMARK VINA RESULT:      -7.8      5.801      8.919
REMARK  Name = 
REMARK  7 active torsions:
REMARK  status: ('A' for Active; 'I' for Inactive)
REMARK    1  A    between atoms: C_1  and  O_2
REMARK    2  A    between atoms: O_2  and  C_3
REMARK    3  A    between atoms: C_5  and  N_6
REMARK    4  A    between atoms: C_7  and  C_9
REMARK    5  A    between atoms: C_10  and  C_11
REMARK    6  A    between atoms: C_21  and  O_22
REMARK    7  A    between atoms: O_22  and  C_23
REMARK                            x       y       z     vdW  Elec       q    Type
REMARK                         _______ _______ _______ _____ _____    ______ ____
ROOT
ATOM      1  N   UNL     1       3.546   7.706  17.294  0.00  0.00    +0.000 N 
ATOM      2  C   UNL     1       2.536   8.054  18.193  0.00  0.00    +0.000 C 
ATOM      3  O   UNL     1       2.368   7.552  19.298  0.00  0.00    +0.000 OA
ATOM      4  H   UNL     1       3.615   8.233  16.437  0.00  0.00    +0.000 HD
ENDROOT
BRANCH   1   7
ATOM      5  C   UNL     1       5.453   4.635  18.500  0.00  0.00    +0.000 A 
ATOM      6  C   UNL     1       4.495   5.672  18.455  0.00  0.00    +0.000 A 
ATOM      7  C   UNL     1       4.503   6.632  17.437  0.00  0.00    +0.000 A 
ATOM      8  C   UNL     1       5.508   6.509  16.462  0.00  0.00    +0.000 A 
ATOM      9  C   UNL     1       6.480   5.484  16.498  0.00  0.00    +0.000 A 
ATOM     10  C   UNL     1       6.448   4.553  17.528  0.00  0.00    +0.000 A 
BRANCH   5  12
ATOM     11  C   UNL     1       4.334   2.710  19.401  0.00  0.00    +0.000 C 
ATOM     12  O   UNL     1       5.310   3.744  19.534  0.00  0.00    +0.000 OA
ENDBRANCH   5  12
BRANCH   9  13
ATOM     13  O   UNL     1       7.389   5.489  15.469  0.00  0.00    +0.000 OA
ATOM     14  C   UNL     1       7.027   4.775  14.282  0.00  0.00    +0.000 C 
ENDBRANCH   9  13
ENDBRANCH   1   7
BRANCH   2  15
ATOM     15  C   UNL     1       1.573   9.145  17.686  0.00  0.00    +0.000 C 
ATOM     16  C   UNL     1       0.552   9.490  18.500  0.00  0.00    +0.000 C 
BRANCH  16  17
ATOM     17  C   UNL     1      -0.617  10.336  18.414  0.00  0.00    +0.000 A 
ATOM     18  C   UNL     1      -0.672  11.418  19.280  0.00  0.00    +0.000 A 
ATOM     19  N   UNL     1      -1.996  11.613  19.527  0.00  0.00    +0.000 N 
ATOM     20  C   UNL     1      -2.675  11.319  18.377  0.00  0.00    +0.000 A 
ATOM     21  C   UNL     1      -3.944  11.752  17.974  0.00  0.00    +0.000 A 
ATOM     22  C   UNL     1      -4.399  11.315  16.737  0.00  0.00    +0.000 A 
ATOM     23  C   UNL     1      -3.639  10.412  15.994  0.00  0.00    +0.000 A 
ATOM     24  C   UNL     1      -2.387   9.934  16.452  0.00  0.00    +0.000 A 
ATOM     25  C   UNL     1      -1.844  10.440  17.651  0.00  0.00    +0.000 A 
ATOM     26  H   UNL     1      -2.390  12.039  20.354  0.00  0.00    +0.000 HD
ENDBRANCH  16  17
ENDBRANCH   2  15
TORSDOF 5
ENDMDL
MODEL 5
REMARK VINA RESULT:      -7.8      2.661      9.445
REMARK  Name = 
REMARK  7 active torsions:
REMARK  status: ('A' for Active; 'I' for Inactive)
REMARK    1  A    between atoms: C_1  and  O_2
REMARK    2  A    between atoms: O_2  and  C_3
REMARK    3  A    between atoms: C_5  and  N_6
REMARK    4  A    between atoms: C_7  and  C_9
REMARK    5  A    between atoms: C_10  and  C_11
REMARK    6  A    between atoms: C_21  and  O_22
REMARK    7  A    between atoms: O_22  and  C_23
REMARK                            x       y       z     vdW  Elec       q    Type
REMARK                         _______ _______ _______ _____ _____    ______ ____
ROOT
ATOM      1  N   UNL     1       9.334   9.406  19.293  0.00  0.00    +0.000 N 
ATOM      2  C   UNL     1       8.420   8.998  18.319  0.00  0.00    +0.000 C 
ATOM      3  O   UNL     1       7.899   9.732  17.487  0.00  0.00    +0.000 OA
ATOM      4  H   UNL     1       9.738   8.697  19.885  0.00  0.00    +0.000 HD
ENDROOT
BRANCH   1   7
ATOM      5  C   UNL     1       9.857  12.812  20.922  0.00  0.00    +0.000 A 
ATOM      6  C   UNL     1       9.375  11.501  20.705  0.00  0.00    +0.000 A 
ATOM      7  C   UNL     1       9.751  10.760  19.579  0.00  0.00    +0.000 A 
ATOM      8  C   UNL     1      10.635  11.383  18.681  0.00  0.00    +0.000 A 
ATOM      9  C   UNL     1      11.118  12.696  18.877  0.00  0.00    +0.000 A 
ATOM     10  C   UNL     1      10.717  13.407  20.001  0.00  0.00    +0.000 A 
BRANCH   5  12
ATOM     11  C   UNL     1       8.653  12.638  22.992  0.00  0.00    +0.000 C 
ATOM     12  O   UNL     1       9.433  13.411  22.081  0.00  0.00    +0.000 OA
ENDBRANCH   5  12
BRANCH   9  13
ATOM     13  O   UNL     1      11.984  13.161  17.919  0.00  0.00    +0.000 OA
ATOM     14  C   UNL     1      11.434  13.430  16.624  0.00  0.00    +0.000 C 
ENDBRANCH   9  13
ENDBRANCH   1   7
BRANCH   2  15
ATOM     15  C   UNL     1       8.060   7.501  18.363  0.00  0.00    +0.000 C 
ATOM     16  C   UNL     1       6.941   7.118  17.710  0.00  0.00    +0.000 C 
BRANCH  16  17
ATOM     17  C   UNL     1       6.172   5.902  17.573  0.00  0.00    +0.000 A 
ATOM     18  C   UNL     1       6.884   4.733  17.349  0.00  0.00    +0.000 A 
ATOM     19  N   UNL     1       6.060   3.948  16.604  0.00  0.00    +0.000 N 
ATOM     20  C   UNL     1       4.780   4.180  17.027  0.00  0.00    +0.000 A 
ATOM     21  C   UNL     1       3.654   3.356  16.906  0.00  0.00    +0.000 A 
ATOM     22  C   UNL     1       2.464   3.828  17.442  0.00  0.00    +0.000 A 
ATOM     23  C   UNL     1       2.405   5.109  17.990  0.00  0.00    +0.000 A 
ATOM     24  C   UNL     1       3.541   5.953  18.041  0.00  0.00    +0.000 A 
ATOM     25  C   UNL     1       4.792   5.466  17.606  0.00  0.00    +0.000 A 
ATOM     26  H   UNL     1       6.348   3.221  15.965  0.00  0.00    +0.000 HD
ENDBRANCH  16  17
ENDBRANCH   2  15
TORSDOF 5
ENDMDL
MODEL 6
REMARK VINA RESULT:      -7.7      2.669      9.780
REMARK  Name = 
REMARK  7 active torsions:
REMARK  status: ('A' for Active; 'I' for Inactive)
REMARK    1  A    between atoms: C_1  and  O_2
REMARK    2  A    between atoms: O_2  and  C_3
REMARK    3  A    between atoms: C_5  and  N_6
REMARK    4  A    between atoms: C_7  and  C_9
REMARK    5  A    between atoms: C_10  and  C_11
REMARK    6  A    between atoms: C_21  and  O_22
REMARK    7  A    between atoms: O_22  and  C_23
REMARK                            x       y       z     vdW  Elec       q    Type
REMARK                         _______ _______ _______ _____ _____    ______ ____
ROOT
ATOM      1  N   UNL     1       9.267   9.287  19.222  0.00  0.00    +0.000 N 
ATOM      2  C   UNL     1       8.323   8.896  18.271  0.00  0.00    +0.000 C 
ATOM      3  O   UNL     1       7.796   9.639  17.451  0.00  0.00    +0.000 OA
ATOM      4  H   UNL     1       9.672   8.570  19.804  0.00  0.00    +0.000 HD
ENDROOT
BRANCH   1   7
ATOM      5  C   UNL     1      10.843  12.748  18.967  0.00  0.00    +0.000 A 
ATOM      6  C   UNL     1      10.473  11.426  18.628  0.00  0.00    +0.000 A 
ATOM      7  C   UNL     1       9.716  10.632  19.497  0.00  0.00    +0.000 A 
ATOM      8  C   UNL     1       9.341  11.218  20.719  0.00  0.00    +0.000 A 
ATOM      9  C   UNL     1       9.710  12.533  21.078  0.00  0.00    +0.000 A 
ATOM     10  C   UNL     1      10.469  13.291  20.195  0.00  0.00    +0.000 A 
BRANCH   5  12
ATOM     11  C   UNL     1      10.957  14.572  17.409  0.00  0.00    +0.000 C 
ATOM     12  O   UNL     1      11.556  13.424  18.009  0.00  0.00    +0.000 OA
ENDBRANCH   5  12
BRANCH   9  13
ATOM     13  O   UNL     1       9.257  12.967  22.299  0.00  0.00    +0.000 OA
ATOM     14  C   UNL     1       8.411  12.074  23.030  0.00  0.00    +0.000 C 
ENDBRANCH   9  13
ENDBRANCH   1   7
BRANCH   2  15
ATOM     15  C   UNL     1       7.936   7.406  18.324  0.00  0.00    +0.000 C 
ATOM     16  C   UNL     1       6.771   7.052  17.738  0.00  0.00    +0.000 C 
BRANCH  16  17
ATOM     17  C   UNL     1       5.971   5.853  17.639  0.00  0.00    +0.000 A 
ATOM     18  C   UNL     1       6.653   4.656  17.470  0.00  0.00    +0.000 A 
ATOM     19  N   UNL     1       5.816   3.865  16.746  0.00  0.00    +0.000 N 
ATOM     20  C   UNL     1       4.538   4.148  17.142  0.00  0.00    +0.000 A 
ATOM     21  C   UNL     1       3.392   3.351  17.039  0.00  0.00    +0.000 A 
ATOM     22  C   UNL     1       2.209   3.876  17.540  0.00  0.00    +0.000 A 
ATOM     23  C   UNL     1       2.178   5.179  18.036  0.00  0.00    +0.000 A 
ATOM     24  C   UNL     1       3.336   5.993  18.069  0.00  0.00    +0.000 A 
ATOM     25  C   UNL     1       4.578   5.456  17.670  0.00  0.00    +0.000 A 
ATOM     26  H   UNL     1       6.092   3.106  16.141  0.00  0.00    +0.000 HD
ENDBRANCH  16  17
ENDBRANCH   2  15
TORSDOF 5
ENDMDL
MODEL 7
REMARK VINA RESULT:      -7.7      1.162      1.180
REMARK  Name = 
REMARK  7 active torsions:
REMARK  status: ('A' for Active; 'I' for Inactive)
REMARK    1  A    between atoms: C_1  and  O_2
REMARK    2  A    between atoms: O_2  and  C_3
REMARK    3  A    between atoms: C_5  and  N_6
REMARK    4  A    between atoms: C_7  and  C_9
REMARK    5  A    between atoms: C_10  and  C_11
REMARK    6  A    between atoms: C_21  and  O_22
REMARK    7  A    between atoms: O_22  and  C_23
REMARK                            x       y       z     vdW  Elec       q    Type
REMARK                         _______ _______ _______ _____ _____    ______ ____
ROOT
ATOM      1  N   UNL     1       7.623   6.614  18.287  0.00  0.00    +0.000 N 
ATOM      2  C   UNL     1       7.777   7.957  17.940  0.00  0.00    +0.000 C 
ATOM      3  O   UNL     1       7.164   8.532  17.049  0.00  0.00    +0.000 OA
ATOM      4  H   UNL     1       8.144   6.270  19.079  0.00  0.00    +0.000 HD
ENDROOT
BRANCH   1   7
ATOM      5  C   UNL     1       4.920   4.080  17.392  0.00  0.00    +0.000 A 
ATOM      6  C   UNL     1       5.675   5.011  18.141  0.00  0.00    +0.000 A 
ATOM      7  C   UNL     1       6.812   5.629  17.608  0.00  0.00    +0.000 A 
ATOM      8  C   UNL     1       7.160   5.280  16.291  0.00  0.00    +0.000 A 
ATOM      9  C   UNL     1       6.423   4.344  15.532  0.00  0.00    +0.000 A 
ATOM     10  C   UNL     1       5.304   3.743  16.095  0.00  0.00    +0.000 A 
BRANCH   5  12
ATOM     11  C   UNL     1       2.653   3.302  17.236  0.00  0.00    +0.000 C 
ATOM     12  O   UNL     1       3.812   3.575  18.024  0.00  0.00    +0.000 OA
ENDBRANCH   5  12
BRANCH   9  13
ATOM     13  O   UNL     1       6.881   4.118  14.258  0.00  0.00    +0.000 OA
ATOM     14  C   UNL     1       5.915   3.700  13.287  0.00  0.00    +0.000 C 
ENDBRANCH   9  13
ENDBRANCH   1   7
BRANCH   2  15
ATOM     15  C   UNL     1       8.835   8.716  18.763  0.00  0.00    +0.000 C 
ATOM     16  C   UNL     1       8.899  10.055  18.598  0.00  0.00    +0.000 C 
BRANCH  16  17
ATOM     17  C   UNL     1       9.762  11.125  19.042  0.00  0.00    +0.000 A 
ATOM     18  C   UNL     1       9.906  11.286  20.412  0.00  0.00    +0.000 A 
ATOM     19  N   UNL     1      10.119  12.618  20.597  0.00  0.00    +0.000 N 
ATOM     20  C   UNL     1      10.855  13.067  19.535  0.00  0.00    +0.000 A 
ATOM     21  C   UNL     1      11.676  14.197  19.454  0.00  0.00    +0.000 A 
ATOM     22  C   UNL     1      12.331  14.418  18.250  0.00  0.00    +0.000 A 
ATOM     23  C   UNL     1      12.089  13.583  17.160  0.00  0.00    +0.000 A 
ATOM     24  C   UNL     1      11.201  12.483  17.244  0.00  0.00    +0.000 A 
ATOM     25  C   UNL     1      10.603  12.163  18.481  0.00  0.00    +0.000 A 
ATOM     26  H   UNL     1       9.906  13.143  21.433  0.00  0.00    +0.000 HD
ENDBRANCH  16  17
ENDBRANCH   2  15
TORSDOF 5
ENDMDL
MODEL 8
REMARK VINA RESULT:      -7.7      6.086      9.281
REMARK  Name = 
REMARK  7 active torsions:
REMARK  status: ('A' for Active; 'I' for Inactive)
REMARK    1  A    between atoms: C_1  and  O_2
REMARK    2  A    between atoms: O_2  and  C_3
REMARK    3  A    between atoms: C_5  and  N_6
REMARK    4  A    between atoms: C_7  and  C_9
REMARK    5  A    between atoms: C_10  and  C_11
REMARK    6  A    between atoms: C_21  and  O_22
REMARK    7  A    between atoms: O_22  and  C_23
REMARK                            x       y       z     vdW  Elec       q    Type
REMARK                         _______ _______ _______ _____ _____    ______ ____
ROOT
ATOM      1  N   UNL     1       2.502   7.173  18.793  0.00  0.00    +0.000 N 
ATOM      2  C   UNL     1       2.727   8.126  17.798  0.00  0.00    +0.000 C 
ATOM      3  O   UNL     1       3.510   8.002  16.864  0.00  0.00    +0.000 OA
ATOM      4  H   UNL     1       1.789   7.368  19.478  0.00  0.00    +0.000 HD
ENDROOT
BRANCH   1   7
ATOM      5  C   UNL     1       5.214   4.513  19.110  0.00  0.00    +0.000 A 
ATOM      6  C   UNL     1       4.599   5.765  18.881  0.00  0.00    +0.000 A 
ATOM      7  C   UNL     1       3.212   5.928  18.979  0.00  0.00    +0.000 A 
ATOM      8  C   UNL     1       2.466   4.786  19.320  0.00  0.00    +0.000 A 
ATOM      9  C   UNL     1       3.064   3.526  19.542  0.00  0.00    +0.000 A 
ATOM     10  C   UNL     1       4.442   3.397  19.429  0.00  0.00    +0.000 A 
BRANCH   5  12
ATOM     11  C   UNL     1       7.168   4.749  17.735  0.00  0.00    +0.000 C 
ATOM     12  O   UNL     1       6.582   4.503  19.013  0.00  0.00    +0.000 OA
ENDBRANCH   5  12
BRANCH   9  13
ATOM     13  O   UNL     1       2.204   2.510  19.880  0.00  0.00    +0.000 OA
ATOM     14  C   UNL     1       1.139   2.231  18.964  0.00  0.00    +0.000 C 
ENDBRANCH   9  13
ENDBRANCH   1   7
BRANCH   2  15
ATOM     15  C   UNL     1       1.915   9.426  17.958  0.00  0.00    +0.000 C 
ATOM     16  C   UNL     1       0.576   9.303  18.077  0.00  0.00    +0.000 C 
BRANCH  16  17
ATOM     17  C   UNL     1      -0.558  10.197  18.128  0.00  0.00    +0.000 A 
ATOM     18  C   UNL     1      -0.504  11.225  19.058  0.00  0.00    +0.000 A 
ATOM     19  N   UNL     1      -1.797  11.456  19.414  0.00  0.00    +0.000 N 
ATOM     20  C   UNL     1      -2.569  11.261  18.302  0.00  0.00    +0.000 A 
ATOM     21  C   UNL     1      -3.844  11.767  18.022  0.00  0.00    +0.000 A 
ATOM     22  C   UNL     1      -4.405  11.425  16.799  0.00  0.00    +0.000 A 
ATOM     23  C   UNL     1      -3.741  10.541  15.949  0.00  0.00    +0.000 A 
ATOM     24  C   UNL     1      -2.482   9.986  16.284  0.00  0.00    +0.000 A 
ATOM     25  C   UNL     1      -1.832  10.396  17.467  0.00  0.00    +0.000 A 
ATOM     26  H   UNL     1      -2.111  11.846  20.291  0.00  0.00    +0.000 HD
ENDBRANCH  16  17
ENDBRANCH   2  15
TORSDOF 5
ENDMDL
MODEL 9
REMARK VINA RESULT:      -7.7      1.235      3.231
REMARK  Name = 
REMARK  7 active torsions:
REMARK  status: ('A' for Active; 'I' for Inactive)
REMARK    1  A    between atoms: C_1  and  O_2
REMARK    2  A    between atoms: O_2  and  C_3
REMARK    3  A    between atoms: C_5  and  N_6
REMARK    4  A    between atoms: C_7  and  C_9
REMARK    5  A    between atoms: C_10  and  C_11
REMARK    6  A    between atoms: C_21  and  O_22
REMARK    7  A    between atoms: O_22  and  C_23
REMARK                            x       y       z     vdW  Elec       q    Type
REMARK                         _______ _______ _______ _____ _____    ______ ____
ROOT
ATOM      1  N   UNL     1       6.857   7.634  16.923  0.00  0.00    +0.000 N 
ATOM      2  C   UNL     1       7.841   8.025  17.832  0.00  0.00    +0.000 C 
ATOM      3  O   UNL     1       8.362   7.296  18.668  0.00  0.00    +0.000 OA
ATOM      4  H   UNL     1       6.547   8.312  16.244  0.00  0.00    +0.000 HD
ENDROOT
BRANCH   1   7
ATOM      5  C   UNL     1       5.709   4.146  15.899  0.00  0.00    +0.000 A 
ATOM      6  C   UNL     1       6.379   5.390  15.863  0.00  0.00    +0.000 A 
ATOM      7  C   UNL     1       6.192   6.352  16.862  0.00  0.00    +0.000 A 
ATOM      8  C   UNL     1       5.310   6.015  17.904  0.00  0.00    +0.000 A 
ATOM      9  C   UNL     1       4.625   4.780  17.950  0.00  0.00    +0.000 A 
ATOM     10  C   UNL     1       4.827   3.852  16.937  0.00  0.00    +0.000 A 
BRANCH   5  12
ATOM     11  C   UNL     1       6.200   3.832  13.569  0.00  0.00    +0.000 C 
ATOM     12  O   UNL     1       6.009   3.285  14.874  0.00  0.00    +0.000 OA
ENDBRANCH   5  12
BRANCH   9  13
ATOM     13  O   UNL     1       3.807   4.593  19.037  0.00  0.00    +0.000 OA
ATOM     14  C   UNL     1       3.175   5.758  19.580  0.00  0.00    +0.000 C 
ENDBRANCH   9  13
ENDBRANCH   1   7
BRANCH   2  15
ATOM     15  C   UNL     1       8.243   9.510  17.744  0.00  0.00    +0.000 C 
ATOM     16  C   UNL     1       8.969  10.012  18.767  0.00  0.00    +0.000 C 
BRANCH  16  17
ATOM     17  C   UNL     1       9.454  11.313  19.167  0.00  0.00    +0.000 A 
ATOM     18  C   UNL     1      10.181  12.027  18.225  0.00  0.00    +0.000 A 
ATOM     19  N   UNL     1      11.060  12.778  18.943  0.00  0.00    +0.000 N 
ATOM     20  C   UNL     1      10.430  13.153  20.099  0.00  0.00    +0.000 A 
ATOM     21  C   UNL     1      10.713  14.237  20.938  0.00  0.00    +0.000 A 
ATOM     22  C   UNL     1       9.900  14.404  22.051  0.00  0.00    +0.000 A 
ATOM     23  C   UNL     1       8.912  13.463  22.342  0.00  0.00    +0.000 A 
ATOM     24  C   UNL     1       8.689  12.335  21.515  0.00  0.00    +0.000 A 
ATOM     25  C   UNL     1       9.420  12.192  20.317  0.00  0.00    +0.000 A 
ATOM     26  H   UNL     1      11.952  13.121  18.619  0.00  0.00    +0.000 HD
ENDBRANCH  16  17
ENDBRANCH   2  15
TORSDOF 5
ENDMDL
