MODEL 1
REMARK VINA RESULT:      -9.0      0.000      0.000
REMARK  Name = 
REMARK  8 active torsions:
REMARK  status: ('A' for Active; 'I' for Inactive)
REMARK    1  A    between atoms: C_1  and  C_2
REMARK    2  A    between atoms: N_4  and  C_5
REMARK    3  A    between atoms: C_9  and  C_10
REMARK    4  A    between atoms: C_13  and  C_14
REMARK    5  A    between atoms: C_13  and  C_15
REMARK    6  A    between atoms: N_17  and  C_18
REMARK    7  A    between atoms: C_21  and  C_22
REMARK    8  A    between atoms: C_24  and  C_25
REMARK                            x       y       z     vdW  Elec       q    Type
REMARK                         _______ _______ _______ _____ _____    ______ ____
ROOT
ATOM      1  C   UNL     1       4.437   3.711  18.219  0.00  0.00    +0.000 C 
ATOM      2  N   UNL     1       4.769   3.266  19.396  0.00  0.00    +0.000 NA
ATOM      3  N   UNL     1       3.623   2.882  20.021  0.00  0.00    +0.000 N 
ATOM      4  C   UNL     1       2.413   3.183  19.231  0.00  0.00    +0.000 C 
ATOM      5  C   UNL     1       1.428   2.020  19.140  0.00  0.00    +0.000 C 
ATOM      6  C   UNL     1       2.983   3.550  17.870  0.00  0.00    +0.000 C 
ATOM      7  H   UNL     1       3.663   1.904  20.317  0.00  0.00    +0.000 HD
ENDROOT
BRANCH   1  12
ATOM      8  C   UNL     1       6.771   6.191  16.552  0.00  0.00    +0.000 A 
ATOM      9  C   UNL     1       7.063   5.501  15.372  0.00  0.00    +0.000 A 
ATOM     10  C   UNL     1       6.526   4.242  15.123  0.00  0.00    +0.000 A 
ATOM     11  C   UNL     1       5.688   3.651  16.061  0.00  0.00    +0.000 A 
ATOM     12  C   UNL     1       5.385   4.318  17.254  0.00  0.00    +0.000 A 
ATOM     13  C   UNL     1       5.943   5.581  17.509  0.00  0.00    +0.000 A 
BRANCH   8  17
ATOM     14  C   UNL     1       8.330   9.310  17.996  0.00  0.00    +0.000 C 
ATOM     15  C   UNL     1       8.004   7.842  17.949  0.00  0.00    +0.000 C 
ATOM     16  O   UNL     1       8.376   7.098  18.851  0.00  0.00    +0.000 OA
ATOM     17  N   UNL     1       7.283   7.480  16.820  0.00  0.00    +0.000 N 
ATOM     18  H   UNL     1       7.207   8.166  16.078  0.00  0.00    +0.000 HD
ENDBRANCH   8  17
ENDBRANCH   1  12
BRANCH   4  19
ATOM     19  C   UNL     1       1.681   4.416  19.799  0.00  0.00    +0.000 C 
ATOM     20  O   UNL     1       0.606   4.271  20.384  0.00  0.00    +0.000 OA
ATOM     21  N   UNL     1       2.281   5.633  19.516  0.00  0.00    +0.000 N 
ATOM     22  H   UNL     1       3.066   5.574  18.866  0.00  0.00    +0.000 HD
BRANCH  21  23
ATOM     23  C   UNL     1       1.856   6.895  19.978  0.00  0.00    +0.000 A 
ATOM     24  C   UNL     1       1.456   7.103  21.298  0.00  0.00    +0.000 A 
ATOM     25  C   UNL     1       1.024   8.356  21.726  0.00  0.00    +0.000 A 
ATOM     26  C   UNL     1       0.980   9.436  20.840  0.00  0.00    +0.000 A 
ATOM     27  C   UNL     1       1.386   9.259  19.505  0.00  0.00    +0.000 A 
ATOM     28  C   UNL     1       1.843   7.981  19.094  0.00  0.00    +0.000 A 
BRANCH  27  29
ATOM     29  C   UNL     1       1.338  10.371  18.483  0.00  0.00    +0.000 C 
ATOM     30  F   UNL     1       0.097  10.821  18.171  0.00  0.00    +0.000 F 
ATOM     31  F   UNL     1       2.037  11.468  18.886  0.00  0.00    +0.000 F 
ATOM     32  F   UNL     1       1.896   9.992  17.299  0.00  0.00    +0.000 F 
ENDBRANCH  27  29
BRANCH  26  33
ATOM     33  C   UNL     1       0.521  10.687  21.363  0.00  0.00    +0.000 C 
ATOM     34  N   UNL     1       0.138  11.717  21.747  0.00  0.00    +0.000 NA
ENDBRANCH  26  33
ENDBRANCH  21  23
ENDBRANCH   4  19
TORSDOF 6
ENDMDL
MODEL 2
REMARK VINA RESULT:      -8.6      1.984      3.041
REMARK  Name = 
REMARK  8 active torsions:
REMARK  status: ('A' for Active; 'I' for Inactive)
REMARK    1  A    between atoms: C_1  and  C_2
REMARK    2  A    between atoms: N_4  and  C_5
REMARK    3  A    between atoms: C_9  and  C_10
REMARK    4  A    between atoms: C_13  and  C_14
REMARK    5  A    between atoms: C_13  and  C_15
REMARK    6  A    between atoms: N_17  and  C_18
REMARK    7  A    between atoms: C_21  and  C_22
REMARK    8  A    between atoms: C_24  and  C_25
REMARK                            x       y       z     vdW  Elec       q    Type
REMARK                         _______ _______ _______ _____ _____    ______ ____
ROOT
ATOM      1  C   UNL     1       4.493   3.715  18.058  0.00  0.00    +0.000 C 
ATOM      2  N   UNL     1       4.930   3.420  19.247  0.00  0.00    +0.000 NA
ATOM      3  N   UNL     1       3.856   3.035  19.989  0.00  0.00    +0.000 N 
ATOM      4  C   UNL     1       2.580   3.176  19.260  0.00  0.00    +0.000 C 
ATOM      5  C   UNL     1       1.673   1.952  19.360  0.00  0.00    +0.000 C 
ATOM      6  C   UNL     1       3.034   3.429  17.832  0.00  0.00    +0.000 C 
ATOM      7  H   UNL     1       3.981   2.099  20.380  0.00  0.00    +0.000 HD
ENDROOT
BRANCH   1  12
ATOM      8  C   UNL     1       6.363   4.053  14.778  0.00  0.00    +0.000 A 
ATOM      9  C   UNL     1       7.021   5.268  14.991  0.00  0.00    +0.000 A 
ATOM     10  C   UNL     1       6.850   5.979  16.175  0.00  0.00    +0.000 A 
ATOM     11  C   UNL     1       6.010   5.483  17.165  0.00  0.00    +0.000 A 
ATOM     12  C   UNL     1       5.334   4.272  16.971  0.00  0.00    +0.000 A 
ATOM     13  C   UNL     1       5.496   3.566  15.768  0.00  0.00    +0.000 A 
BRANCH   8  17
ATOM     14  C   UNL     1       6.054   2.270  11.466  0.00  0.00    +0.000 C 
ATOM     15  C   UNL     1       5.635   3.232  12.543  0.00  0.00    +0.000 C 
ATOM     16  O   UNL     1       4.590   3.867  12.432  0.00  0.00    +0.000 OA
ATOM     17  N   UNL     1       6.537   3.299  13.595  0.00  0.00    +0.000 N 
ATOM     18  H   UNL     1       7.438   2.857  13.463  0.00  0.00    +0.000 HD
ENDBRANCH   8  17
ENDBRANCH   1  12
BRANCH   4  19
ATOM     19  C   UNL     1       1.803   4.416  19.751  0.00  0.00    +0.000 C 
ATOM     20  O   UNL     1       0.663   4.283  20.199  0.00  0.00    +0.000 OA
ATOM     21  N   UNL     1       2.452   5.625  19.557  0.00  0.00    +0.000 N 
ATOM     22  H   UNL     1       3.310   5.558  19.006  0.00  0.00    +0.000 HD
BRANCH  21  23
ATOM     23  C   UNL     1       1.995   6.889  19.979  0.00  0.00    +0.000 A 
ATOM     24  C   UNL     1       1.581   7.126  21.289  0.00  0.00    +0.000 A 
ATOM     25  C   UNL     1       1.116   8.380  21.678  0.00  0.00    +0.000 A 
ATOM     26  C   UNL     1       1.052   9.433  20.761  0.00  0.00    +0.000 A 
ATOM     27  C   UNL     1       1.472   9.226  19.433  0.00  0.00    +0.000 A 
ATOM     28  C   UNL     1       1.961   7.948  19.063  0.00  0.00    +0.000 A 
BRANCH  27  29
ATOM     29  C   UNL     1       1.405  10.306  18.379  0.00  0.00    +0.000 C 
ATOM     30  F   UNL     1       2.007  11.477  18.706  0.00  0.00    +0.000 F 
ATOM     31  F   UNL     1       1.976   9.914  17.207  0.00  0.00    +0.000 F 
ATOM     32  F   UNL     1       0.118  10.632  18.071  0.00  0.00    +0.000 F 
ENDBRANCH  27  29
BRANCH  26  33
ATOM     33  C   UNL     1       0.561  10.687  21.244  0.00  0.00    +0.000 C 
ATOM     34  N   UNL     1       0.122  11.687  21.647  0.00  0.00    +0.000 NA
ENDBRANCH  26  33
ENDBRANCH  21  23
ENDBRANCH   4  19
TORSDOF 6
ENDMDL
MODEL 3
REMARK VINA RESULT:      -8.5      2.943      4.052
REMARK  Name = 
REMARK  8 active torsions:
REMARK  status: ('A' for Active; 'I' for Inactive)
REMARK    1  A    between atoms: C_1  and  C_2
REMARK    2  A    between atoms: N_4  and  C_5
REMARK    3  A    between atoms: C_9  and  C_10
REMARK    4  A    between atoms: C_13  and  C_14
REMARK    5  A    between atoms: C_13  and  C_15
REMARK    6  A    between atoms: N_17  and  C_18
REMARK    7  A    between atoms: C_21  and  C_22
REMARK    8  A    between atoms: C_24  and  C_25
REMARK                            x       y       z     vdW  Elec       q    Type
REMARK                         _______ _______ _______ _____ _____    ______ ____
ROOT
ATOM      1  C   UNL     1       5.411   4.351  17.414  0.00  0.00    +0.000 C 
ATOM      2  N   UNL     1       6.023   4.864  18.440  0.00  0.00    +0.000 NA
ATOM      3  N   UNL     1       5.238   4.649  19.530  0.00  0.00    +0.000 N 
ATOM      4  C   UNL     1       3.946   4.021  19.187  0.00  0.00    +0.000 C 
ATOM      5  C   UNL     1       3.576   2.839  20.080  0.00  0.00    +0.000 C 
ATOM      6  C   UNL     1       4.152   3.596  17.742  0.00  0.00    +0.000 C 
ATOM      7  H   UNL     1       5.737   4.140  20.263  0.00  0.00    +0.000 HD
ENDROOT
BRANCH   1  12
ATOM      8  C   UNL     1       5.486   4.228  13.626  0.00  0.00    +0.000 A 
ATOM      9  C   UNL     1       6.830   4.533  13.394  0.00  0.00    +0.000 A 
ATOM     10  C   UNL     1       7.700   4.793  14.449  0.00  0.00    +0.000 A 
ATOM     11  C   UNL     1       7.232   4.754  15.757  0.00  0.00    +0.000 A 
ATOM     12  C   UNL     1       5.888   4.457  16.014  0.00  0.00    +0.000 A 
ATOM     13  C   UNL     1       5.009   4.213  14.946  0.00  0.00    +0.000 A 
BRANCH   8  17
ATOM     14  C   UNL     1       3.682   2.944  10.569  0.00  0.00    +0.000 C 
ATOM     15  C   UNL     1       4.761   2.949  11.616  0.00  0.00    +0.000 C 
ATOM     16  O   UNL     1       5.671   2.127  11.568  0.00  0.00    +0.000 OA
ATOM     17  N   UNL     1       4.587   3.937  12.575  0.00  0.00    +0.000 N 
ATOM     18  H   UNL     1       3.697   4.420  12.587  0.00  0.00    +0.000 HD
ENDBRANCH   8  17
ENDBRANCH   1  12
BRANCH   4  19
ATOM     19  C   UNL     1       2.805   5.058  19.231  0.00  0.00    +0.000 C 
ATOM     20  O   UNL     1       1.645   4.680  19.401  0.00  0.00    +0.000 OA
ATOM     21  N   UNL     1       3.194   6.365  18.981  0.00  0.00    +0.000 N 
ATOM     22  H   UNL     1       4.164   6.464  18.680  0.00  0.00    +0.000 HD
BRANCH  21  23
ATOM     23  C   UNL     1       2.364   7.502  19.034  0.00  0.00    +0.000 A 
ATOM     24  C   UNL     1       2.044   8.238  17.893  0.00  0.00    +0.000 A 
ATOM     25  C   UNL     1       1.235   9.369  17.974  0.00  0.00    +0.000 A 
ATOM     26  C   UNL     1       0.724   9.794  19.203  0.00  0.00    +0.000 A 
ATOM     27  C   UNL     1       1.021   9.066  20.370  0.00  0.00    +0.000 A 
ATOM     28  C   UNL     1       1.830   7.905  20.264  0.00  0.00    +0.000 A 
BRANCH  27  29
ATOM     29  C   UNL     1       0.530   9.479  21.738  0.00  0.00    +0.000 C 
ATOM     30  F   UNL     1       0.633  10.804  22.017  0.00  0.00    +0.000 F 
ATOM     31  F   UNL     1      -0.781   9.165  21.929  0.00  0.00    +0.000 F 
ATOM     32  F   UNL     1       1.211   8.844  22.732  0.00  0.00    +0.000 F 
ENDBRANCH  27  29
BRANCH  26  33
ATOM     33  C   UNL     1      -0.097  10.966  19.196  0.00  0.00    +0.000 C 
ATOM     34  N   UNL     1      -0.769  11.915  19.145  0.00  0.00    +0.000 NA
ENDBRANCH  26  33
ENDBRANCH  21  23
ENDBRANCH   4  19
TORSDOF 6
ENDMDL
MODEL 4
REMARK VINA RESULT:      -8.3      2.662      3.772
REMARK  Name = 
REMARK  8 active torsions:
REMARK  status: ('A' for Active; 'I' for Inactive)
REMARK    1  A    between atoms: C_1  and  C_2
REMARK    2  A    between atoms: N_4  and  C_5
REMARK    3  A    between atoms: C_9  and  C_10
REMARK    4  A    between atoms: C_13  and  C_14
REMARK    5  A    between atoms: C_13  and  C_15
REMARK    6  A    between atoms: N_17  and  C_18
REMARK    7  A    between atoms: C_21  and  C_22
REMARK    8  A    between atoms: C_24  and  C_25
REMARK                            x       y       z     vdW  Elec       q    Type
REMARK                         _______ _______ _______ _____ _____    ______ ____
ROOT
ATOM      1  C   UNL     1       4.799   3.963  17.752  0.00  0.00    +0.000 C 
ATOM      2  N   UNL     1       5.321   3.864  18.939  0.00  0.00    +0.000 NA
ATOM      3  N   UNL     1       4.311   3.569  19.802  0.00  0.00    +0.000 N 
ATOM      4  C   UNL     1       2.987   3.564  19.149  0.00  0.00    +0.000 C 
ATOM      5  C   UNL     1       2.132   2.347  19.493  0.00  0.00    +0.000 C 
ATOM      6  C   UNL     1       3.340   3.609  17.671  0.00  0.00    +0.000 C 
ATOM      7  H   UNL     1       4.494   2.707  20.320  0.00  0.00    +0.000 HD
ENDROOT
BRANCH   1  12
ATOM      8  C   UNL     1       6.364   3.879  14.299  0.00  0.00    +0.000 A 
ATOM      9  C   UNL     1       7.068   5.087  14.317  0.00  0.00    +0.000 A 
ATOM     10  C   UNL     1       7.025   5.928  15.424  0.00  0.00    +0.000 A 
ATOM     11  C   UNL     1       6.268   5.571  16.535  0.00  0.00    +0.000 A 
ATOM     12  C   UNL     1       5.549   4.370  16.539  0.00  0.00    +0.000 A 
ATOM     13  C   UNL     1       5.582   3.532  15.412  0.00  0.00    +0.000 A 
BRANCH   8  17
ATOM     14  C   UNL     1       5.743   1.831  11.191  0.00  0.00    +0.000 C 
ATOM     15  C   UNL     1       5.479   2.941  12.170  0.00  0.00    +0.000 C 
ATOM     16  O   UNL     1       4.519   3.690  12.010  0.00  0.00    +0.000 OA
ATOM     17  N   UNL     1       6.410   2.996  13.197  0.00  0.00    +0.000 N 
ATOM     18  H   UNL     1       7.244   2.431  13.098  0.00  0.00    +0.000 HD
ENDBRANCH   8  17
ENDBRANCH   1  12
BRANCH   4  19
ATOM     19  C   UNL     1       2.199   4.844  19.499  0.00  0.00    +0.000 C 
ATOM     20  O   UNL     1       1.245   4.778  20.276  0.00  0.00    +0.000 OA
ATOM     21  N   UNL     1       2.599   5.981  18.815  0.00  0.00    +0.000 N 
ATOM     22  H   UNL     1       3.284   5.809  18.078  0.00  0.00    +0.000 HD
BRANCH  21  23
ATOM     23  C   UNL     1       2.094   7.283  19.004  0.00  0.00    +0.000 A 
ATOM     24  C   UNL     1       2.025   8.207  17.962  0.00  0.00    +0.000 A 
ATOM     25  C   UNL     1       1.539   9.494  18.178  0.00  0.00    +0.000 A 
ATOM     26  C   UNL     1       1.107   9.891  19.447  0.00  0.00    +0.000 A 
ATOM     27  C   UNL     1       1.156   8.977  20.516  0.00  0.00    +0.000 A 
ATOM     28  C   UNL     1       1.636   7.664  20.271  0.00  0.00    +0.000 A 
BRANCH  27  29
ATOM     29  C   UNL     1       0.737   9.341  21.921  0.00  0.00    +0.000 C 
ATOM     30  F   UNL     1       0.402  10.642  22.109  0.00  0.00    +0.000 F 
ATOM     31  F   UNL     1      -0.340   8.619  22.337  0.00  0.00    +0.000 F 
ATOM     32  F   UNL     1       1.724   9.085  22.825  0.00  0.00    +0.000 F 
ENDBRANCH  27  29
BRANCH  26  33
ATOM     33  C   UNL     1       0.624  11.231  19.580  0.00  0.00    +0.000 C 
ATOM     34  N   UNL     1       0.189  12.305  19.687  0.00  0.00    +0.000 NA
ENDBRANCH  26  33
ENDBRANCH  21  23
ENDBRANCH   4  19
TORSDOF 6
ENDMDL
MODEL 5
REMARK VINA RESULT:      -8.0      4.345      8.212
REMARK  Name = 
REMARK  8 active torsions:
REMARK  status: ('A' for Active; 'I' for Inactive)
REMARK    1  A    between atoms: C_1  and  C_2
REMARK    2  A    between atoms: N_4  and  C_5
REMARK    3  A    between atoms: C_9  and  C_10
REMARK    4  A    between atoms: C_13  and  C_14
REMARK    5  A    between atoms: C_13  and  C_15
REMARK    6  A    between atoms: N_17  and  C_18
REMARK    7  A    between atoms: C_21  and  C_22
REMARK    8  A    between atoms: C_24  and  C_25
REMARK                            x       y       z     vdW  Elec       q    Type
REMARK                         _______ _______ _______ _____ _____    ______ ____
ROOT
ATOM      1  C   UNL     1       0.559  12.370  19.001  0.00  0.00    +0.000 C 
ATOM      2  N   UNL     1      -0.641  12.048  18.615  0.00  0.00    +0.000 NA
ATOM      3  N   UNL     1      -0.858  10.761  18.998  0.00  0.00    +0.000 N 
ATOM      4  C   UNL     1       0.333  10.140  19.610  0.00  0.00    +0.000 C 
ATOM      5  C   UNL     1       0.044   9.398  20.913  0.00  0.00    +0.000 C 
ATOM      6  C   UNL     1       1.257  11.328  19.828  0.00  0.00    +0.000 C 
ATOM      7  H   UNL     1      -1.689  10.677  19.588  0.00  0.00    +0.000 HD
ENDROOT
BRANCH   1  12
ATOM      8  C   UNL     1       3.195  14.909  18.011  0.00  0.00    +0.000 A 
ATOM      9  C   UNL     1       2.493  16.097  18.238  0.00  0.00    +0.000 A 
ATOM     10  C   UNL     1       1.177  16.078  18.690  0.00  0.00    +0.000 A 
ATOM     11  C   UNL     1       0.541  14.864  18.918  0.00  0.00    +0.000 A 
ATOM     12  C   UNL     1       1.220  13.661  18.691  0.00  0.00    +0.000 A 
ATOM     13  C   UNL     1       2.543  13.683  18.218  0.00  0.00    +0.000 A 
BRANCH   8  17
ATOM     14  C   UNL     1       6.949  15.024  17.638  0.00  0.00    +0.000 C 
ATOM     15  C   UNL     1       5.653  14.953  18.398  0.00  0.00    +0.000 C 
ATOM     16  O   UNL     1       5.659  14.940  19.626  0.00  0.00    +0.000 OA
ATOM     17  N   UNL     1       4.539  14.899  17.574  0.00  0.00    +0.000 N 
ATOM     18  H   UNL     1       4.698  14.734  16.587  0.00  0.00    +0.000 HD
ENDBRANCH   8  17
ENDBRANCH   1  12
BRANCH   4  19
ATOM     19  C   UNL     1       1.014   9.170  18.622  0.00  0.00    +0.000 C 
ATOM     20  O   UNL     1       0.729   9.220  17.424  0.00  0.00    +0.000 OA
ATOM     21  N   UNL     1       1.855   8.237  19.207  0.00  0.00    +0.000 N 
ATOM     22  H   UNL     1       1.828   8.228  20.227  0.00  0.00    +0.000 HD
BRANCH  21  23
ATOM     23  C   UNL     1       2.647   7.292  18.525  0.00  0.00    +0.000 A 
ATOM     24  C   UNL     1       3.739   7.669  17.743  0.00  0.00    +0.000 A 
ATOM     25  C   UNL     1       4.496   6.717  17.064  0.00  0.00    +0.000 A 
ATOM     26  C   UNL     1       4.179   5.358  17.151  0.00  0.00    +0.000 A 
ATOM     27  C   UNL     1       3.089   4.947  17.940  0.00  0.00    +0.000 A 
ATOM     28  C   UNL     1       2.342   5.930  18.640  0.00  0.00    +0.000 A 
BRANCH  27  29
ATOM     29  C   UNL     1       2.667   3.501  18.059  0.00  0.00    +0.000 C 
ATOM     30  F   UNL     1       1.551   3.280  18.799  0.00  0.00    +0.000 F 
ATOM     31  F   UNL     1       2.419   2.939  16.844  0.00  0.00    +0.000 F 
ATOM     32  F   UNL     1       3.639   2.736  18.628  0.00  0.00    +0.000 F 
ENDBRANCH  27  29
BRANCH  26  33
ATOM     33  C   UNL     1       5.008   4.449  16.421  0.00  0.00    +0.000 C 
ATOM     34  N   UNL     1       5.647   3.686  15.817  0.00  0.00    +0.000 NA
ENDBRANCH  26  33
ENDBRANCH  21  23
ENDBRANCH   4  19
TORSDOF 6
ENDMDL
MODEL 6
REMARK VINA RESULT:      -8.0      3.199      7.132
REMARK  Name = 
REMARK  8 active torsions:
REMARK  status: ('A' for Active; 'I' for Inactive)
REMARK    1  A    between atoms: C_1  and  C_2
REMARK    2  A    between atoms: N_4  and  C_5
REMARK    3  A    between atoms: C_9  and  C_10
REMARK    4  A    between atoms: C_13  and  C_14
REMARK    5  A    between atoms: C_13  and  C_15
REMARK    6  A    between atoms: N_17  and  C_18
REMARK    7  A    between atoms: C_21  and  C_22
REMARK    8  A    between atoms: C_24  and  C_25
REMARK                            x       y       z     vdW  Elec       q    Type
REMARK                         _______ _______ _______ _____ _____    ______ ____
ROOT
ATOM      1  C   UNL     1       4.371   5.832  17.638  0.00  0.00    +0.000 C 
ATOM      2  N   UNL     1       4.307   6.696  16.668  0.00  0.00    +0.000 NA
ATOM      3  N   UNL     1       5.546   6.773  16.112  0.00  0.00    +0.000 N 
ATOM      4  C   UNL     1       6.546   5.960  16.833  0.00  0.00    +0.000 C 
ATOM      5  C   UNL     1       7.415   5.097  15.921  0.00  0.00    +0.000 C 
ATOM      6  C   UNL     1       5.687   5.116  17.761  0.00  0.00    +0.000 C 
ATOM      7  H   UNL     1       5.525   6.568  15.110  0.00  0.00    +0.000 HD
ENDROOT
BRANCH   1  12
ATOM      8  C   UNL     1       1.832   6.160  20.435  0.00  0.00    +0.000 A 
ATOM      9  C   UNL     1       1.240   4.894  20.382  0.00  0.00    +0.000 A 
ATOM     10  C   UNL     1       1.644   3.951  19.442  0.00  0.00    +0.000 A 
ATOM     11  C   UNL     1       2.649   4.265  18.535  0.00  0.00    +0.000 A 
ATOM     12  C   UNL     1       3.253   5.528  18.563  0.00  0.00    +0.000 A 
ATOM     13  C   UNL     1       2.830   6.483  19.502  0.00  0.00    +0.000 A 
BRANCH   8  17
ATOM     14  C   UNL     1       0.835   9.256  22.350  0.00  0.00    +0.000 C 
ATOM     15  C   UNL     1       1.085   8.435  21.114  0.00  0.00    +0.000 C 
ATOM     16  O   UNL     1       0.946   8.936  20.003  0.00  0.00    +0.000 OA
ATOM     17  N   UNL     1       1.458   7.128  21.393  0.00  0.00    +0.000 N 
ATOM     18  H   UNL     1       1.354   6.810  22.349  0.00  0.00    +0.000 HD
ENDBRANCH   8  17
ENDBRANCH   1  12
BRANCH   4  19
ATOM     19  C   UNL     1       7.460   6.855  17.695  0.00  0.00    +0.000 C 
ATOM     20  O   UNL     1       8.165   6.345  18.567  0.00  0.00    +0.000 OA
ATOM     21  N   UNL     1       7.336   8.215  17.458  0.00  0.00    +0.000 N 
ATOM     22  H   UNL     1       6.571   8.465  16.829  0.00  0.00    +0.000 HD
BRANCH  21  23
ATOM     23  C   UNL     1       8.104   9.234  18.056  0.00  0.00    +0.000 A 
ATOM     24  C   UNL     1       8.974   8.980  19.116  0.00  0.00    +0.000 A 
ATOM     25  C   UNL     1       9.709  10.008  19.701  0.00  0.00    +0.000 A 
ATOM     26  C   UNL     1       9.591  11.322  19.239  0.00  0.00    +0.000 A 
ATOM     27  C   UNL     1       8.728  11.608  18.165  0.00  0.00    +0.000 A 
ATOM     28  C   UNL     1       8.004  10.544  17.569  0.00  0.00    +0.000 A 
BRANCH  27  29
ATOM     29  C   UNL     1       8.525  13.007  17.631  0.00  0.00    +0.000 C 
ATOM     30  F   UNL     1       8.195  13.940  18.558  0.00  0.00    +0.000 F 
ATOM     31  F   UNL     1       9.638  13.483  17.009  0.00  0.00    +0.000 F 
ATOM     32  F   UNL     1       7.532  13.052  16.699  0.00  0.00    +0.000 F 
ENDBRANCH  27  29
BRANCH  26  33
ATOM     33  C   UNL     1      10.382  12.316  19.899  0.00  0.00    +0.000 C 
ATOM     34  N   UNL     1      11.030  13.145  20.396  0.00  0.00    +0.000 NA
ENDBRANCH  26  33
ENDBRANCH  21  23
ENDBRANCH   4  19
TORSDOF 6
ENDMDL
MODEL 7
REMARK VINA RESULT:      -8.0      3.020      4.226
REMARK  Name = 
REMARK  8 active torsions:
REMARK  status: ('A' for Active; 'I' for Inactive)
REMARK    1  A    between atoms: C_1  and  C_2
REMARK    2  A    between atoms: N_4  and  C_5
REMARK    3  A    between atoms: C_9  and  C_10
REMARK    4  A    between atoms: C_13  and  C_14
REMARK    5  A    between atoms: C_13  and  C_15
REMARK    6  A    between atoms: N_17  and  C_18
REMARK    7  A    between atoms: C_21  and  C_22
REMARK    8  A    between atoms: C_24  and  C_25
REMARK                            x       y       z     vdW  Elec       q    Type
REMARK                         _______ _______ _______ _____ _____    ______ ____
ROOT
ATOM      1  C   UNL     1       5.649   4.419  17.031  0.00  0.00    +0.000 C 
ATOM      2  N   UNL     1       6.235   5.002  18.035  0.00  0.00    +0.000 NA
ATOM      3  N   UNL     1       5.458   4.797  19.132  0.00  0.00    +0.000 N 
ATOM      4  C   UNL     1       4.197   4.097  18.816  0.00  0.00    +0.000 C 
ATOM      5  C   UNL     1       3.880   2.938  19.758  0.00  0.00    +0.000 C 
ATOM      6  C   UNL     1       4.426   3.622  17.390  0.00  0.00    +0.000 C 
ATOM      7  H   UNL     1       5.978   4.342  19.886  0.00  0.00    +0.000 HD
ENDROOT
BRANCH   1  12
ATOM      8  C   UNL     1       6.212   3.556  13.382  0.00  0.00    +0.000 A 
ATOM      9  C   UNL     1       7.125   4.555  13.030  0.00  0.00    +0.000 A 
ATOM     10  C   UNL     1       7.542   5.507  13.955  0.00  0.00    +0.000 A 
ATOM     11  C   UNL     1       7.044   5.474  15.252  0.00  0.00    +0.000 A 
ATOM     12  C   UNL     1       6.123   4.489  15.628  0.00  0.00    +0.000 A 
ATOM     13  C   UNL     1       5.692   3.540  14.686  0.00  0.00    +0.000 A 
BRANCH   8  17
ATOM     14  C   UNL     1       5.831   1.017  10.617  0.00  0.00    +0.000 C 
ATOM     15  C   UNL     1       6.588   1.968  11.503  0.00  0.00    +0.000 C 
ATOM     16  O   UNL     1       7.790   2.144  11.334  0.00  0.00    +0.000 OA
ATOM     17  N   UNL     1       5.790   2.564  12.469  0.00  0.00    +0.000 N 
ATOM     18  H   UNL     1       4.861   2.185  12.603  0.00  0.00    +0.000 HD
ENDBRANCH   8  17
ENDBRANCH   1  12
BRANCH   4  19
ATOM     19  C   UNL     1       3.009   5.081  18.816  0.00  0.00    +0.000 C 
ATOM     20  O   UNL     1       1.860   4.650  18.714  0.00  0.00    +0.000 OA
ATOM     21  N   UNL     1       3.362   6.421  18.847  0.00  0.00    +0.000 N 
ATOM     22  H   UNL     1       4.363   6.595  18.745  0.00  0.00    +0.000 HD
BRANCH  21  23
ATOM     23  C   UNL     1       2.473   7.511  18.928  0.00  0.00    +0.000 A 
ATOM     24  C   UNL     1       2.120   8.262  17.807  0.00  0.00    +0.000 A 
ATOM     25  C   UNL     1       1.253   9.347  17.916  0.00  0.00    +0.000 A 
ATOM     26  C   UNL     1       0.715   9.709  19.154  0.00  0.00    +0.000 A 
ATOM     27  C   UNL     1       1.045   8.964  20.301  0.00  0.00    +0.000 A 
ATOM     28  C   UNL     1       1.914   7.851  20.166  0.00  0.00    +0.000 A 
BRANCH  27  29
ATOM     29  C   UNL     1       0.528   9.313  21.677  0.00  0.00    +0.000 C 
ATOM     30  F   UNL     1       1.216   8.766  22.712  0.00  0.00    +0.000 F 
ATOM     31  F   UNL     1       0.533  10.656  21.901  0.00  0.00    +0.000 F 
ATOM     32  F   UNL     1      -0.763   8.915  21.847  0.00  0.00    +0.000 F 
ENDBRANCH  27  29
BRANCH  26  33
ATOM     33  C   UNL     1      -0.166  10.837  19.175  0.00  0.00    +0.000 C 
ATOM     34  N   UNL     1      -0.907  11.734  19.160  0.00  0.00    +0.000 NA
ENDBRANCH  26  33
ENDBRANCH  21  23
ENDBRANCH   4  19
TORSDOF 6
ENDMDL
MODEL 8
REMARK VINA RESULT:      -7.8      4.627      7.675
REMARK  Name = 
REMARK  8 active torsions:
REMARK  status: ('A' for Active; 'I' for Inactive)
REMARK    1  A    between atoms: C_1  and  C_2
REMARK    2  A    between atoms: N_4  and  C_5
REMARK    3  A    between atoms: C_9  and  C_10
REMARK    4  A    between atoms: C_13  and  C_14
REMARK    5  A    between atoms: C_13  and  C_15
REMARK    6  A    between atoms: N_17  and  C_18
REMARK    7  A    between atoms: C_21  and  C_22
REMARK    8  A    between atoms: C_24  and  C_25
REMARK                            x       y       z     vdW  Elec       q    Type
REMARK                         _______ _______ _______ _____ _____    ______ ____
ROOT
ATOM      1  C   UNL     1       1.182   9.483  19.416  0.00  0.00    +0.000 C 
ATOM      2  N   UNL     1       0.510   9.655  20.517  0.00  0.00    +0.000 NA
ATOM      3  N   UNL     1       0.032  10.928  20.506  0.00  0.00    +0.000 N 
ATOM      4  C   UNL     1       0.504  11.704  19.342  0.00  0.00    +0.000 C 
ATOM      5  C   UNL     1      -0.602  12.475  18.624  0.00  0.00    +0.000 C 
ATOM      6  C   UNL     1       1.119  10.635  18.452  0.00  0.00    +0.000 C 
ATOM      7  H   UNL     1      -0.985  10.952  20.605  0.00  0.00    +0.000 HD
ENDROOT
BRANCH   1  12
ATOM      8  C   UNL     1       2.737   6.036  19.684  0.00  0.00    +0.000 A 
ATOM      9  C   UNL     1       3.496   6.015  18.510  0.00  0.00    +0.000 A 
ATOM     10  C   UNL     1       3.493   7.095  17.633  0.00  0.00    +0.000 A 
ATOM     11  C   UNL     1       2.723   8.216  17.919  0.00  0.00    +0.000 A 
ATOM     12  C   UNL     1       1.948   8.258  19.084  0.00  0.00    +0.000 A 
ATOM     13  C   UNL     1       1.940   7.159  19.958  0.00  0.00    +0.000 A 
BRANCH   8  17
ATOM     14  C   UNL     1       2.008   3.006  21.812  0.00  0.00    +0.000 C 
ATOM     15  C   UNL     1       1.791   3.952  20.664  0.00  0.00    +0.000 C 
ATOM     16  O   UNL     1       0.852   3.781  19.893  0.00  0.00    +0.000 OA
ATOM     17  N   UNL     1       2.739   4.963  20.604  0.00  0.00    +0.000 N 
ATOM     18  H   UNL     1       3.556   4.871  21.197  0.00  0.00    +0.000 HD
ENDBRANCH   8  17
ENDBRANCH   1  12
BRANCH   4  19
ATOM     19  C   UNL     1       1.615  12.691  19.755  0.00  0.00    +0.000 C 
ATOM     20  O   UNL     1       1.950  12.771  20.937  0.00  0.00    +0.000 OA
ATOM     21  N   UNL     1       2.096  13.490  18.729  0.00  0.00    +0.000 N 
ATOM     22  H   UNL     1       1.574  13.412  17.855  0.00  0.00    +0.000 HD
BRANCH  21  23
ATOM     23  C   UNL     1       3.154  14.416  18.826  0.00  0.00    +0.000 A 
ATOM     24  C   UNL     1       2.970  15.698  19.342  0.00  0.00    +0.000 A 
ATOM     25  C   UNL     1       4.029  16.601  19.410  0.00  0.00    +0.000 A 
ATOM     26  C   UNL     1       5.303  16.242  18.962  0.00  0.00    +0.000 A 
ATOM     27  C   UNL     1       5.521  14.952  18.445  0.00  0.00    +0.000 A 
ATOM     28  C   UNL     1       4.435  14.040  18.402  0.00  0.00    +0.000 A 
BRANCH  27  29
ATOM     29  C   UNL     1       6.862  14.501  17.913  0.00  0.00    +0.000 C 
ATOM     30  F   UNL     1       6.856  13.317  17.251  0.00  0.00    +0.000 F 
ATOM     31  F   UNL     1       7.399  15.404  17.047  0.00  0.00    +0.000 F 
ATOM     32  F   UNL     1       7.778  14.356  18.911  0.00  0.00    +0.000 F 
ENDBRANCH  27  29
BRANCH  26  33
ATOM     33  C   UNL     1       6.332  17.231  19.068  0.00  0.00    +0.000 C 
ATOM     34  N   UNL     1       7.137  18.065  19.165  0.00  0.00    +0.000 NA
ENDBRANCH  26  33
ENDBRANCH  21  23
ENDBRANCH   4  19
TORSDOF 6
ENDMDL
MODEL 9
REMARK VINA RESULT:      -7.8      4.434      8.276
REMARK  Name = 
REMARK  8 active torsions:
REMARK  status: ('A' for Active; 'I' for Inactive)
REMARK    1  A    between atoms: C_1  and  C_2
REMARK    2  A    between atoms: N_4  and  C_5
REMARK    3  A    between atoms: C_9  and  C_10
REMARK    4  A    between atoms: C_13  and  C_14
REMARK    5  A    between atoms: C_13  and  C_15
REMARK    6  A    between atoms: N_17  and  C_18
REMARK    7  A    between atoms: C_21  and  C_22
REMARK    8  A    between atoms: C_24  and  C_25
REMARK                            x       y       z     vdW  Elec       q    Type
REMARK                         _______ _______ _______ _____ _____    ______ ____
ROOT
ATOM      1  C   UNL     1       0.632  12.921  19.556  0.00  0.00    +0.000 C 
ATOM      2  N   UNL     1      -0.633  12.689  19.363  0.00  0.00    +0.000 NA
ATOM      3  N   UNL     1      -0.922  11.500  19.958  0.00  0.00    +0.000 N 
ATOM      4  C   UNL     1       0.273  10.836  20.514  0.00  0.00    +0.000 C 
ATOM      5  C   UNL     1       0.086  10.316  21.938  0.00  0.00    +0.000 C 
ATOM      6  C   UNL     1       1.328  11.928  20.445  0.00  0.00    +0.000 C 
ATOM      7  H   UNL     1      -1.673  11.593  20.646  0.00  0.00    +0.000 HD
ENDROOT
BRANCH   1  12
ATOM      8  C   UNL     1       3.412  15.023  18.063  0.00  0.00    +0.000 A 
ATOM      9  C   UNL     1       2.787  16.273  18.030  0.00  0.00    +0.000 A 
ATOM     10  C   UNL     1       1.477  16.433  18.469  0.00  0.00    +0.000 A 
ATOM     11  C   UNL     1       0.768  15.336  18.946  0.00  0.00    +0.000 A 
ATOM     12  C   UNL     1       1.370  14.073  18.983  0.00  0.00    +0.000 A 
ATOM     13  C   UNL     1       2.687  13.912  18.523  0.00  0.00    +0.000 A 
BRANCH   8  17
ATOM     14  C   UNL     1       7.162  14.927  17.643  0.00  0.00    +0.000 C 
ATOM     15  C   UNL     1       5.877  15.146  18.393  0.00  0.00    +0.000 C 
ATOM     16  O   UNL     1       5.900  15.552  19.551  0.00  0.00    +0.000 OA
ATOM     17  N   UNL     1       4.749  14.837  17.646  0.00  0.00    +0.000 N 
ATOM     18  H   UNL     1       4.891  14.342  16.773  0.00  0.00    +0.000 HD
ENDBRANCH   8  17
ENDBRANCH   1  12
BRANCH   4  19
ATOM     19  C   UNL     1       0.721   9.668  19.610  0.00  0.00    +0.000 C 
ATOM     20  O   UNL     1       0.402   9.661  18.421  0.00  0.00    +0.000 OA
ATOM     21  N   UNL     1       1.398   8.651  20.265  0.00  0.00    +0.000 N 
ATOM     22  H   UNL     1       1.412   8.741  21.282  0.00  0.00    +0.000 HD
BRANCH  21  23
ATOM     23  C   UNL     1       1.973   7.515  19.661  0.00  0.00    +0.000 A 
ATOM     24  C   UNL     1       2.773   7.608  18.522  0.00  0.00    +0.000 A 
ATOM     25  C   UNL     1       3.315   6.468  17.933  0.00  0.00    +0.000 A 
ATOM     26  C   UNL     1       3.071   5.202  18.471  0.00  0.00    +0.000 A 
ATOM     27  C   UNL     1       2.277   5.077  19.626  0.00  0.00    +0.000 A 
ATOM     28  C   UNL     1       1.750   6.252  20.222  0.00  0.00    +0.000 A 
BRANCH  27  29
ATOM     29  C   UNL     1       1.944   3.741  20.248  0.00  0.00    +0.000 C 
ATOM     30  F   UNL     1       3.012   2.989  20.614  0.00  0.00    +0.000 F 
ATOM     31  F   UNL     1       1.184   3.873  21.370  0.00  0.00    +0.000 F 
ATOM     32  F   UNL     1       1.219   2.957  19.401  0.00  0.00    +0.000 F 
ENDBRANCH  27  29
BRANCH  26  33
ATOM     33  C   UNL     1       3.667   4.086  17.802  0.00  0.00    +0.000 C 
ATOM     34  N   UNL     1       4.187   3.182  17.285  0.00  0.00    +0.000 NA
ENDBRANCH  26  33
ENDBRANCH  21  23
ENDBRANCH   4  19
TORSDOF 6
ENDMDL
