MODEL 1
REMARK VINA RESULT:      -7.5      0.000      0.000
REMARK  Name = 
REMARK  11 active torsions:
REMARK  status: ('A' for Active; 'I' for Inactive)
REMARK    1  A    between atoms: C_1  and  O_2
REMARK    2  A    between atoms: O_2  and  C_3
REMARK    3  A    between atoms: C_8  and  O_9
REMARK    4  A    between atoms: O_9  and  C_10
REMARK    5  A    between atoms: C_10  and  C_11
REMARK    6  A    between atoms: C_11  and  C_12
REMARK    7  A    between atoms: C_12  and  O_14
REMARK    8  A    between atoms: O_14  and  C_15
REMARK    9  A    between atoms: C_15  and  C_16
REMARK   10  A    between atoms: N_18  and  C_19
REMARK   11  A    between atoms: C_19  and  C_20
REMARK                            x       y       z     vdW  Elec       q    Type
REMARK                         _______ _______ _______ _____ _____    ______ ____
ROOT
ATOM      1  O   UNL     1       7.436   6.219  16.421  0.00  0.00    +0.000 OA
ENDROOT
BRANCH   1   2
ATOM      2  C   UNL     1       7.168   5.072  17.100  0.00  0.00    +0.000 C 
ATOM      3  O   UNL     1       8.001   4.195  17.324  0.00  0.00    +0.000 OA
BRANCH   2   4
ATOM      4  C   UNL     1       5.717   4.974  17.483  0.00  0.00    +0.000 C 
BRANCH   4   5
ATOM      5  C   UNL     1       5.660   4.971  19.003  0.00  0.00    +0.000 C 
BRANCH   5   6
ATOM      6  O   UNL     1       5.011   3.802  19.494  0.00  0.00    +0.000 OA
BRANCH   6  12
ATOM      7  C   UNL     1       2.651   2.941  19.397  0.00  0.00    +0.000 A 
ATOM      8  C   UNL     1       1.320   3.195  19.766  0.00  0.00    +0.000 A 
ATOM      9  C   UNL     1       0.953   4.416  20.327  0.00  0.00    +0.000 A 
ATOM     10  C   UNL     1       1.924   5.375  20.578  0.00  0.00    +0.000 A 
ATOM     11  C   UNL     1       3.265   5.099  20.294  0.00  0.00    +0.000 A 
ATOM     12  C   UNL     1       3.650   3.884  19.707  0.00  0.00    +0.000 A 
BRANCH   7  14
ATOM     13  C   UNL     1       2.971   1.791  17.350  0.00  0.00    +0.000 C 
ATOM     14  O   UNL     1       2.971   1.762  18.778  0.00  0.00    +0.000 OA
ENDBRANCH   7  14
ENDBRANCH   6  12
ENDBRANCH   5   6
ENDBRANCH   4   5
ENDBRANCH   2   4
ENDBRANCH   1   2
BRANCH   1  15
ATOM     15  C   UNL     1       6.977   7.412  17.061  0.00  0.00    +0.000 C 
BRANCH  15  16
ATOM     16  C   UNL     1       7.982   7.969  18.076  0.00  0.00    +0.000 C 
ATOM     17  O   UNL     1       8.528   7.253  18.913  0.00  0.00    +0.000 OA
ATOM     18  N   UNL     1       8.222   9.325  17.974  0.00  0.00    +0.000 N 
ATOM     19  H   UNL     1       7.536   9.880  17.467  0.00  0.00    +0.000 HD
BRANCH  18  20
ATOM     20  C   UNL     1       9.075   9.998  18.925  0.00  0.00    +0.000 C 
BRANCH  20  21
ATOM     21  C   UNL     1       9.598  11.298  18.368  0.00  0.00    +0.000 A 
ATOM     22  C   UNL     1      10.870  11.368  17.781  0.00  0.00    +0.000 A 
ATOM     23  C   UNL     1      11.361  12.584  17.297  0.00  0.00    +0.000 A 
ATOM     24  C   UNL     1      10.586  13.737  17.403  0.00  0.00    +0.000 A 
ATOM     25 CL   UNL     1      11.204  15.238  16.831  0.00  0.00    +0.000 Cl
ATOM     26  C   UNL     1       9.320  13.684  17.978  0.00  0.00    +0.000 A 
ATOM     27  C   UNL     1       8.828  12.469  18.462  0.00  0.00    +0.000 A 
ENDBRANCH  20  21
ENDBRANCH  18  20
ENDBRANCH  15  16
ENDBRANCH   1  15
TORSDOF 10
ENDMDL
MODEL 2
REMARK VINA RESULT:      -7.5      1.535      2.353
REMARK  Name = 
REMARK  11 active torsions:
REMARK  status: ('A' for Active; 'I' for Inactive)
REMARK    1  A    between atoms: C_1  and  O_2
REMARK    2  A    between atoms: O_2  and  C_3
REMARK    3  A    between atoms: C_8  and  O_9
REMARK    4  A    between atoms: O_9  and  C_10
REMARK    5  A    between atoms: C_10  and  C_11
REMARK    6  A    between atoms: C_11  and  C_12
REMARK    7  A    between atoms: C_12  and  O_14
REMARK    8  A    between atoms: O_14  and  C_15
REMARK    9  A    between atoms: C_15  and  C_16
REMARK   10  A    between atoms: N_18  and  C_19
REMARK   11  A    between atoms: C_19  and  C_20
REMARK                            x       y       z     vdW  Elec       q    Type
REMARK                         _______ _______ _______ _____ _____    ______ ____
ROOT
ATOM      1  O   UNL     1       7.673   6.470  16.169  0.00  0.00    +0.000 OA
ENDROOT
BRANCH   1   2
ATOM      2  C   UNL     1       7.347   5.162  16.347  0.00  0.00    +0.000 C 
ATOM      3  O   UNL     1       7.829   4.447  17.225  0.00  0.00    +0.000 OA
BRANCH   2   4
ATOM      4  C   UNL     1       6.383   4.678  15.300  0.00  0.00    +0.000 C 
BRANCH   4   5
ATOM      5  C   UNL     1       5.361   3.804  16.011  0.00  0.00    +0.000 C 
BRANCH   5   6
ATOM      6  O   UNL     1       4.270   4.578  16.501  0.00  0.00    +0.000 OA
BRANCH   6  12
ATOM      7  C   UNL     1       2.347   4.522  18.120  0.00  0.00    +0.000 A 
ATOM      8  C   UNL     1       1.553   3.696  18.930  0.00  0.00    +0.000 A 
ATOM      9  C   UNL     1       1.877   2.355  19.122  0.00  0.00    +0.000 A 
ATOM     10  C   UNL     1       2.968   1.811  18.458  0.00  0.00    +0.000 A 
ATOM     11  C   UNL     1       3.714   2.604  17.581  0.00  0.00    +0.000 A 
ATOM     12  C   UNL     1       3.417   3.962  17.394  0.00  0.00    +0.000 A 
BRANCH   7  14
ATOM     13  C   UNL     1       2.994   6.751  18.598  0.00  0.00    +0.000 C 
ATOM     14  O   UNL     1       2.050   5.855  18.010  0.00  0.00    +0.000 OA
ENDBRANCH   7  14
ENDBRANCH   6  12
ENDBRANCH   5   6
ENDBRANCH   4   5
ENDBRANCH   2   4
ENDBRANCH   1   2
BRANCH   1  15
ATOM     15  C   UNL     1       7.048   7.370  17.087  0.00  0.00    +0.000 C 
BRANCH  15  16
ATOM     16  C   UNL     1       8.012   7.897  18.156  0.00  0.00    +0.000 C 
ATOM     17  O   UNL     1       8.491   7.165  19.020  0.00  0.00    +0.000 OA
ATOM     18  N   UNL     1       8.295   9.246  18.071  0.00  0.00    +0.000 N 
ATOM     19  H   UNL     1       7.653   9.821  17.530  0.00  0.00    +0.000 HD
BRANCH  18  20
ATOM     20  C   UNL     1       9.114   9.894  19.068  0.00  0.00    +0.000 C 
BRANCH  20  21
ATOM     21  C   UNL     1       9.580  11.249  18.600  0.00  0.00    +0.000 A 
ATOM     22  C   UNL     1       8.917  12.417  19.005  0.00  0.00    +0.000 A 
ATOM     23  C   UNL     1       9.335  13.667  18.541  0.00  0.00    +0.000 A 
ATOM     24  C   UNL     1      10.414  13.756  17.663  0.00  0.00    +0.000 A 
ATOM     25 CL   UNL     1      10.910  15.294  17.070  0.00  0.00    +0.000 Cl
ATOM     26  C   UNL     1      11.087  12.607  17.255  0.00  0.00    +0.000 A 
ATOM     27  C   UNL     1      10.669  11.357  17.719  0.00  0.00    +0.000 A 
ENDBRANCH  20  21
ENDBRANCH  18  20
ENDBRANCH  15  16
ENDBRANCH   1  15
TORSDOF 10
ENDMDL
MODEL 3
REMARK VINA RESULT:      -7.3      4.536      7.025
REMARK  Name = 
REMARK  11 active torsions:
REMARK  status: ('A' for Active; 'I' for Inactive)
REMARK    1  A    between atoms: C_1  and  O_2
REMARK    2  A    between atoms: O_2  and  C_3
REMARK    3  A    between atoms: C_8  and  O_9
REMARK    4  A    between atoms: O_9  and  C_10
REMARK    5  A    between atoms: C_10  and  C_11
REMARK    6  A    between atoms: C_11  and  C_12
REMARK    7  A    between atoms: C_12  and  O_14
REMARK    8  A    between atoms: O_14  and  C_15
REMARK    9  A    between atoms: C_15  and  C_16
REMARK   10  A    between atoms: N_18  and  C_19
REMARK   11  A    between atoms: C_19  and  C_20
REMARK                            x       y       z     vdW  Elec       q    Type
REMARK                         _______ _______ _______ _____ _____    ______ ____
ROOT
ATOM      1  O   UNL     1       1.460   4.045  19.184  0.00  0.00    +0.000 OA
ENDROOT
BRANCH   1   2
ATOM      2  C   UNL     1       2.154   4.225  20.339  0.00  0.00    +0.000 C 
ATOM      3  O   UNL     1       1.823   3.742  21.422  0.00  0.00    +0.000 OA
BRANCH   2   4
ATOM      4  C   UNL     1       3.332   5.139  20.148  0.00  0.00    +0.000 C 
BRANCH   4   5
ATOM      5  C   UNL     1       2.813   6.390  19.455  0.00  0.00    +0.000 C 
BRANCH   5   6
ATOM      6  O   UNL     1       1.876   7.084  20.274  0.00  0.00    +0.000 OA
BRANCH   6  12
ATOM      7  C   UNL     1       0.581   9.230  20.463  0.00  0.00    +0.000 A 
ATOM      8  C   UNL     1       0.362  10.493  19.890  0.00  0.00    +0.000 A 
ATOM      9  C   UNL     1       0.920  10.826  18.658  0.00  0.00    +0.000 A 
ATOM     10  C   UNL     1       1.753   9.922  18.014  0.00  0.00    +0.000 A 
ATOM     11  C   UNL     1       2.047   8.695  18.618  0.00  0.00    +0.000 A 
ATOM     12  C   UNL     1       1.475   8.333  19.847  0.00  0.00    +0.000 A 
BRANCH   7  14
ATOM     13  C   UNL     1       0.521   9.473  22.820  0.00  0.00    +0.000 C 
ATOM     14  O   UNL     1      -0.041   8.900  21.638  0.00  0.00    +0.000 OA
ENDBRANCH   7  14
ENDBRANCH   6  12
ENDBRANCH   5   6
ENDBRANCH   4   5
ENDBRANCH   2   4
ENDBRANCH   1   2
BRANCH   1  15
ATOM     15  C   UNL     1       1.563   2.734  18.624  0.00  0.00    +0.000 C 
BRANCH  15  16
ATOM     16  C   UNL     1       2.912   2.480  17.942  0.00  0.00    +0.000 C 
ATOM     17  O   UNL     1       3.548   1.443  18.119  0.00  0.00    +0.000 OA
ATOM     18  N   UNL     1       3.350   3.499  17.119  0.00  0.00    +0.000 N 
ATOM     19  H   UNL     1       2.926   4.415  17.251  0.00  0.00    +0.000 HD
BRANCH  18  20
ATOM     20  C   UNL     1       4.646   3.434  16.487  0.00  0.00    +0.000 C 
BRANCH  20  21
ATOM     21  C   UNL     1       5.470   4.658  16.795  0.00  0.00    +0.000 A 
ATOM     22  C   UNL     1       6.739   4.542  17.382  0.00  0.00    +0.000 A 
ATOM     23  C   UNL     1       7.483   5.683  17.695  0.00  0.00    +0.000 A 
ATOM     24  C   UNL     1       6.959   6.948  17.428  0.00  0.00    +0.000 A 
ATOM     25 CL   UNL     1       7.865   8.352  17.839  0.00  0.00    +0.000 Cl
ATOM     26  C   UNL     1       5.704   7.081  16.841  0.00  0.00    +0.000 A 
ATOM     27  C   UNL     1       4.960   5.940  16.527  0.00  0.00    +0.000 A 
ENDBRANCH  20  21
ENDBRANCH  18  20
ENDBRANCH  15  16
ENDBRANCH   1  15
TORSDOF 10
ENDMDL
MODEL 4
REMARK VINA RESULT:      -7.2      1.347      2.193
REMARK  Name = 
REMARK  11 active torsions:
REMARK  status: ('A' for Active; 'I' for Inactive)
REMARK    1  A    between atoms: C_1  and  O_2
REMARK    2  A    between atoms: O_2  and  C_3
REMARK    3  A    between atoms: C_8  and  O_9
REMARK    4  A    between atoms: O_9  and  C_10
REMARK    5  A    between atoms: C_10  and  C_11
REMARK    6  A    between atoms: C_11  and  C_12
REMARK    7  A    between atoms: C_12  and  O_14
REMARK    8  A    between atoms: O_14  and  C_15
REMARK    9  A    between atoms: C_15  and  C_16
REMARK   10  A    between atoms: N_18  and  C_19
REMARK   11  A    between atoms: C_19  and  C_20
REMARK                            x       y       z     vdW  Elec       q    Type
REMARK                         _______ _______ _______ _____ _____    ______ ____
ROOT
ATOM      1  O   UNL     1       6.312   5.927  17.349  0.00  0.00    +0.000 OA
ENDROOT
BRANCH   1   2
ATOM      2  C   UNL     1       6.725   4.763  16.782  0.00  0.00    +0.000 C 
ATOM      3  O   UNL     1       7.851   4.586  16.318  0.00  0.00    +0.000 OA
BRANCH   2   4
ATOM      4  C   UNL     1       5.621   3.744  16.727  0.00  0.00    +0.000 C 
BRANCH   4   5
ATOM      5  C   UNL     1       4.313   4.499  16.902  0.00  0.00    +0.000 C 
BRANCH   5   6
ATOM      6  O   UNL     1       3.284   3.645  17.395  0.00  0.00    +0.000 OA
BRANCH   6  12
ATOM      7  C   UNL     1       2.311   5.008  19.270  0.00  0.00    +0.000 A 
ATOM      8  C   UNL     1       1.888   4.982  20.608  0.00  0.00    +0.000 A 
ATOM      9  C   UNL     1       2.122   3.869  21.412  0.00  0.00    +0.000 A 
ATOM     10  C   UNL     1       2.729   2.745  20.868  0.00  0.00    +0.000 A 
ATOM     11  C   UNL     1       3.076   2.729  19.513  0.00  0.00    +0.000 A 
ATOM     12  C   UNL     1       2.869   3.850  18.695  0.00  0.00    +0.000 A 
BRANCH   7  14
ATOM     13  C   UNL     1       2.378   7.376  19.205  0.00  0.00    +0.000 C 
ATOM     14  O   UNL     1       2.136   6.143  18.524  0.00  0.00    +0.000 OA
ENDBRANCH   7  14
ENDBRANCH   6  12
ENDBRANCH   5   6
ENDBRANCH   4   5
ENDBRANCH   2   4
ENDBRANCH   1   2
BRANCH   1  15
ATOM     15  C   UNL     1       7.053   7.082  16.949  0.00  0.00    +0.000 C 
BRANCH  15  16
ATOM     16  C   UNL     1       7.949   7.632  18.064  0.00  0.00    +0.000 C 
ATOM     17  O   UNL     1       8.378   6.918  18.968  0.00  0.00    +0.000 OA
ATOM     18  N   UNL     1       8.233   8.981  17.971  0.00  0.00    +0.000 N 
ATOM     19  H   UNL     1       7.623   9.543  17.382  0.00  0.00    +0.000 HD
BRANCH  18  20
ATOM     20  C   UNL     1       8.989   9.650  19.003  0.00  0.00    +0.000 C 
BRANCH  20  21
ATOM     21  C   UNL     1       9.563  10.952  18.506  0.00  0.00    +0.000 A 
ATOM     22  C   UNL     1       8.735  11.935  17.944  0.00  0.00    +0.000 A 
ATOM     23  C   UNL     1       9.279  13.126  17.455  0.00  0.00    +0.000 A 
ATOM     24  C   UNL     1      10.656  13.338  17.520  0.00  0.00    +0.000 A 
ATOM     25 CL   UNL     1      11.327  14.793  16.893  0.00  0.00    +0.000 Cl
ATOM     26  C   UNL     1      11.491  12.375  18.080  0.00  0.00    +0.000 A 
ATOM     27  C   UNL     1      10.947  11.185  18.569  0.00  0.00    +0.000 A 
ENDBRANCH  20  21
ENDBRANCH  18  20
ENDBRANCH  15  16
ENDBRANCH   1  15
TORSDOF 10
ENDMDL
MODEL 5
REMARK VINA RESULT:      -7.2      4.916      7.394
REMARK  Name = 
REMARK  11 active torsions:
REMARK  status: ('A' for Active; 'I' for Inactive)
REMARK    1  A    between atoms: C_1  and  O_2
REMARK    2  A    between atoms: O_2  and  C_3
REMARK    3  A    between atoms: C_8  and  O_9
REMARK    4  A    between atoms: O_9  and  C_10
REMARK    5  A    between atoms: C_10  and  C_11
REMARK    6  A    between atoms: C_11  and  C_12
REMARK    7  A    between atoms: C_12  and  O_14
REMARK    8  A    between atoms: O_14  and  C_15
REMARK    9  A    between atoms: C_15  and  C_16
REMARK   10  A    between atoms: N_18  and  C_19
REMARK   11  A    between atoms: C_19  and  C_20
REMARK                            x       y       z     vdW  Elec       q    Type
REMARK                         _______ _______ _______ _____ _____    ______ ____
ROOT
ATOM      1  O   UNL     1       1.955   2.343  19.880  0.00  0.00    +0.000 OA
ENDROOT
BRANCH   1   2
ATOM      2  C   UNL     1       2.923   2.408  20.833  0.00  0.00    +0.000 C 
ATOM      3  O   UNL     1       2.697   2.552  22.034  0.00  0.00    +0.000 OA
BRANCH   2   4
ATOM      4  C   UNL     1       4.301   2.354  20.235  0.00  0.00    +0.000 C 
BRANCH   4   5
ATOM      5  C   UNL     1       4.126   2.311  18.724  0.00  0.00    +0.000 C 
BRANCH   5   6
ATOM      6  O   UNL     1       4.086   3.623  18.170  0.00  0.00    +0.000 OA
BRANCH   6  12
ATOM      7  C   UNL     1       6.390   4.567  17.828  0.00  0.00    +0.000 A 
ATOM      8  C   UNL     1       7.394   4.831  16.882  0.00  0.00    +0.000 A 
ATOM      9  C   UNL     1       7.154   4.667  15.520  0.00  0.00    +0.000 A 
ATOM     10  C   UNL     1       5.927   4.181  15.092  0.00  0.00    +0.000 A 
ATOM     11  C   UNL     1       4.951   3.833  16.031  0.00  0.00    +0.000 A 
ATOM     12  C   UNL     1       5.166   4.013  17.406  0.00  0.00    +0.000 A 
BRANCH   7  14
ATOM     13  C   UNL     1       7.740   5.657  19.442  0.00  0.00    +0.000 C 
ATOM     14  O   UNL     1       6.627   4.809  19.155  0.00  0.00    +0.000 OA
ENDBRANCH   7  14
ENDBRANCH   6  12
ENDBRANCH   5   6
ENDBRANCH   4   5
ENDBRANCH   2   4
ENDBRANCH   1   2
BRANCH   1  15
ATOM     15  C   UNL     1       1.048   3.447  19.875  0.00  0.00    +0.000 C 
BRANCH  15  16
ATOM     16  C   UNL     1       1.469   4.561  18.910  0.00  0.00    +0.000 C 
ATOM     17  O   UNL     1       1.192   4.526  17.712  0.00  0.00    +0.000 OA
ATOM     18  N   UNL     1       2.176   5.597  19.488  0.00  0.00    +0.000 N 
ATOM     19  H   UNL     1       2.604   5.417  20.393  0.00  0.00    +0.000 HD
BRANCH  18  20
ATOM     20  C   UNL     1       2.714   6.666  18.680  0.00  0.00    +0.000 C 
BRANCH  20  21
ATOM     21  C   UNL     1       2.010   7.970  18.956  0.00  0.00    +0.000 A 
ATOM     22  C   UNL     1       1.877   8.941  17.951  0.00  0.00    +0.000 A 
ATOM     23  C   UNL     1       1.252  10.161  18.223  0.00  0.00    +0.000 A 
ATOM     24  C   UNL     1       0.762  10.420  19.503  0.00  0.00    +0.000 A 
ATOM     25 CL   UNL     1       0.016  11.934  19.842  0.00  0.00    +0.000 Cl
ATOM     26  C   UNL     1       0.880   9.465  20.509  0.00  0.00    +0.000 A 
ATOM     27  C   UNL     1       1.505   8.245  20.237  0.00  0.00    +0.000 A 
ENDBRANCH  20  21
ENDBRANCH  18  20
ENDBRANCH  15  16
ENDBRANCH   1  15
TORSDOF 10
ENDMDL
MODEL 6
REMARK VINA RESULT:      -7.2      4.043     10.319
REMARK  Name = 
REMARK  11 active torsions:
REMARK  status: ('A' for Active; 'I' for Inactive)
REMARK    1  A    between atoms: C_1  and  O_2
REMARK    2  A    between atoms: O_2  and  C_3
REMARK    3  A    between atoms: C_8  and  O_9
REMARK    4  A    between atoms: O_9  and  C_10
REMARK    5  A    between atoms: C_10  and  C_11
REMARK    6  A    between atoms: C_11  and  C_12
REMARK    7  A    between atoms: C_12  and  O_14
REMARK    8  A    between atoms: O_14  and  C_15
REMARK    9  A    between atoms: C_15  and  C_16
REMARK   10  A    between atoms: N_18  and  C_19
REMARK   11  A    between atoms: C_19  and  C_20
REMARK                            x       y       z     vdW  Elec       q    Type
REMARK                         _______ _______ _______ _____ _____    ______ ____
ROOT
ATOM      1  O   UNL     1       7.290   7.866  17.105  0.00  0.00    +0.000 OA
ENDROOT
BRANCH   1   2
ATOM      2  C   UNL     1       8.172   8.259  18.062  0.00  0.00    +0.000 C 
ATOM      3  O   UNL     1       8.600   7.520  18.948  0.00  0.00    +0.000 OA
BRANCH   2   4
ATOM      4  C   UNL     1       8.506   9.720  17.949  0.00  0.00    +0.000 C 
BRANCH   4   5
ATOM      5  C   UNL     1       9.067  10.152  19.295  0.00  0.00    +0.000 C 
BRANCH   5   6
ATOM      6  O   UNL     1      10.347  10.761  19.151  0.00  0.00    +0.000 OA
BRANCH   6  12
ATOM      7  C   UNL     1       9.745  13.201  19.197  0.00  0.00    +0.000 A 
ATOM      8  C   UNL     1       9.961  14.449  18.590  0.00  0.00    +0.000 A 
ATOM      9  C   UNL     1      10.690  14.553  17.408  0.00  0.00    +0.000 A 
ATOM     10  C   UNL     1      11.261  13.417  16.851  0.00  0.00    +0.000 A 
ATOM     11  C   UNL     1      11.125  12.183  17.494  0.00  0.00    +0.000 A 
ATOM     12  C   UNL     1      10.374  12.055  18.673  0.00  0.00    +0.000 A 
BRANCH   7  14
ATOM     13  C   UNL     1       9.629  13.338  21.559  0.00  0.00    +0.000 C 
ATOM     14  O   UNL     1       8.960  13.117  20.316  0.00  0.00    +0.000 OA
ENDBRANCH   7  14
ENDBRANCH   6  12
ENDBRANCH   5   6
ENDBRANCH   4   5
ENDBRANCH   2   4
ENDBRANCH   1   2
BRANCH   1  15
ATOM     15  C   UNL     1       7.262   6.458  16.862  0.00  0.00    +0.000 C 
BRANCH  15  16
ATOM     16  C   UNL     1       5.906   5.968  16.340  0.00  0.00    +0.000 C 
ATOM     17  O   UNL     1       5.202   6.660  15.607  0.00  0.00    +0.000 OA
ATOM     18  N   UNL     1       5.545   4.701  16.753  0.00  0.00    +0.000 N 
ATOM     19  H   UNL     1       6.027   4.325  17.566  0.00  0.00    +0.000 HD
BRANCH  18  20
ATOM     20  C   UNL     1       4.254   4.152  16.412  0.00  0.00    +0.000 C 
BRANCH  20  21
ATOM     21  C   UNL     1       3.474   3.777  17.646  0.00  0.00    +0.000 A 
ATOM     22  C   UNL     1       2.138   4.177  17.801  0.00  0.00    +0.000 A 
ATOM     23  C   UNL     1       1.431   3.852  18.962  0.00  0.00    +0.000 A 
ATOM     24  C   UNL     1       2.058   3.133  19.979  0.00  0.00    +0.000 A 
ATOM     25 CL   UNL     1       1.194   2.759  21.419  0.00  0.00    +0.000 Cl
ATOM     26  C   UNL     1       3.381   2.725  19.839  0.00  0.00    +0.000 A 
ATOM     27  C   UNL     1       4.088   3.048  18.677  0.00  0.00    +0.000 A 
ENDBRANCH  20  21
ENDBRANCH  18  20
ENDBRANCH  15  16
ENDBRANCH   1  15
TORSDOF 10
ENDMDL
MODEL 7
REMARK VINA RESULT:      -7.2      1.632      1.910
REMARK  Name = 
REMARK  11 active torsions:
REMARK  status: ('A' for Active; 'I' for Inactive)
REMARK    1  A    between atoms: C_1  and  O_2
REMARK    2  A    between atoms: O_2  and  C_3
REMARK    3  A    between atoms: C_8  and  O_9
REMARK    4  A    between atoms: O_9  and  C_10
REMARK    5  A    between atoms: C_10  and  C_11
REMARK    6  A    between atoms: C_11  and  C_12
REMARK    7  A    between atoms: C_12  and  O_14
REMARK    8  A    between atoms: O_14  and  C_15
REMARK    9  A    between atoms: C_15  and  C_16
REMARK   10  A    between atoms: N_18  and  C_19
REMARK   11  A    between atoms: C_19  and  C_20
REMARK                            x       y       z     vdW  Elec       q    Type
REMARK                         _______ _______ _______ _____ _____    ______ ____
ROOT
ATOM      1  O   UNL     1       6.293   5.919  17.170  0.00  0.00    +0.000 OA
ENDROOT
BRANCH   1   2
ATOM      2  C   UNL     1       6.531   5.189  16.048  0.00  0.00    +0.000 C 
ATOM      3  O   UNL     1       7.413   5.451  15.231  0.00  0.00    +0.000 OA
BRANCH   2   4
ATOM      4  C   UNL     1       5.544   4.066  15.891  0.00  0.00    +0.000 C 
BRANCH   4   5
ATOM      5  C   UNL     1       4.824   3.921  17.224  0.00  0.00    +0.000 C 
BRANCH   5   6
ATOM      6  O   UNL     1       3.464   4.334  17.124  0.00  0.00    +0.000 OA
BRANCH   6  12
ATOM      7  C   UNL     1       2.238   4.230  19.316  0.00  0.00    +0.000 A 
ATOM      8  C   UNL     1       1.785   4.978  20.415  0.00  0.00    +0.000 A 
ATOM      9  C   UNL     1       1.864   6.368  20.416  0.00  0.00    +0.000 A 
ATOM     10  C   UNL     1       2.452   7.024  19.343  0.00  0.00    +0.000 A 
ATOM     11  C   UNL     1       2.984   6.283  18.283  0.00  0.00    +0.000 A 
ATOM     12  C   UNL     1       2.892   4.883  18.253  0.00  0.00    +0.000 A 
BRANCH   7  14
ATOM     13  C   UNL     1       0.809   2.396  18.858  0.00  0.00    +0.000 C 
ATOM     14  O   UNL     1       2.079   2.870  19.308  0.00  0.00    +0.000 OA
ENDBRANCH   7  14
ENDBRANCH   6  12
ENDBRANCH   5   6
ENDBRANCH   4   5
ENDBRANCH   2   4
ENDBRANCH   1   2
BRANCH   1  15
ATOM     15  C   UNL     1       6.681   7.292  17.081  0.00  0.00    +0.000 C 
BRANCH  15  16
ATOM     16  C   UNL     1       7.802   7.660  18.061  0.00  0.00    +0.000 C 
ATOM     17  O   UNL     1       8.316   6.828  18.806  0.00  0.00    +0.000 OA
ATOM     18  N   UNL     1       8.184   8.987  18.037  0.00  0.00    +0.000 N 
ATOM     19  H   UNL     1       7.533   9.648  17.619  0.00  0.00    +0.000 HD
BRANCH  18  20
ATOM     20  C   UNL     1       9.162   9.491  18.971  0.00  0.00    +0.000 C 
BRANCH  20  21
ATOM     21  C   UNL     1       9.171  10.998  18.996  0.00  0.00    +0.000 A 
ATOM     22  C   UNL     1       8.846  11.738  17.848  0.00  0.00    +0.000 A 
ATOM     23  C   UNL     1       8.889  13.135  17.870  0.00  0.00    +0.000 A 
ATOM     24  C   UNL     1       9.263  13.800  19.037  0.00  0.00    +0.000 A 
ATOM     25 CL   UNL     1       9.341  15.519  19.052  0.00  0.00    +0.000 Cl
ATOM     26  C   UNL     1       9.584  13.082  20.185  0.00  0.00    +0.000 A 
ATOM     27  C   UNL     1       9.541  11.685  20.164  0.00  0.00    +0.000 A 
ENDBRANCH  20  21
ENDBRANCH  18  20
ENDBRANCH  15  16
ENDBRANCH   1  15
TORSDOF 10
ENDMDL
MODEL 8
REMARK VINA RESULT:      -7.2      3.391      8.769
REMARK  Name = 
REMARK  11 active torsions:
REMARK  status: ('A' for Active; 'I' for Inactive)
REMARK    1  A    between atoms: C_1  and  O_2
REMARK    2  A    between atoms: O_2  and  C_3
REMARK    3  A    between atoms: C_8  and  O_9
REMARK    4  A    between atoms: O_9  and  C_10
REMARK    5  A    between atoms: C_10  and  C_11
REMARK    6  A    between atoms: C_11  and  C_12
REMARK    7  A    between atoms: C_12  and  O_14
REMARK    8  A    between atoms: O_14  and  C_15
REMARK    9  A    between atoms: C_15  and  C_16
REMARK   10  A    between atoms: N_18  and  C_19
REMARK   11  A    between atoms: C_19  and  C_20
REMARK                            x       y       z     vdW  Elec       q    Type
REMARK                         _______ _______ _______ _____ _____    ______ ____
ROOT
ATOM      1  O   UNL     1       6.979   6.295  18.505  0.00  0.00    +0.000 OA
ENDROOT
BRANCH   1   2
ATOM      2  C   UNL     1       7.239   6.858  17.295  0.00  0.00    +0.000 C 
ATOM      3  O   UNL     1       7.473   6.213  16.274  0.00  0.00    +0.000 OA
BRANCH   2   4
ATOM      4  C   UNL     1       7.273   8.359  17.371  0.00  0.00    +0.000 C 
BRANCH   4   5
ATOM      5  C   UNL     1       8.455   8.730  18.254  0.00  0.00    +0.000 C 
BRANCH   5   6
ATOM      6  O   UNL     1       8.294  10.030  18.814  0.00  0.00    +0.000 OA
BRANCH   6  12
ATOM      7  C   UNL     1       9.901  11.285  20.285  0.00  0.00    +0.000 A 
ATOM      8  C   UNL     1      11.146  11.932  20.336  0.00  0.00    +0.000 A 
ATOM      9  C   UNL     1      11.882  12.159  19.176  0.00  0.00    +0.000 A 
ATOM     10  C   UNL     1      11.408  11.690  17.958  0.00  0.00    +0.000 A 
ATOM     11  C   UNL     1      10.211  10.969  17.910  0.00  0.00    +0.000 A 
ATOM     12  C   UNL     1       9.444  10.751  19.065  0.00  0.00    +0.000 A 
BRANCH   7  14
ATOM     13  C   UNL     1       8.790  12.356  22.084  0.00  0.00    +0.000 C 
ATOM     14  O   UNL     1       9.162  11.142  21.430  0.00  0.00    +0.000 OA
ENDBRANCH   7  14
ENDBRANCH   6  12
ENDBRANCH   5   6
ENDBRANCH   4   5
ENDBRANCH   2   4
ENDBRANCH   1   2
BRANCH   1  15
ATOM     15  C   UNL     1       6.578   4.925  18.452  0.00  0.00    +0.000 C 
BRANCH  15  16
ATOM     16  C   UNL     1       5.062   4.740  18.590  0.00  0.00    +0.000 C 
ATOM     17  O   UNL     1       4.425   3.997  17.845  0.00  0.00    +0.000 OA
ATOM     18  N   UNL     1       4.477   5.467  19.608  0.00  0.00    +0.000 N 
ATOM     19  H   UNL     1       5.005   6.254  19.977  0.00  0.00    +0.000 HD
BRANCH  18  20
ATOM     20  C   UNL     1       3.045   5.460  19.792  0.00  0.00    +0.000 C 
BRANCH  20  21
ATOM     21  C   UNL     1       2.446   6.808  19.486  0.00  0.00    +0.000 A 
ATOM     22  C   UNL     1       2.610   7.397  18.223  0.00  0.00    +0.000 A 
ATOM     23  C   UNL     1       2.079   8.662  17.956  0.00  0.00    +0.000 A 
ATOM     24  C   UNL     1       1.387   9.349  18.953  0.00  0.00    +0.000 A 
ATOM     25 CL   UNL     1       0.758  10.918  18.631  0.00  0.00    +0.000 Cl
ATOM     26  C   UNL     1       1.211   8.777  20.210  0.00  0.00    +0.000 A 
ATOM     27  C   UNL     1       1.741   7.511  20.477  0.00  0.00    +0.000 A 
ENDBRANCH  20  21
ENDBRANCH  18  20
ENDBRANCH  15  16
ENDBRANCH   1  15
TORSDOF 10
ENDMDL
MODEL 9
REMARK VINA RESULT:      -7.0      1.404      2.300
REMARK  Name = 
REMARK  11 active torsions:
REMARK  status: ('A' for Active; 'I' for Inactive)
REMARK    1  A    between atoms: C_1  and  O_2
REMARK    2  A    between atoms: O_2  and  C_3
REMARK    3  A    between atoms: C_8  and  O_9
REMARK    4  A    between atoms: O_9  and  C_10
REMARK    5  A    between atoms: C_10  and  C_11
REMARK    6  A    between atoms: C_11  and  C_12
REMARK    7  A    between atoms: C_12  and  O_14
REMARK    8  A    between atoms: O_14  and  C_15
REMARK    9  A    between atoms: C_15  and  C_16
REMARK   10  A    between atoms: N_18  and  C_19
REMARK   11  A    between atoms: C_19  and  C_20
REMARK                            x       y       z     vdW  Elec       q    Type
REMARK                         _______ _______ _______ _____ _____    ______ ____
ROOT
ATOM      1  O   UNL     1       6.350   6.090  17.797  0.00  0.00    +0.000 OA
ENDROOT
BRANCH   1   2
ATOM      2  C   UNL     1       5.500   5.488  16.923  0.00  0.00    +0.000 C 
ATOM      3  O   UNL     1       5.119   6.000  15.871  0.00  0.00    +0.000 OA
BRANCH   2   4
ATOM      4  C   UNL     1       5.029   4.153  17.430  0.00  0.00    +0.000 C 
BRANCH   4   5
ATOM      5  C   UNL     1       3.711   3.854  16.730  0.00  0.00    +0.000 C 
BRANCH   5   6
ATOM      6  O   UNL     1       2.642   4.605  17.299  0.00  0.00    +0.000 OA
BRANCH   6  12
ATOM      7  C   UNL     1       2.394   5.110  19.749  0.00  0.00    +0.000 A 
ATOM      8  C   UNL     1       1.905   4.634  20.976  0.00  0.00    +0.000 A 
ATOM      9  C   UNL     1       1.426   3.332  21.098  0.00  0.00    +0.000 A 
ATOM     10  C   UNL     1       1.376   2.511  19.980  0.00  0.00    +0.000 A 
ATOM     11  C   UNL     1       1.780   3.005  18.736  0.00  0.00    +0.000 A 
ATOM     12  C   UNL     1       2.288   4.306  18.598  0.00  0.00    +0.000 A 
BRANCH   7  14
ATOM     13  C   UNL     1       2.057   7.438  20.043  0.00  0.00    +0.000 C 
ATOM     14  O   UNL     1       2.930   6.369  19.674  0.00  0.00    +0.000 OA
ENDBRANCH   7  14
ENDBRANCH   6  12
ENDBRANCH   5   6
ENDBRANCH   4   5
ENDBRANCH   2   4
ENDBRANCH   1   2
BRANCH   1  15
ATOM     15  C   UNL     1       6.932   7.305  17.322  0.00  0.00    +0.000 C 
BRANCH  15  16
ATOM     16  C   UNL     1       8.017   7.853  18.256  0.00  0.00    +0.000 C 
ATOM     17  O   UNL     1       8.624   7.131  19.044  0.00  0.00    +0.000 OA
ATOM     18  N   UNL     1       8.256   9.208  18.140  0.00  0.00    +0.000 N 
ATOM     19  H   UNL     1       7.535   9.769  17.692  0.00  0.00    +0.000 HD
BRANCH  18  20
ATOM     20  C   UNL     1       9.185   9.873  19.023  0.00  0.00    +0.000 C 
BRANCH  20  21
ATOM     21  C   UNL     1       9.703  11.151  18.413  0.00  0.00    +0.000 A 
ATOM     22  C   UNL     1      11.080  11.356  18.235  0.00  0.00    +0.000 A 
ATOM     23  C   UNL     1      11.554  12.556  17.699  0.00  0.00    +0.000 A 
ATOM     24  C   UNL     1      10.655  13.561  17.344  0.00  0.00    +0.000 A 
ATOM     25 CL   UNL     1      11.243  15.049  16.709  0.00  0.00    +0.000 Cl
ATOM     26  C   UNL     1       9.286  13.372  17.509  0.00  0.00    +0.000 A 
ATOM     27  C   UNL     1       8.811  12.171  18.044  0.00  0.00    +0.000 A 
ENDBRANCH  20  21
ENDBRANCH  18  20
ENDBRANCH  15  16
ENDBRANCH   1  15
TORSDOF 10
ENDMDL
