MODEL 1
REMARK VINA RESULT:      -7.9      0.000      0.000
REMARK  Name = 
REMARK  10 active torsions:
REMARK  status: ('A' for Active; 'I' for Inactive)
REMARK    1  A    between atoms: C_1  and  N_2
REMARK    2  A    between atoms: N_2  and  C_3
REMARK    3  A    between atoms: N_2  and  C_4
REMARK    4  A    between atoms: C_4  and  N_6
REMARK    5  A    between atoms: N_6  and  C_7
REMARK    6  A    between atoms: C_11  and  C_12
REMARK    7  A    between atoms: C_15  and  S_16
REMARK    8  A    between atoms: S_16  and  C_17
REMARK    9  A    between atoms: C_17  and  C_18
REMARK   10  A    between atoms: C_18  and  C_20
REMARK                            x       y       z     vdW  Elec       q    Type
REMARK                         _______ _______ _______ _____ _____    ______ ____
ROOT
ATOM      1  C   UNL     1       8.489   9.313  18.232  0.00  0.00    +0.000 A 
ATOM      2  N   UNL     1       7.704   9.163  17.183  0.00  0.00    +0.000 NA
ATOM      3  N   UNL     1       7.296   7.846  17.187  0.00  0.00    +0.000 NA
ATOM      4  C   UNL     1       7.863   7.279  18.233  0.00  0.00    +0.000 A 
ATOM      5  O   UNL     1       8.627   8.157  18.956  0.00  0.00    +0.000 OA
ENDROOT
BRANCH   1  10
ATOM      6  C   UNL     1       9.969  12.779  18.313  0.00  0.00    +0.000 A 
ATOM      7  C   UNL     1      10.496  12.823  19.606  0.00  0.00    +0.000 A 
ATOM      8  C   UNL     1      10.340  11.733  20.466  0.00  0.00    +0.000 A 
ATOM      9  C   UNL     1       9.678  10.583  20.029  0.00  0.00    +0.000 A 
ATOM     10  C   UNL     1       9.182  10.500  18.722  0.00  0.00    +0.000 A 
ATOM     11  C   UNL     1       9.353  11.603  17.868  0.00  0.00    +0.000 A 
BRANCH   6  12
ATOM     12  N   UNL     1      10.134  13.911  17.481  0.00  0.00    +0.000 N 
ATOM     13  H   UNL     1      10.129  13.724  16.488  0.00  0.00    +0.000 HD
BRANCH  12  14
ATOM     14  C   UNL     1      10.692  15.142  17.810  0.00  0.00    +0.000 C 
ATOM     15  S   UNL     1      12.239  15.624  17.336  0.00  0.00    +0.000 S 
BRANCH  14  17
ATOM     16  C   UNL     1       8.535  16.404  17.916  0.00  0.00    +0.000 C 
ATOM     17  N   UNL     1       9.802  15.981  18.518  0.00  0.00    +0.000 N 
ATOM     18  C   UNL     1      10.196  16.673  19.743  0.00  0.00    +0.000 C 
ENDBRANCH  14  17
ENDBRANCH  12  14
ENDBRANCH   6  12
ENDBRANCH   1  10
BRANCH   4  19
ATOM     19  S   UNL     1       7.678   5.601  18.666  0.00  0.00    +0.000 S 
BRANCH  19  20
ATOM     20  C   UNL     1       7.474   4.884  16.999  0.00  0.00    +0.000 C 
BRANCH  20  21
ATOM     21  C   UNL     1       6.077   4.316  16.794  0.00  0.00    +0.000 C 
ATOM     22  O   UNL     1       5.808   3.524  15.885  0.00  0.00    +0.000 OA
BRANCH  21  23
ATOM     23  C   UNL     1       4.971   4.617  17.758  0.00  0.00    +0.000 A 
ATOM     24  C   UNL     1       4.713   3.601  18.702  0.00  0.00    +0.000 A 
ATOM     25  C   UNL     1       3.680   3.714  19.636  0.00  0.00    +0.000 A 
ATOM     26  C   UNL     1       2.886   4.851  19.640  0.00  0.00    +0.000 A 
ATOM     27 CL   UNL     1       1.597   4.991  20.767  0.00  0.00    +0.000 Cl
ATOM     28  C   UNL     1       3.122   5.873  18.723  0.00  0.00    +0.000 A 
ATOM     29  C   UNL     1       4.158   5.763  17.780  0.00  0.00    +0.000 A 
ATOM     30 CL   UNL     1       4.280   7.078  16.673  0.00  0.00    +0.000 Cl
ENDBRANCH  21  23
ENDBRANCH  20  21
ENDBRANCH  19  20
ENDBRANCH   4  19
TORSDOF 8
ENDMDL
MODEL 2
REMARK VINA RESULT:      -7.8      8.031     11.275
REMARK  Name = 
REMARK  10 active torsions:
REMARK  status: ('A' for Active; 'I' for Inactive)
REMARK    1  A    between atoms: C_1  and  N_2
REMARK    2  A    between atoms: N_2  and  C_3
REMARK    3  A    between atoms: N_2  and  C_4
REMARK    4  A    between atoms: C_4  and  N_6
REMARK    5  A    between atoms: N_6  and  C_7
REMARK    6  A    between atoms: C_11  and  C_12
REMARK    7  A    between atoms: C_15  and  S_16
REMARK    8  A    between atoms: S_16  and  C_17
REMARK    9  A    between atoms: C_17  and  C_18
REMARK   10  A    between atoms: C_18  and  C_20
REMARK                            x       y       z     vdW  Elec       q    Type
REMARK                         _______ _______ _______ _____ _____    ______ ____
ROOT
ATOM      1  C   UNL     1       0.561   9.522  21.598  0.00  0.00    +0.000 A 
ATOM      2  N   UNL     1       0.850   9.331  22.871  0.00  0.00    +0.000 NA
ATOM      3  N   UNL     1      -0.037  10.102  23.591  0.00  0.00    +0.000 NA
ATOM      4  C   UNL     1      -0.804  10.716  22.712  0.00  0.00    +0.000 A 
ATOM      5  O   UNL     1      -0.491  10.383  21.421  0.00  0.00    +0.000 OA
ENDROOT
BRANCH   1  10
ATOM      6  C   UNL     1       2.451   7.134  19.377  0.00  0.00    +0.000 A 
ATOM      7  C   UNL     1       2.348   7.770  18.137  0.00  0.00    +0.000 A 
ATOM      8  C   UNL     1       1.632   8.964  18.018  0.00  0.00    +0.000 A 
ATOM      9  C   UNL     1       1.037   9.542  19.143  0.00  0.00    +0.000 A 
ATOM     10  C   UNL     1       1.166   8.944  20.403  0.00  0.00    +0.000 A 
ATOM     11  C   UNL     1       1.895   7.747  20.506  0.00  0.00    +0.000 A 
BRANCH   6  12
ATOM     12  N   UNL     1       3.170   5.918  19.450  0.00  0.00    +0.000 N 
ATOM     13  H   UNL     1       4.075   5.920  19.002  0.00  0.00    +0.000 HD
BRANCH  12  14
ATOM     14  C   UNL     1       2.669   4.639  19.679  0.00  0.00    +0.000 C 
ATOM     15  S   UNL     1       2.187   4.083  21.198  0.00  0.00    +0.000 S 
BRANCH  14  17
ATOM     16  C   UNL     1       3.629   3.033  18.019  0.00  0.00    +0.000 C 
ATOM     17  N   UNL     1       2.532   3.879  18.496  0.00  0.00    +0.000 N 
ATOM     18  C   UNL     1       1.427   4.088  17.562  0.00  0.00    +0.000 C 
ENDBRANCH  14  17
ENDBRANCH  12  14
ENDBRANCH   6  12
ENDBRANCH   1  10
BRANCH   4  19
ATOM     19  S   UNL     1      -2.076  11.833  23.124  0.00  0.00    +0.000 S 
BRANCH  19  20
ATOM     20  C   UNL     1      -1.341  13.374  22.478  0.00  0.00    +0.000 C 
BRANCH  20  21
ATOM     21  C   UNL     1      -2.091  13.892  21.259  0.00  0.00    +0.000 C 
ATOM     22  O   UNL     1      -2.490  15.057  21.168  0.00  0.00    +0.000 OA
BRANCH  21  23
ATOM     23  C   UNL     1      -2.296  13.027  20.053  0.00  0.00    +0.000 A 
ATOM     24  C   UNL     1      -1.173  12.913  19.205  0.00  0.00    +0.000 A 
ATOM     25  C   UNL     1      -1.225  12.181  18.016  0.00  0.00    +0.000 A 
ATOM     26  C   UNL     1      -2.404  11.548  17.656  0.00  0.00    +0.000 A 
ATOM     27 CL   UNL     1      -2.487  10.665  16.184  0.00  0.00    +0.000 Cl
ATOM     28  C   UNL     1      -3.526  11.638  18.476  0.00  0.00    +0.000 A 
ATOM     29  C   UNL     1      -3.481  12.376  19.672  0.00  0.00    +0.000 A 
ATOM     30 CL   UNL     1      -4.967  12.447  20.542  0.00  0.00    +0.000 Cl
ENDBRANCH  21  23
ENDBRANCH  20  21
ENDBRANCH  19  20
ENDBRANCH   4  19
TORSDOF 8
ENDMDL
MODEL 3
REMARK VINA RESULT:      -7.8      7.947     11.192
REMARK  Name = 
REMARK  10 active torsions:
REMARK  status: ('A' for Active; 'I' for Inactive)
REMARK    1  A    between atoms: C_1  and  N_2
REMARK    2  A    between atoms: N_2  and  C_3
REMARK    3  A    between atoms: N_2  and  C_4
REMARK    4  A    between atoms: C_4  and  N_6
REMARK    5  A    between atoms: N_6  and  C_7
REMARK    6  A    between atoms: C_11  and  C_12
REMARK    7  A    between atoms: C_15  and  S_16
REMARK    8  A    between atoms: S_16  and  C_17
REMARK    9  A    between atoms: C_17  and  C_18
REMARK   10  A    between atoms: C_18  and  C_20
REMARK                            x       y       z     vdW  Elec       q    Type
REMARK                         _______ _______ _______ _____ _____    ______ ____
ROOT
ATOM      1  C   UNL     1       0.337   9.458  21.301  0.00  0.00    +0.000 A 
ATOM      2  N   UNL     1      -0.184   8.874  22.363  0.00  0.00    +0.000 NA
ATOM      3  N   UNL     1      -0.837   9.862  23.069  0.00  0.00    +0.000 NA
ATOM      4  C   UNL     1      -0.666  10.982  22.396  0.00  0.00    +0.000 A 
ATOM      5  O   UNL     1       0.060  10.799  21.249  0.00  0.00    +0.000 OA
ENDROOT
BRANCH   1  10
ATOM      6  C   UNL     1       2.446   7.032  19.331  0.00  0.00    +0.000 A 
ATOM      7  C   UNL     1       2.617   7.727  18.132  0.00  0.00    +0.000 A 
ATOM      8  C   UNL     1       2.016   8.976  17.951  0.00  0.00    +0.000 A 
ATOM      9  C   UNL     1       1.262   9.547  18.979  0.00  0.00    +0.000 A 
ATOM     10  C   UNL     1       1.115   8.888  20.206  0.00  0.00    +0.000 A 
ATOM     11  C   UNL     1       1.732   7.636  20.373  0.00  0.00    +0.000 A 
BRANCH   6  12
ATOM     12  N   UNL     1       3.057   5.763  19.466  0.00  0.00    +0.000 N 
ATOM     13  H   UNL     1       4.067   5.765  19.459  0.00  0.00    +0.000 HD
BRANCH  12  14
ATOM     14  C   UNL     1       2.503   4.514  19.205  0.00  0.00    +0.000 C 
ATOM     15  S   UNL     1       1.665   4.141  17.787  0.00  0.00    +0.000 S 
BRANCH  14  17
ATOM     16  C   UNL     1       2.157   3.671  21.534  0.00  0.00    +0.000 C 
ATOM     17  N   UNL     1       2.781   3.564  20.213  0.00  0.00    +0.000 N 
ATOM     18  C   UNL     1       3.875   2.602  20.094  0.00  0.00    +0.000 C 
ENDBRANCH  14  17
ENDBRANCH  12  14
ENDBRANCH   6  12
ENDBRANCH   1  10
BRANCH   4  19
ATOM     19  S   UNL     1      -1.284  12.534  22.892  0.00  0.00    +0.000 S 
BRANCH  19  20
ATOM     20  C   UNL     1      -2.820  12.572  21.904  0.00  0.00    +0.000 C 
BRANCH  20  21
ATOM     21  C   UNL     1      -2.570  13.066  20.486  0.00  0.00    +0.000 C 
ATOM     22  O   UNL     1      -2.052  14.161  20.245  0.00  0.00    +0.000 OA
BRANCH  21  23
ATOM     23  C   UNL     1      -2.855  12.193  19.302  0.00  0.00    +0.000 A 
ATOM     24  C   UNL     1      -1.711  11.735  18.614  0.00  0.00    +0.000 A 
ATOM     25  C   UNL     1      -1.815  10.953  17.461  0.00  0.00    +0.000 A 
ATOM     26  C   UNL     1      -3.070  10.614  16.978  0.00  0.00    +0.000 A 
ATOM     27 CL   UNL     1      -3.211   9.673  15.547  0.00  0.00    +0.000 Cl
ATOM     28  C   UNL     1      -4.215  11.047  17.641  0.00  0.00    +0.000 A 
ATOM     29  C   UNL     1      -4.117  11.837  18.799  0.00  0.00    +0.000 A 
ATOM     30 CL   UNL     1      -5.622  12.348  19.465  0.00  0.00    +0.000 Cl
ENDBRANCH  21  23
ENDBRANCH  20  21
ENDBRANCH  19  20
ENDBRANCH   4  19
TORSDOF 8
ENDMDL
MODEL 4
REMARK VINA RESULT:      -7.7      1.306      1.605
REMARK  Name = 
REMARK  10 active torsions:
REMARK  status: ('A' for Active; 'I' for Inactive)
REMARK    1  A    between atoms: C_1  and  N_2
REMARK    2  A    between atoms: N_2  and  C_3
REMARK    3  A    between atoms: N_2  and  C_4
REMARK    4  A    between atoms: C_4  and  N_6
REMARK    5  A    between atoms: N_6  and  C_7
REMARK    6  A    between atoms: C_11  and  C_12
REMARK    7  A    between atoms: C_15  and  S_16
REMARK    8  A    between atoms: S_16  and  C_17
REMARK    9  A    between atoms: C_17  and  C_18
REMARK   10  A    between atoms: C_18  and  C_20
REMARK                            x       y       z     vdW  Elec       q    Type
REMARK                         _______ _______ _______ _____ _____    ______ ____
ROOT
ATOM      1  C   UNL     1       8.462   9.106  18.252  0.00  0.00    +0.000 A 
ATOM      2  N   UNL     1       7.801   8.857  17.138  0.00  0.00    +0.000 NA
ATOM      3  N   UNL     1       7.460   7.522  17.177  0.00  0.00    +0.000 NA
ATOM      4  C   UNL     1       7.939   7.044  18.308  0.00  0.00    +0.000 A 
ATOM      5  O   UNL     1       8.577   8.000  19.053  0.00  0.00    +0.000 OA
ENDROOT
BRANCH   1  10
ATOM      6  C   UNL     1       9.592  12.701  18.334  0.00  0.00    +0.000 A 
ATOM      7  C   UNL     1      10.128  12.792  19.620  0.00  0.00    +0.000 A 
ATOM      8  C   UNL     1      10.093  11.689  20.476  0.00  0.00    +0.000 A 
ATOM      9  C   UNL     1       9.542  10.480  20.041  0.00  0.00    +0.000 A 
ATOM     10  C   UNL     1       9.039  10.354  18.740  0.00  0.00    +0.000 A 
ATOM     11  C   UNL     1       9.090  11.472  17.890  0.00  0.00    +0.000 A 
BRANCH   6  12
ATOM     12  N   UNL     1       9.633  13.848  17.506  0.00  0.00    +0.000 N 
ATOM     13  H   UNL     1       9.324  13.708  16.554  0.00  0.00    +0.000 HD
BRANCH  12  14
ATOM     14  C   UNL     1      10.391  15.002  17.678  0.00  0.00    +0.000 C 
ATOM     15  S   UNL     1      12.033  15.106  17.301  0.00  0.00    +0.000 S 
BRANCH  14  17
ATOM     16  C   UNL     1       8.164  16.069  18.078  0.00  0.00    +0.000 C 
ATOM     17  N   UNL     1       9.628  16.103  18.127  0.00  0.00    +0.000 N 
ATOM     18  C   UNL     1      10.233  17.403  18.410  0.00  0.00    +0.000 C 
ENDBRANCH  14  17
ENDBRANCH  12  14
ENDBRANCH   6  12
ENDBRANCH   1  10
BRANCH   4  19
ATOM     19  S   UNL     1       7.791   5.384  18.818  0.00  0.00    +0.000 S 
BRANCH  19  20
ATOM     20  C   UNL     1       6.543   4.813  17.613  0.00  0.00    +0.000 C 
BRANCH  20  21
ATOM     21  C   UNL     1       5.173   4.644  18.253  0.00  0.00    +0.000 C 
ATOM     22  O   UNL     1       4.811   3.589  18.784  0.00  0.00    +0.000 OA
BRANCH  21  23
ATOM     23  C   UNL     1       4.222   5.797  18.358  0.00  0.00    +0.000 A 
ATOM     24  C   UNL     1       3.448   5.824  19.538  0.00  0.00    +0.000 A 
ATOM     25  C   UNL     1       2.483   6.810  19.758  0.00  0.00    +0.000 A 
ATOM     26  C   UNL     1       2.275   7.788  18.798  0.00  0.00    +0.000 A 
ATOM     27 CL   UNL     1       1.074   8.991  19.047  0.00  0.00    +0.000 Cl
ATOM     28  C   UNL     1       3.029   7.789  17.626  0.00  0.00    +0.000 A 
ATOM     29  C   UNL     1       3.999   6.799  17.398  0.00  0.00    +0.000 A 
ATOM     30 CL   UNL     1       4.799   6.898  15.875  0.00  0.00    +0.000 Cl
ENDBRANCH  21  23
ENDBRANCH  20  21
ENDBRANCH  19  20
ENDBRANCH   4  19
TORSDOF 8
ENDMDL
MODEL 5
REMARK VINA RESULT:      -7.7      7.075     10.056
REMARK  Name = 
REMARK  10 active torsions:
REMARK  status: ('A' for Active; 'I' for Inactive)
REMARK    1  A    between atoms: C_1  and  N_2
REMARK    2  A    between atoms: N_2  and  C_3
REMARK    3  A    between atoms: N_2  and  C_4
REMARK    4  A    between atoms: C_4  and  N_6
REMARK    5  A    between atoms: N_6  and  C_7
REMARK    6  A    between atoms: C_11  and  C_12
REMARK    7  A    between atoms: C_15  and  S_16
REMARK    8  A    between atoms: S_16  and  C_17
REMARK    9  A    between atoms: C_17  and  C_18
REMARK   10  A    between atoms: C_18  and  C_20
REMARK                            x       y       z     vdW  Elec       q    Type
REMARK                         _______ _______ _______ _____ _____    ______ ____
ROOT
ATOM      1  C   UNL     1       2.011   7.068  19.963  0.00  0.00    +0.000 A 
ATOM      2  N   UNL     1       2.142   8.003  19.043  0.00  0.00    +0.000 NA
ATOM      3  N   UNL     1       1.455   9.105  19.506  0.00  0.00    +0.000 NA
ATOM      4  C   UNL     1       0.945   8.768  20.674  0.00  0.00    +0.000 A 
ATOM      5  O   UNL     1       1.271   7.488  21.038  0.00  0.00    +0.000 OA
ENDROOT
BRANCH   1  10
ATOM      6  C   UNL     1       4.281   4.128  19.325  0.00  0.00    +0.000 A 
ATOM      7  C   UNL     1       3.637   3.120  20.048  0.00  0.00    +0.000 A 
ATOM      8  C   UNL     1       2.478   3.407  20.772  0.00  0.00    +0.000 A 
ATOM      9  C   UNL     1       1.942   4.697  20.757  0.00  0.00    +0.000 A 
ATOM     10  C   UNL     1       2.546   5.711  20.004  0.00  0.00    +0.000 A 
ATOM     11  C   UNL     1       3.708   5.404  19.275  0.00  0.00    +0.000 A 
BRANCH   6  12
ATOM     12  N   UNL     1       5.463   3.798  18.620  0.00  0.00    +0.000 N 
ATOM     13  H   UNL     1       5.932   2.958  18.926  0.00  0.00    +0.000 HD
BRANCH  12  14
ATOM     14  C   UNL     1       6.274   4.642  17.867  0.00  0.00    +0.000 C 
ATOM     15  S   UNL     1       7.676   5.369  18.463  0.00  0.00    +0.000 S 
BRANCH  14  17
ATOM     16  C   UNL     1       6.115   3.705  15.553  0.00  0.00    +0.000 C 
ATOM     17  N   UNL     1       5.847   4.767  16.525  0.00  0.00    +0.000 N 
ATOM     18  C   UNL     1       5.366   6.034  15.979  0.00  0.00    +0.000 C 
ENDBRANCH  14  17
ENDBRANCH  12  14
ENDBRANCH   6  12
ENDBRANCH   1  10
BRANCH   4  19
ATOM     19  S   UNL     1      -0.038   9.815  21.660  0.00  0.00    +0.000 S 
BRANCH  19  20
ATOM     20  C   UNL     1      -0.126  11.267  20.556  0.00  0.00    +0.000 C 
BRANCH  20  21
ATOM     21  C   UNL     1      -1.564  11.681  20.277  0.00  0.00    +0.000 C 
ATOM     22  O   UNL     1      -2.212  12.395  21.048  0.00  0.00    +0.000 OA
BRANCH  21  23
ATOM     23  C   UNL     1      -2.236  11.317  18.988  0.00  0.00    +0.000 A 
ATOM     24  C   UNL     1      -1.442  10.566  18.095  0.00  0.00    +0.000 A 
ATOM     25  C   UNL     1      -1.912  10.194  16.833  0.00  0.00    +0.000 A 
ATOM     26  C   UNL     1      -3.190  10.567  16.444  0.00  0.00    +0.000 A 
ATOM     27 CL   UNL     1      -3.771  10.136  14.886  0.00  0.00    +0.000 Cl
ATOM     28  C   UNL     1      -3.998  11.302  17.308  0.00  0.00    +0.000 A 
ATOM     29  C   UNL     1      -3.529  11.683  18.577  0.00  0.00    +0.000 A 
ATOM     30 CL   UNL     1      -4.620  12.645  19.501  0.00  0.00    +0.000 Cl
ENDBRANCH  21  23
ENDBRANCH  20  21
ENDBRANCH  19  20
ENDBRANCH   4  19
TORSDOF 8
ENDMDL
MODEL 6
REMARK VINA RESULT:      -7.6      6.377      9.992
REMARK  Name = 
REMARK  10 active torsions:
REMARK  status: ('A' for Active; 'I' for Inactive)
REMARK    1  A    between atoms: C_1  and  N_2
REMARK    2  A    between atoms: N_2  and  C_3
REMARK    3  A    between atoms: N_2  and  C_4
REMARK    4  A    between atoms: C_4  and  N_6
REMARK    5  A    between atoms: N_6  and  C_7
REMARK    6  A    between atoms: C_11  and  C_12
REMARK    7  A    between atoms: C_15  and  S_16
REMARK    8  A    between atoms: S_16  and  C_17
REMARK    9  A    between atoms: C_17  and  C_18
REMARK   10  A    between atoms: C_18  and  C_20
REMARK                            x       y       z     vdW  Elec       q    Type
REMARK                         _______ _______ _______ _____ _____    ______ ____
ROOT
ATOM      1  C   UNL     1       2.025   6.939  20.122  0.00  0.00    +0.000 A 
ATOM      2  N   UNL     1       1.378   7.525  21.111  0.00  0.00    +0.000 NA
ATOM      3  N   UNL     1       1.022   8.777  20.657  0.00  0.00    +0.000 NA
ATOM      4  C   UNL     1       1.480   8.875  19.425  0.00  0.00    +0.000 A 
ATOM      5  O   UNL     1       2.117   7.736  19.010  0.00  0.00    +0.000 OA
ENDROOT
BRANCH   1  10
ATOM      6  C   UNL     1       4.479   4.176  19.381  0.00  0.00    +0.000 A 
ATOM      7  C   UNL     1       3.796   3.062  19.872  0.00  0.00    +0.000 A 
ATOM      8  C   UNL     1       2.545   3.214  20.476  0.00  0.00    +0.000 A 
ATOM      9  C   UNL     1       1.961   4.479  20.570  0.00  0.00    +0.000 A 
ATOM     10  C   UNL     1       2.609   5.604  20.044  0.00  0.00    +0.000 A 
ATOM     11  C   UNL     1       3.862   5.432  19.434  0.00  0.00    +0.000 A 
BRANCH   6  12
ATOM     12  N   UNL     1       5.751   3.980  18.793  0.00  0.00    +0.000 N 
ATOM     13  H   UNL     1       6.446   3.556  19.391  0.00  0.00    +0.000 HD
BRANCH  12  14
ATOM     14  C   UNL     1       6.294   4.631  17.688  0.00  0.00    +0.000 C 
ATOM     15  S   UNL     1       5.862   4.282  16.094  0.00  0.00    +0.000 S 
BRANCH  14  17
ATOM     16  C   UNL     1       7.842   5.677  19.351  0.00  0.00    +0.000 C 
ATOM     17  N   UNL     1       7.186   5.668  18.041  0.00  0.00    +0.000 N 
ATOM     18  C   UNL     1       7.300   6.895  17.255  0.00  0.00    +0.000 C 
ENDBRANCH  14  17
ENDBRANCH  12  14
ENDBRANCH   6  12
ENDBRANCH   1  10
BRANCH   4  19
ATOM     19  S   UNL     1       1.307  10.287  18.419  0.00  0.00    +0.000 S 
BRANCH  19  20
ATOM     20  C   UNL     1      -0.442  10.092  17.931  0.00  0.00    +0.000 C 
BRANCH  20  21
ATOM     21  C   UNL     1      -1.368  10.938  18.793  0.00  0.00    +0.000 C 
ATOM     22  O   UNL     1      -1.008  11.440  19.863  0.00  0.00    +0.000 OA
BRANCH  21  23
ATOM     23  C   UNL     1      -2.749  11.289  18.330  0.00  0.00    +0.000 A 
ATOM     24  C   UNL     1      -3.549  11.946  19.290  0.00  0.00    +0.000 A 
ATOM     25  C   UNL     1      -4.875  12.294  19.023  0.00  0.00    +0.000 A 
ATOM     26  C   UNL     1      -5.425  11.989  17.787  0.00  0.00    +0.000 A 
ATOM     27 CL   UNL     1      -7.063  12.390  17.456  0.00  0.00    +0.000 Cl
ATOM     28  C   UNL     1      -4.657  11.347  16.819  0.00  0.00    +0.000 A 
ATOM     29  C   UNL     1      -3.323  10.992  17.083  0.00  0.00    +0.000 A 
ATOM     30 CL   UNL     1      -2.527  10.146  15.810  0.00  0.00    +0.000 Cl
ENDBRANCH  21  23
ENDBRANCH  20  21
ENDBRANCH  19  20
ENDBRANCH   4  19
TORSDOF 8
ENDMDL
MODEL 7
REMARK VINA RESULT:      -7.6      7.150     10.534
REMARK  Name = 
REMARK  10 active torsions:
REMARK  status: ('A' for Active; 'I' for Inactive)
REMARK    1  A    between atoms: C_1  and  N_2
REMARK    2  A    between atoms: N_2  and  C_3
REMARK    3  A    between atoms: N_2  and  C_4
REMARK    4  A    between atoms: C_4  and  N_6
REMARK    5  A    between atoms: N_6  and  C_7
REMARK    6  A    between atoms: C_11  and  C_12
REMARK    7  A    between atoms: C_15  and  S_16
REMARK    8  A    between atoms: S_16  and  C_17
REMARK    9  A    between atoms: C_17  and  C_18
REMARK   10  A    between atoms: C_18  and  C_20
REMARK                            x       y       z     vdW  Elec       q    Type
REMARK                         _______ _______ _______ _____ _____    ______ ____
ROOT
ATOM      1  C   UNL     1       2.571   8.064  18.156  0.00  0.00    +0.000 A 
ATOM      2  N   UNL     1       2.235   9.127  17.450  0.00  0.00    +0.000 NA
ATOM      3  N   UNL     1       1.517   9.945  18.296  0.00  0.00    +0.000 NA
ATOM      4  C   UNL     1       1.457   9.327  19.458  0.00  0.00    +0.000 A 
ATOM      5  O   UNL     1       2.119   8.128  19.449  0.00  0.00    +0.000 OA
ENDROOT
BRANCH   1  10
ATOM      6  C   UNL     1       3.555   4.456  17.690  0.00  0.00    +0.000 A 
ATOM      7  C   UNL     1       4.788   4.587  17.049  0.00  0.00    +0.000 A 
ATOM      8  C   UNL     1       5.287   5.854  16.737  0.00  0.00    +0.000 A 
ATOM      9  C   UNL     1       4.565   6.998  17.088  0.00  0.00    +0.000 A 
ATOM     10  C   UNL     1       3.348   6.891  17.772  0.00  0.00    +0.000 A 
ATOM     11  C   UNL     1       2.865   5.609  18.084  0.00  0.00    +0.000 A 
BRANCH   6  12
ATOM     12  N   UNL     1       3.079   3.153  17.972  0.00  0.00    +0.000 N 
ATOM     13  H   UNL     1       3.025   2.529  17.179  0.00  0.00    +0.000 HD
BRANCH  12  14
ATOM     14  C   UNL     1       2.313   2.737  19.057  0.00  0.00    +0.000 C 
ATOM     15  S   UNL     1       0.675   2.342  18.948  0.00  0.00    +0.000 S 
BRANCH  14  17
ATOM     16  C   UNL     1       2.584   3.179  21.504  0.00  0.00    +0.000 C 
ATOM     17  N   UNL     1       3.065   2.603  20.246  0.00  0.00    +0.000 N 
ATOM     18  C   UNL     1       4.448   2.131  20.241  0.00  0.00    +0.000 C 
ENDBRANCH  14  17
ENDBRANCH  12  14
ENDBRANCH   6  12
ENDBRANCH   1  10
BRANCH   4  19
ATOM     19  S   UNL     1       0.629   9.945  20.862  0.00  0.00    +0.000 S 
BRANCH  19  20
ATOM     20  C   UNL     1      -1.097   9.770  20.291  0.00  0.00    +0.000 C 
BRANCH  20  21
ATOM     21  C   UNL     1      -1.533  10.951  19.436  0.00  0.00    +0.000 C 
ATOM     22  O   UNL     1      -1.208  12.115  19.693  0.00  0.00    +0.000 OA
BRANCH  21  23
ATOM     23  C   UNL     1      -2.306  10.744  18.169  0.00  0.00    +0.000 A 
ATOM     24  C   UNL     1      -1.637   9.988  17.183  0.00  0.00    +0.000 A 
ATOM     25  C   UNL     1      -2.209   9.752  15.930  0.00  0.00    +0.000 A 
ATOM     26  C   UNL     1      -3.463  10.270  15.643  0.00  0.00    +0.000 A 
ATOM     27 CL   UNL     1      -4.165  10.007  14.097  0.00  0.00    +0.000 Cl
ATOM     28  C   UNL     1      -4.148  11.014  16.600  0.00  0.00    +0.000 A 
ATOM     29  C   UNL     1      -3.576  11.258  17.861  0.00  0.00    +0.000 A 
ATOM     30 CL   UNL     1      -4.517  12.250  18.910  0.00  0.00    +0.000 Cl
ENDBRANCH  21  23
ENDBRANCH  20  21
ENDBRANCH  19  20
ENDBRANCH   4  19
TORSDOF 8
ENDMDL
MODEL 8
REMARK VINA RESULT:      -7.6      6.638      9.081
REMARK  Name = 
REMARK  10 active torsions:
REMARK  status: ('A' for Active; 'I' for Inactive)
REMARK    1  A    between atoms: C_1  and  N_2
REMARK    2  A    between atoms: N_2  and  C_3
REMARK    3  A    between atoms: N_2  and  C_4
REMARK    4  A    between atoms: C_4  and  N_6
REMARK    5  A    between atoms: N_6  and  C_7
REMARK    6  A    between atoms: C_11  and  C_12
REMARK    7  A    between atoms: C_15  and  S_16
REMARK    8  A    between atoms: S_16  and  C_17
REMARK    9  A    between atoms: C_17  and  C_18
REMARK   10  A    between atoms: C_18  and  C_20
REMARK                            x       y       z     vdW  Elec       q    Type
REMARK                         _______ _______ _______ _____ _____    ______ ____
ROOT
ATOM      1  C   UNL     1       1.863   8.864  18.380  0.00  0.00    +0.000 A 
ATOM      2  N   UNL     1       2.774   8.541  17.482  0.00  0.00    +0.000 NA
ATOM      3  N   UNL     1       3.272   7.311  17.858  0.00  0.00    +0.000 NA
ATOM      4  C   UNL     1       2.637   6.969  18.961  0.00  0.00    +0.000 A 
ATOM      5  O   UNL     1       1.713   7.904  19.346  0.00  0.00    +0.000 OA
ENDROOT
BRANCH   1  10
ATOM      6  C   UNL     1      -1.240  10.998  18.524  0.00  0.00    +0.000 A 
ATOM      7  C   UNL     1      -0.690  12.277  18.639  0.00  0.00    +0.000 A 
ATOM      8  C   UNL     1       0.695  12.443  18.703  0.00  0.00    +0.000 A 
ATOM      9  C   UNL     1       1.540  11.332  18.627  0.00  0.00    +0.000 A 
ATOM     10  C   UNL     1       1.011  10.045  18.466  0.00  0.00    +0.000 A 
ATOM     11  C   UNL     1      -0.385   9.898  18.396  0.00  0.00    +0.000 A 
BRANCH   6  12
ATOM     12  N   UNL     1      -2.649  10.874  18.480  0.00  0.00    +0.000 N 
ATOM     13  H   UNL     1      -3.041  10.159  19.076  0.00  0.00    +0.000 HD
BRANCH  12  14
ATOM     14  C   UNL     1      -3.515  11.291  17.473  0.00  0.00    +0.000 C 
ATOM     15  S   UNL     1      -3.329  10.872  15.848  0.00  0.00    +0.000 S 
BRANCH  14  17
ATOM     16  C   UNL     1      -4.741  12.329  19.390  0.00  0.00    +0.000 C 
ATOM     17  N   UNL     1      -4.611  12.038  17.960  0.00  0.00    +0.000 N 
ATOM     18  C   UNL     1      -5.781  12.328  17.135  0.00  0.00    +0.000 C 
ENDBRANCH  14  17
ENDBRANCH  12  14
ENDBRANCH   6  12
ENDBRANCH   1  10
BRANCH   4  19
ATOM     19  S   UNL     1       2.928   5.498  19.849  0.00  0.00    +0.000 S 
BRANCH  19  20
ATOM     20  C   UNL     1       4.664   5.198  19.369  0.00  0.00    +0.000 C 
BRANCH  20  21
ATOM     21  C   UNL     1       4.776   4.142  18.278  0.00  0.00    +0.000 C 
ATOM     22  O   UNL     1       4.180   3.062  18.335  0.00  0.00    +0.000 OA
BRANCH  21  23
ATOM     23  C   UNL     1       5.547   4.408  17.021  0.00  0.00    +0.000 A 
ATOM     24  C   UNL     1       4.796   4.304  15.831  0.00  0.00    +0.000 A 
ATOM     25  C   UNL     1       5.386   4.475  14.576  0.00  0.00    +0.000 A 
ATOM     26  C   UNL     1       6.741   4.755  14.492  0.00  0.00    +0.000 A 
ATOM     27 CL   UNL     1       7.483   4.944  12.954  0.00  0.00    +0.000 Cl
ATOM     28  C   UNL     1       7.505   4.869  15.651  0.00  0.00    +0.000 A 
ATOM     29  C   UNL     1       6.918   4.694  16.916  0.00  0.00    +0.000 A 
ATOM     30 CL   UNL     1       8.007   4.801  18.247  0.00  0.00    +0.000 Cl
ENDBRANCH  21  23
ENDBRANCH  20  21
ENDBRANCH  19  20
ENDBRANCH   4  19
TORSDOF 8
ENDMDL
MODEL 9
REMARK VINA RESULT:      -7.6      6.514     10.080
REMARK  Name = 
REMARK  10 active torsions:
REMARK  status: ('A' for Active; 'I' for Inactive)
REMARK    1  A    between atoms: C_1  and  N_2
REMARK    2  A    between atoms: N_2  and  C_3
REMARK    3  A    between atoms: N_2  and  C_4
REMARK    4  A    between atoms: C_4  and  N_6
REMARK    5  A    between atoms: N_6  and  C_7
REMARK    6  A    between atoms: C_11  and  C_12
REMARK    7  A    between atoms: C_15  and  S_16
REMARK    8  A    between atoms: S_16  and  C_17
REMARK    9  A    between atoms: C_17  and  C_18
REMARK   10  A    between atoms: C_18  and  C_20
REMARK                            x       y       z     vdW  Elec       q    Type
REMARK                         _______ _______ _______ _____ _____    ______ ____
ROOT
ATOM      1  C   UNL     1       2.193   6.808  19.599  0.00  0.00    +0.000 A 
ATOM      2  N   UNL     1       1.775   7.193  20.789  0.00  0.00    +0.000 NA
ATOM      3  N   UNL     1       1.336   8.492  20.646  0.00  0.00    +0.000 NA
ATOM      4  C   UNL     1       1.520   8.815  19.382  0.00  0.00    +0.000 A 
ATOM      5  O   UNL     1       2.048   7.786  18.649  0.00  0.00    +0.000 OA
ENDROOT
BRANCH   1  10
ATOM      6  C   UNL     1       4.685   4.201  18.503  0.00  0.00    +0.000 A 
ATOM      7  C   UNL     1       3.862   3.084  18.342  0.00  0.00    +0.000 A 
ATOM      8  C   UNL     1       2.497   3.170  18.623  0.00  0.00    +0.000 A 
ATOM      9  C   UNL     1       1.942   4.382  19.043  0.00  0.00    +0.000 A 
ATOM     10  C   UNL     1       2.740   5.526  19.167  0.00  0.00    +0.000 A 
ATOM     11  C   UNL     1       4.110   5.422  18.874  0.00  0.00    +0.000 A 
BRANCH   6  12
ATOM     12  N   UNL     1       6.065   4.065  18.224  0.00  0.00    +0.000 N 
ATOM     13  H   UNL     1       6.605   3.581  18.928  0.00  0.00    +0.000 HD
BRANCH  12  14
ATOM     14  C   UNL     1       6.843   4.826  17.356  0.00  0.00    +0.000 C 
ATOM     15  S   UNL     1       6.929   4.549  15.693  0.00  0.00    +0.000 S 
BRANCH  14  17
ATOM     16  C   UNL     1       7.968   5.778  19.377  0.00  0.00    +0.000 C 
ATOM     17  N   UNL     1       7.493   5.905  17.997  0.00  0.00    +0.000 N 
ATOM     18  C   UNL     1       7.493   7.254  17.437  0.00  0.00    +0.000 C 
ENDBRANCH  14  17
ENDBRANCH  12  14
ENDBRANCH   6  12
ENDBRANCH   1  10
BRANCH   4  19
ATOM     19  S   UNL     1       1.142  10.373  18.698  0.00  0.00    +0.000 S 
BRANCH  19  20
ATOM     20  C   UNL     1      -0.681  10.264  18.699  0.00  0.00    +0.000 C 
BRANCH  20  21
ATOM     21  C   UNL     1      -1.331  11.639  18.764  0.00  0.00    +0.000 C 
ATOM     22  O   UNL     1      -0.674  12.681  18.856  0.00  0.00    +0.000 OA
BRANCH  21  23
ATOM     23  C   UNL     1      -2.813  11.801  18.617  0.00  0.00    +0.000 A 
ATOM     24  C   UNL     1      -3.328  11.439  17.354  0.00  0.00    +0.000 A 
ATOM     25  C   UNL     1      -4.684  11.580  17.049  0.00  0.00    +0.000 A 
ATOM     26  C   UNL     1      -5.549  12.087  18.006  0.00  0.00    +0.000 A 
ATOM     27 CL   UNL     1      -7.215  12.289  17.633  0.00  0.00    +0.000 Cl
ATOM     28  C   UNL     1      -5.069  12.447  19.263  0.00  0.00    +0.000 A 
ATOM     29  C   UNL     1      -3.706  12.310  19.575  0.00  0.00    +0.000 A 
ATOM     30 CL   UNL     1      -3.257  12.859  21.145  0.00  0.00    +0.000 Cl
ENDBRANCH  21  23
ENDBRANCH  20  21
ENDBRANCH  19  20
ENDBRANCH   4  19
TORSDOF 8
ENDMDL
