MODEL 1
REMARK VINA RESULT:      -6.0      0.000      0.000
REMARK  Name = 
REMARK  5 active torsions:
REMARK  status: ('A' for Active; 'I' for Inactive)
REMARK    1  A    between atoms: C_1  and  S_2
REMARK    2  A    between atoms: S_2  and  C_3
REMARK    3  A    between atoms: C_4  and  N_5
REMARK    4  A    between atoms: C_11  and  C_12
REMARK    5  A    between atoms: C_12  and  O_13
REMARK                            x       y       z     vdW  Elec       q    Type
REMARK                         _______ _______ _______ _____ _____    ______ ____
ROOT
ATOM      1  C   UNL     1       3.317   4.286  19.797  0.00  0.00    +0.000 C 
ATOM      2  C   UNL     1       2.560   5.411  19.800  0.00  0.00    +0.000 C 
ATOM      3  C   UNL     1       2.978   6.570  18.915  0.00  0.00    +0.000 C 
ATOM      4  O   UNL     1       2.415   7.660  19.003  0.00  0.00    +0.000 OA
ATOM      5  C   UNL     1       4.032   6.297  17.987  0.00  0.00    +0.000 A 
ATOM      6  N   UNL     1       4.444   7.123  16.981  0.00  0.00    +0.000 N 
ATOM      7  C   UNL     1       5.424   6.495  16.263  0.00  0.00    +0.000 A 
ATOM      8  C   UNL     1       5.674   5.257  16.836  0.00  0.00    +0.000 A 
ATOM      9  C   UNL     1       4.788   5.142  17.961  0.00  0.00    +0.000 A 
ATOM     10  C   UNL     1       4.568   4.097  18.955  0.00  0.00    +0.000 C 
ATOM     11  N   UNL     1       5.397   3.116  19.081  0.00  0.00    +0.000 NA
ATOM     12  H   UNL     1       4.047   8.035  16.787  0.00  0.00    +0.000 HD
ATOM     13  H   UNL     1       6.211   3.218  18.460  0.00  0.00    +0.000 HD
ENDROOT
BRANCH   2  14
ATOM     14  N   UNL     1       1.407   5.615  20.566  0.00  0.00    +0.000 N 
ATOM     15  H   UNL     1       1.076   4.755  21.001  0.00  0.00    +0.000 HD
ATOM     16  H   UNL     1       1.527   6.389  21.223  0.00  0.00    +0.000 HD
ENDBRANCH   2  14
BRANCH   1  18
ATOM     17  C   UNL     1       1.731   2.100  19.694  0.00  0.00    +0.000 C 
ATOM     18  S   UNL     1       2.872   2.934  20.822  0.00  0.00    +0.000 S 
ENDBRANCH   1  18
BRANCH   8  19
ATOM     19  C   UNL     1       6.657   4.256  16.334  0.00  0.00    +0.000 C 
BRANCH  19  20
ATOM     20  O   UNL     1       7.795   4.200  17.183  0.00  0.00    +0.000 OA
ATOM     21  H   UNL     1       8.439   3.619  16.738  0.00  0.00    +0.000 HD
ENDBRANCH  19  20
ENDBRANCH   8  19
TORSDOF 4
ENDMDL
MODEL 2
REMARK VINA RESULT:      -6.0      2.364      4.458
REMARK  Name = 
REMARK  5 active torsions:
REMARK  status: ('A' for Active; 'I' for Inactive)
REMARK    1  A    between atoms: C_1  and  S_2
REMARK    2  A    between atoms: S_2  and  C_3
REMARK    3  A    between atoms: C_4  and  N_5
REMARK    4  A    between atoms: C_11  and  C_12
REMARK    5  A    between atoms: C_12  and  O_13
REMARK                            x       y       z     vdW  Elec       q    Type
REMARK                         _______ _______ _______ _____ _____    ______ ____
ROOT
ATOM      1  C   UNL     1       4.814   4.831  17.052  0.00  0.00    +0.000 C 
ATOM      2  C   UNL     1       4.561   6.159  16.950  0.00  0.00    +0.000 C 
ATOM      3  C   UNL     1       3.530   6.775  17.877  0.00  0.00    +0.000 C 
ATOM      4  O   UNL     1       3.158   7.936  17.716  0.00  0.00    +0.000 OA
ATOM      5  C   UNL     1       3.057   5.932  18.931  0.00  0.00    +0.000 A 
ATOM      6  N   UNL     1       2.273   6.325  19.977  0.00  0.00    +0.000 N 
ATOM      7  C   UNL     1       2.082   5.260  20.814  0.00  0.00    +0.000 A 
ATOM      8  C   UNL     1       2.722   4.152  20.280  0.00  0.00    +0.000 A 
ATOM      9  C   UNL     1       3.332   4.584  19.054  0.00  0.00    +0.000 A 
ATOM     10  C   UNL     1       4.133   3.903  18.043  0.00  0.00    +0.000 C 
ATOM     11  N   UNL     1       4.223   2.615  18.025  0.00  0.00    +0.000 NA
ATOM     12  H   UNL     1       1.933   7.269  20.118  0.00  0.00    +0.000 HD
ATOM     13  H   UNL     1       3.629   2.178  18.743  0.00  0.00    +0.000 HD
ENDROOT
BRANCH   2  14
ATOM     14  N   UNL     1       5.168   7.037  16.045  0.00  0.00    +0.000 N 
ATOM     15  H   UNL     1       4.484   7.556  15.495  0.00  0.00    +0.000 HD
ATOM     16  H   UNL     1       5.861   7.630  16.507  0.00  0.00    +0.000 HD
ENDBRANCH   2  14
BRANCH   1  18
ATOM     17  C   UNL     1       7.490   4.472  16.911  0.00  0.00    +0.000 C 
ATOM     18  S   UNL     1       5.987   4.084  15.982  0.00  0.00    +0.000 S 
ENDBRANCH   1  18
BRANCH   8  19
ATOM     19  C   UNL     1       2.772   2.800  20.904  0.00  0.00    +0.000 C 
BRANCH  19  20
ATOM     20  O   UNL     1       2.384   2.862  22.270  0.00  0.00    +0.000 OA
ATOM     21  H   UNL     1       1.455   2.568  22.304  0.00  0.00    +0.000 HD
ENDBRANCH  19  20
ENDBRANCH   8  19
TORSDOF 4
ENDMDL
MODEL 3
REMARK VINA RESULT:      -5.8      2.419      4.570
REMARK  Name = 
REMARK  5 active torsions:
REMARK  status: ('A' for Active; 'I' for Inactive)
REMARK    1  A    between atoms: C_1  and  S_2
REMARK    2  A    between atoms: S_2  and  C_3
REMARK    3  A    between atoms: C_4  and  N_5
REMARK    4  A    between atoms: C_11  and  C_12
REMARK    5  A    between atoms: C_12  and  O_13
REMARK                            x       y       z     vdW  Elec       q    Type
REMARK                         _______ _______ _______ _____ _____    ______ ____
ROOT
ATOM      1  C   UNL     1       5.491   5.081  18.271  0.00  0.00    +0.000 C 
ATOM      2  C   UNL     1       4.944   6.246  17.846  0.00  0.00    +0.000 C 
ATOM      3  C   UNL     1       3.504   6.550  18.213  0.00  0.00    +0.000 C 
ATOM      4  O   UNL     1       2.922   7.515  17.721  0.00  0.00    +0.000 OA
ATOM      5  C   UNL     1       2.903   5.665  19.163  0.00  0.00    +0.000 A 
ATOM      6  N   UNL     1       1.694   5.845  19.769  0.00  0.00    +0.000 N 
ATOM      7  C   UNL     1       1.487   4.829  20.662  0.00  0.00    +0.000 A 
ATOM      8  C   UNL     1       2.565   3.959  20.604  0.00  0.00    +0.000 A 
ATOM      9  C   UNL     1       3.467   4.490  19.620  0.00  0.00    +0.000 A 
ATOM     10  C   UNL     1       4.757   4.045  19.106  0.00  0.00    +0.000 C 
ATOM     11  N   UNL     1       5.198   2.858  19.356  0.00  0.00    +0.000 NA
ATOM     12  H   UNL     1       1.080   6.634  19.604  0.00  0.00    +0.000 HD
ATOM     13  H   UNL     1       4.514   2.296  19.881  0.00  0.00    +0.000 HD
ENDROOT
BRANCH   2  14
ATOM     14  N   UNL     1       5.592   7.217  17.073  0.00  0.00    +0.000 N 
ATOM     15  H   UNL     1       4.946   7.918  16.713  0.00  0.00    +0.000 HD
ATOM     16  H   UNL     1       6.396   7.612  17.566  0.00  0.00    +0.000 HD
ENDBRANCH   2  14
BRANCH   1  18
ATOM     17  C   UNL     1       7.989   5.627  19.148  0.00  0.00    +0.000 C 
ATOM     18  S   UNL     1       7.148   4.691  17.848  0.00  0.00    +0.000 S 
ENDBRANCH   1  18
BRANCH   8  19
ATOM     19  C   UNL     1       2.733   2.737  21.440  0.00  0.00    +0.000 C 
BRANCH  19  20
ATOM     20  O   UNL     1       1.564   2.490  22.210  0.00  0.00    +0.000 OA
ATOM     21  H   UNL     1       1.816   2.629  23.141  0.00  0.00    +0.000 HD
ENDBRANCH  19  20
ENDBRANCH   8  19
TORSDOF 4
ENDMDL
MODEL 4
REMARK VINA RESULT:      -5.7      2.503      4.410
REMARK  Name = 
REMARK  5 active torsions:
REMARK  status: ('A' for Active; 'I' for Inactive)
REMARK    1  A    between atoms: C_1  and  S_2
REMARK    2  A    between atoms: S_2  and  C_3
REMARK    3  A    between atoms: C_4  and  N_5
REMARK    4  A    between atoms: C_11  and  C_12
REMARK    5  A    between atoms: C_12  and  O_13
REMARK                            x       y       z     vdW  Elec       q    Type
REMARK                         _______ _______ _______ _____ _____    ______ ____
ROOT
ATOM      1  C   UNL     1       5.206   4.847  16.907  0.00  0.00    +0.000 C 
ATOM      2  C   UNL     1       4.992   6.185  16.956  0.00  0.00    +0.000 C 
ATOM      3  C   UNL     1       3.805   6.702  17.748  0.00  0.00    +0.000 C 
ATOM      4  O   UNL     1       3.483   7.887  17.692  0.00  0.00    +0.000 OA
ATOM      5  C   UNL     1       3.125   5.735  18.554  0.00  0.00    +0.000 A 
ATOM      6  N   UNL     1       2.156   6.004  19.476  0.00  0.00    +0.000 N 
ATOM      7  C   UNL     1       1.793   4.839  20.093  0.00  0.00    +0.000 A 
ATOM      8  C   UNL     1       2.515   3.795  19.535  0.00  0.00    +0.000 A 
ATOM      9  C   UNL     1       3.358   4.374  18.527  0.00  0.00    +0.000 A 
ATOM     10  C   UNL     1       4.335   3.814  17.600  0.00  0.00    +0.000 C 
ATOM     11  N   UNL     1       4.413   2.540  17.410  0.00  0.00    +0.000 NA
ATOM     12  H   UNL     1       1.804   6.931  19.687  0.00  0.00    +0.000 HD
ATOM     13  H   UNL     1       3.686   2.027  17.926  0.00  0.00    +0.000 HD
ENDROOT
BRANCH   2  14
ATOM     14  N   UNL     1       5.773   7.160  16.325  0.00  0.00    +0.000 N 
ATOM     15  H   UNL     1       5.896   7.989  16.905  0.00  0.00    +0.000 HD
ATOM     16  H   UNL     1       6.649   6.767  15.975  0.00  0.00    +0.000 HD
ENDBRANCH   2  14
BRANCH   1  18
ATOM     17  C   UNL     1       5.771   4.144  14.358  0.00  0.00    +0.000 C 
ATOM     18  S   UNL     1       6.558   4.216  15.985  0.00  0.00    +0.000 S 
ENDBRANCH   1  18
BRANCH   8  19
ATOM     19  C   UNL     1       2.427   2.366  19.950  0.00  0.00    +0.000 C 
BRANCH  19  20
ATOM     20  O   UNL     1       1.901   1.569  18.897  0.00  0.00    +0.000 OA
ATOM     21  H   UNL     1       1.300   2.147  18.391  0.00  0.00    +0.000 HD
ENDBRANCH  19  20
ENDBRANCH   8  19
TORSDOF 4
ENDMDL
MODEL 5
REMARK VINA RESULT:      -5.6      1.762      2.021
REMARK  Name = 
REMARK  5 active torsions:
REMARK  status: ('A' for Active; 'I' for Inactive)
REMARK    1  A    between atoms: C_1  and  S_2
REMARK    2  A    between atoms: S_2  and  C_3
REMARK    3  A    between atoms: C_4  and  N_5
REMARK    4  A    between atoms: C_11  and  C_12
REMARK    5  A    between atoms: C_12  and  O_13
REMARK                            x       y       z     vdW  Elec       q    Type
REMARK                         _______ _______ _______ _____ _____    ______ ____
ROOT
ATOM      1  C   UNL     1       3.815   3.704  19.779  0.00  0.00    +0.000 C 
ATOM      2  C   UNL     1       2.738   4.188  20.445  0.00  0.00    +0.000 C 
ATOM      3  C   UNL     1       2.304   5.618  20.181  0.00  0.00    +0.000 C 
ATOM      4  O   UNL     1       1.435   6.146  20.873  0.00  0.00    +0.000 OA
ATOM      5  C   UNL     1       2.950   6.274  19.087  0.00  0.00    +0.000 A 
ATOM      6  N   UNL     1       2.598   7.482  18.559  0.00  0.00    +0.000 N 
ATOM      7  C   UNL     1       3.401   7.750  17.485  0.00  0.00    +0.000 A 
ATOM      8  C   UNL     1       4.311   6.714  17.339  0.00  0.00    +0.000 A 
ATOM      9  C   UNL     1       4.031   5.774  18.388  0.00  0.00    +0.000 A 
ATOM     10  C   UNL     1       4.627   4.499  18.770  0.00  0.00    +0.000 C 
ATOM     11  N   UNL     1       5.757   4.119  18.274  0.00  0.00    +0.000 NA
ATOM     12  H   UNL     1       1.833   8.055  18.896  0.00  0.00    +0.000 HD
ATOM     13  H   UNL     1       6.170   4.837  17.663  0.00  0.00    +0.000 HD
ENDROOT
BRANCH   2  14
ATOM     14  N   UNL     1       1.974   3.483  21.381  0.00  0.00    +0.000 N 
ATOM     15  H   UNL     1       1.258   2.907  20.940  0.00  0.00    +0.000 HD
ATOM     16  H   UNL     1       2.567   2.972  22.038  0.00  0.00    +0.000 HD
ENDBRANCH   2  14
BRANCH   1  18
ATOM     17  C   UNL     1       3.624   1.268  18.622  0.00  0.00    +0.000 C 
ATOM     18  S   UNL     1       4.355   2.061  20.074  0.00  0.00    +0.000 S 
ENDBRANCH   1  18
BRANCH   8  19
ATOM     19  C   UNL     1       5.344   6.617  16.269  0.00  0.00    +0.000 C 
BRANCH  19  20
ATOM     20  O   UNL     1       6.644   6.823  16.806  0.00  0.00    +0.000 OA
ATOM     21  H   UNL     1       7.212   6.132  16.417  0.00  0.00    +0.000 HD
ENDBRANCH  19  20
ENDBRANCH   8  19
TORSDOF 4
ENDMDL
MODEL 6
REMARK VINA RESULT:      -5.5      2.313      4.713
REMARK  Name = 
REMARK  5 active torsions:
REMARK  status: ('A' for Active; 'I' for Inactive)
REMARK    1  A    between atoms: C_1  and  S_2
REMARK    2  A    between atoms: S_2  and  C_3
REMARK    3  A    between atoms: C_4  and  N_5
REMARK    4  A    between atoms: C_11  and  C_12
REMARK    5  A    between atoms: C_12  and  O_13
REMARK                            x       y       z     vdW  Elec       q    Type
REMARK                         _______ _______ _______ _____ _____    ______ ____
ROOT
ATOM      1  C   UNL     1       4.327   4.606  17.580  0.00  0.00    +0.000 C 
ATOM      2  C   UNL     1       4.030   3.613  18.453  0.00  0.00    +0.000 C 
ATOM      3  C   UNL     1       3.299   3.968  19.735  0.00  0.00    +0.000 C 
ATOM      4  O   UNL     1       3.147   3.131  20.622  0.00  0.00    +0.000 OA
ATOM      5  C   UNL     1       2.798   5.306  19.816  0.00  0.00    +0.000 A 
ATOM      6  N   UNL     1       1.965   5.790  20.784  0.00  0.00    +0.000 N 
ATOM      7  C   UNL     1       1.651   7.088  20.492  0.00  0.00    +0.000 A 
ATOM      8  C   UNL     1       2.321   7.461  19.336  0.00  0.00    +0.000 A 
ATOM      9  C   UNL     1       3.077   6.315  18.915  0.00  0.00    +0.000 A 
ATOM     10  C   UNL     1       3.973   6.069  17.791  0.00  0.00    +0.000 C 
ATOM     11  N   UNL     1       4.412   7.042  17.067  0.00  0.00    +0.000 NA
ATOM     12  H   UNL     1       1.613   5.246  21.563  0.00  0.00    +0.000 HD
ATOM     13  H   UNL     1       4.105   7.957  17.424  0.00  0.00    +0.000 HD
ENDROOT
BRANCH   2  14
ATOM     14  N   UNL     1       4.346   2.260  18.289  0.00  0.00    +0.000 N 
ATOM     15  H   UNL     1       5.324   2.120  18.040  0.00  0.00    +0.000 HD
ATOM     16  H   UNL     1       4.040   1.705  19.090  0.00  0.00    +0.000 HD
ENDBRANCH   2  14
BRANCH   1  18
ATOM     17  C   UNL     1       6.877   4.491  16.689  0.00  0.00    +0.000 C 
ATOM     18  S   UNL     1       5.188   4.232  16.097  0.00  0.00    +0.000 S 
ENDBRANCH   1  18
BRANCH   8  19
ATOM     19  C   UNL     1       2.224   8.792  18.673  0.00  0.00    +0.000 C 
BRANCH  19  20
ATOM     20  O   UNL     1       1.839   8.648  17.312  0.00  0.00    +0.000 OA
ATOM     21  H   UNL     1       1.176   7.934  17.290  0.00  0.00    +0.000 HD
ENDBRANCH  19  20
ENDBRANCH   8  19
TORSDOF 4
ENDMDL
MODEL 7
REMARK VINA RESULT:      -5.5      1.012      1.012
REMARK  Name = 
REMARK  5 active torsions:
REMARK  status: ('A' for Active; 'I' for Inactive)
REMARK    1  A    between atoms: C_1  and  S_2
REMARK    2  A    between atoms: S_2  and  C_3
REMARK    3  A    between atoms: C_4  and  N_5
REMARK    4  A    between atoms: C_11  and  C_12
REMARK    5  A    between atoms: C_12  and  O_13
REMARK                            x       y       z     vdW  Elec       q    Type
REMARK                         _______ _______ _______ _____ _____    ______ ____
ROOT
ATOM      1  C   UNL     1       2.700   3.875  19.203  0.00  0.00    +0.000 C 
ATOM      2  C   UNL     1       2.171   5.075  19.546  0.00  0.00    +0.000 C 
ATOM      3  C   UNL     1       2.799   6.335  18.977  0.00  0.00    +0.000 C 
ATOM      4  O   UNL     1       2.453   7.444  19.381  0.00  0.00    +0.000 OA
ATOM      5  C   UNL     1       3.778   6.136  17.954  0.00  0.00    +0.000 A 
ATOM      6  N   UNL     1       4.337   7.114  17.182  0.00  0.00    +0.000 N 
ATOM      7  C   UNL     1       5.177   6.535  16.271  0.00  0.00    +0.000 A 
ATOM      8  C   UNL     1       5.189   5.165  16.482  0.00  0.00    +0.000 A 
ATOM      9  C   UNL     1       4.301   4.913  17.582  0.00  0.00    +0.000 A 
ATOM     10  C   UNL     1       3.890   3.697  18.275  0.00  0.00    +0.000 C 
ATOM     11  N   UNL     1       4.518   2.584  18.091  0.00  0.00    +0.000 NA
ATOM     12  H   UNL     1       4.119   8.100  17.258  0.00  0.00    +0.000 HD
ATOM     13  H   UNL     1       5.334   2.700  17.476  0.00  0.00    +0.000 HD
ENDROOT
BRANCH   2  14
ATOM     14  N   UNL     1       1.081   5.272  20.400  0.00  0.00    +0.000 N 
ATOM     15  H   UNL     1       0.296   5.717  19.927  0.00  0.00    +0.000 HD
ATOM     16  H   UNL     1       0.831   4.411  20.892  0.00  0.00    +0.000 HD
ENDBRANCH   2  14
BRANCH   1  18
ATOM     17  C   UNL     1       2.676   2.508  21.535  0.00  0.00    +0.000 C 
ATOM     18  S   UNL     1       2.010   2.401  19.857  0.00  0.00    +0.000 S 
ENDBRANCH   1  18
BRANCH   8  19
ATOM     19  C   UNL     1       5.962   4.175  15.680  0.00  0.00    +0.000 C 
BRANCH  19  20
ATOM     20  O   UNL     1       7.310   4.599  15.522  0.00  0.00    +0.000 OA
ATOM     21  H   UNL     1       7.791   3.841  15.143  0.00  0.00    +0.000 HD
ENDBRANCH  19  20
ENDBRANCH   8  19
TORSDOF 4
ENDMDL
MODEL 8
REMARK VINA RESULT:      -5.4      2.459      4.174
REMARK  Name = 
REMARK  5 active torsions:
REMARK  status: ('A' for Active; 'I' for Inactive)
REMARK    1  A    between atoms: C_1  and  S_2
REMARK    2  A    between atoms: S_2  and  C_3
REMARK    3  A    between atoms: C_4  and  N_5
REMARK    4  A    between atoms: C_11  and  C_12
REMARK    5  A    between atoms: C_12  and  O_13
REMARK                            x       y       z     vdW  Elec       q    Type
REMARK                         _______ _______ _______ _____ _____    ______ ____
ROOT
ATOM      1  C   UNL     1       4.219   5.716  17.563  0.00  0.00    +0.000 C 
ATOM      2  C   UNL     1       3.420   6.590  18.223  0.00  0.00    +0.000 C 
ATOM      3  C   UNL     1       2.588   6.079  19.385  0.00  0.00    +0.000 C 
ATOM      4  O   UNL     1       1.737   6.795  19.909  0.00  0.00    +0.000 OA
ATOM      5  C   UNL     1       2.877   4.747  19.820  0.00  0.00    +0.000 A 
ATOM      6  N   UNL     1       2.387   4.151  20.946  0.00  0.00    +0.000 N 
ATOM      7  C   UNL     1       2.937   2.905  21.064  0.00  0.00    +0.000 A 
ATOM      8  C   UNL     1       3.769   2.679  19.978  0.00  0.00    +0.000 A 
ATOM      9  C   UNL     1       3.711   3.862  19.166  0.00  0.00    +0.000 A 
ATOM     10  C   UNL     1       4.347   4.242  17.910  0.00  0.00    +0.000 C 
ATOM     11  N   UNL     1       4.952   3.366  17.180  0.00  0.00    +0.000 NA
ATOM     12  H   UNL     1       1.751   4.592  21.600  0.00  0.00    +0.000 HD
ATOM     13  H   UNL     1       4.861   2.416  17.565  0.00  0.00    +0.000 HD
ENDROOT
BRANCH   2  14
ATOM     14  N   UNL     1       3.277   7.950  17.924  0.00  0.00    +0.000 N 
ATOM     15  H   UNL     1       3.062   8.108  16.941  0.00  0.00    +0.000 HD
ATOM     16  H   UNL     1       2.628   8.407  18.567  0.00  0.00    +0.000 HD
ENDBRANCH   2  14
BRANCH   1  18
ATOM     17  C   UNL     1       6.725   6.607  17.081  0.00  0.00    +0.000 C 
ATOM     18  S   UNL     1       5.179   6.270  16.204  0.00  0.00    +0.000 S 
ENDBRANCH   1  18
BRANCH   8  19
ATOM     19  C   UNL     1       4.575   1.446  19.750  0.00  0.00    +0.000 C 
BRANCH  19  20
ATOM     20  O   UNL     1       4.177   0.802  18.547  0.00  0.00    +0.000 OA
ATOM     21  H   UNL     1       3.476   1.357  18.159  0.00  0.00    +0.000 HD
ENDBRANCH  19  20
ENDBRANCH   8  19
TORSDOF 4
ENDMDL
MODEL 9
REMARK VINA RESULT:      -5.3      2.386      4.996
REMARK  Name = 
REMARK  5 active torsions:
REMARK  status: ('A' for Active; 'I' for Inactive)
REMARK    1  A    between atoms: C_1  and  S_2
REMARK    2  A    between atoms: S_2  and  C_3
REMARK    3  A    between atoms: C_4  and  N_5
REMARK    4  A    between atoms: C_11  and  C_12
REMARK    5  A    between atoms: C_12  and  O_13
REMARK                            x       y       z     vdW  Elec       q    Type
REMARK                         _______ _______ _______ _____ _____    ______ ____
ROOT
ATOM      1  C   UNL     1       3.932   6.182  17.826  0.00  0.00    +0.000 C 
ATOM      2  C   UNL     1       4.626   5.653  16.790  0.00  0.00    +0.000 C 
ATOM      3  C   UNL     1       4.844   4.151  16.753  0.00  0.00    +0.000 C 
ATOM      4  O   UNL     1       5.596   3.648  15.921  0.00  0.00    +0.000 OA
ATOM      5  C   UNL     1       4.112   3.392  17.719  0.00  0.00    +0.000 A 
ATOM      6  N   UNL     1       4.013   2.031  17.756  0.00  0.00    +0.000 N 
ATOM      7  C   UNL     1       3.178   1.673  18.778  0.00  0.00    +0.000 A 
ATOM      8  C   UNL     1       2.759   2.821  19.434  0.00  0.00    +0.000 A 
ATOM      9  C   UNL     1       3.381   3.927  18.761  0.00  0.00    +0.000 A 
ATOM     10  C   UNL     1       3.343   5.370  18.967  0.00  0.00    +0.000 C 
ATOM     11  N   UNL     1       2.847   5.873  20.048  0.00  0.00    +0.000 NA
ATOM     12  H   UNL     1       4.460   1.404  17.097  0.00  0.00    +0.000 HD
ATOM     13  H   UNL     1       2.567   5.145  20.718  0.00  0.00    +0.000 HD
ENDROOT
BRANCH   2  14
ATOM     14  N   UNL     1       5.184   6.374  15.728  0.00  0.00    +0.000 N 
ATOM     15  H   UNL     1       5.209   7.376  15.915  0.00  0.00    +0.000 HD
ATOM     16  H   UNL     1       6.085   5.984  15.444  0.00  0.00    +0.000 HD
ENDBRANCH   2  14
BRANCH   1  18
ATOM     17  C   UNL     1       1.884   7.941  17.678  0.00  0.00    +0.000 C 
ATOM     18  S   UNL     1       3.678   7.916  17.909  0.00  0.00    +0.000 S 
ENDBRANCH   1  18
BRANCH   8  19
ATOM     19  C   UNL     1       1.819   2.860  20.590  0.00  0.00    +0.000 C 
BRANCH  19  20
ATOM     20  O   UNL     1       0.621   3.540  20.242  0.00  0.00    +0.000 OA
ATOM     21  H   UNL     1      -0.053   2.850  20.099  0.00  0.00    +0.000 HD
ENDBRANCH  19  20
ENDBRANCH   8  19
TORSDOF 4
ENDMDL
