MODEL 1
REMARK VINA RESULT:      -7.2      0.000      0.000
REMARK  Name = 
REMARK  4 active torsions:
REMARK  status: ('A' for Active; 'I' for Inactive)
REMARK    1  A    between atoms: O_1  and  C_2
REMARK    2  A    between atoms: C_7  and  C_8
REMARK    3  A    between atoms: C_8  and  N_9
REMARK    4  A    between atoms: C_16  and  O_17
REMARK                            x       y       z     vdW  Elec       q    Type
REMARK                         _______ _______ _______ _____ _____    ______ ____
ROOT
ATOM      1  C   UNL     1       5.105   5.498  19.350  0.00  0.00    +0.000 C 
ENDROOT
BRANCH   1   7
ATOM      2  C   UNL     1       6.669   5.334  15.841  0.00  0.00    +0.000 A 
ATOM      3  C   UNL     1       5.712   5.980  15.068  0.00  0.00    +0.000 A 
ATOM      4  C   UNL     1       4.649   6.610  15.703  0.00  0.00    +0.000 A 
ATOM      5  C   UNL     1       4.509   6.534  17.095  0.00  0.00    +0.000 A 
ATOM      6 CL   UNL     1       3.275   7.531  17.788  0.00  0.00    +0.000 Cl
ATOM      7  C   UNL     1       5.377   5.745  17.878  0.00  0.00    +0.000 A 
ATOM      8  C   UNL     1       6.508   5.203  17.232  0.00  0.00    +0.000 A 
ATOM      9 CL   UNL     1       7.772   4.436  18.140  0.00  0.00    +0.000 Cl
BRANCH   2  10
ATOM     10  O   UNL     1       7.787   4.839  15.224  0.00  0.00    +0.000 OA
ATOM     11  H   UNL     1       7.858   5.226  14.335  0.00  0.00    +0.000 HD
ENDBRANCH   2  10
ENDBRANCH   1   7
BRANCH   1  12
ATOM     12  N   UNL     1       4.048   4.541  19.656  0.00  0.00    +0.000 NA
ATOM     13  C   UNL     1       4.291   3.113  19.617  0.00  0.00    +0.000 C 
ATOM     14  C   UNL     1       2.994   2.311  19.362  0.00  0.00    +0.000 C 
ATOM     15  C   UNL     1       2.347   2.738  18.024  0.00  0.00    +0.000 C 
ATOM     16  C   UNL     1       1.428   3.914  18.399  0.00  0.00    +0.000 C 
ATOM     17  C   UNL     1       1.613   4.104  19.917  0.00  0.00    +0.000 C 
ATOM     18  C   UNL     1       2.801   5.037  20.213  0.00  0.00    +0.000 C 
ATOM     19  C   UNL     1       1.904   2.666  20.356  0.00  0.00    +0.000 C 
BRANCH  19  20
ATOM     20  O   UNL     1       2.252   2.511  21.715  0.00  0.00    +0.000 OA
ATOM     21  H   UNL     1       1.547   2.897  22.266  0.00  0.00    +0.000 HD
ENDBRANCH  19  20
ENDBRANCH   1  12
TORSDOF 4
ENDMDL
MODEL 2
REMARK VINA RESULT:      -7.1      2.069      5.524
REMARK  Name = 
REMARK  4 active torsions:
REMARK  status: ('A' for Active; 'I' for Inactive)
REMARK    1  A    between atoms: O_1  and  C_2
REMARK    2  A    between atoms: C_7  and  C_8
REMARK    3  A    between atoms: C_8  and  N_9
REMARK    4  A    between atoms: C_16  and  O_17
REMARK                            x       y       z     vdW  Elec       q    Type
REMARK                         _______ _______ _______ _____ _____    ______ ____
ROOT
ATOM      1  C   UNL     1       3.347   6.060  18.153  0.00  0.00    +0.000 C 
ENDROOT
BRANCH   1   7
ATOM      2  C   UNL     1       1.600   2.761  19.073  0.00  0.00    +0.000 A 
ATOM      3  C   UNL     1       1.165   3.017  20.368  0.00  0.00    +0.000 A 
ATOM      4  C   UNL     1       1.288   4.303  20.877  0.00  0.00    +0.000 A 
ATOM      5  C   UNL     1       1.906   5.308  20.120  0.00  0.00    +0.000 A 
ATOM      6 CL   UNL     1       1.810   6.910  20.769  0.00  0.00    +0.000 Cl
ATOM      7  C   UNL     1       2.502   5.026  18.874  0.00  0.00    +0.000 A 
ATOM      8  C   UNL     1       2.273   3.746  18.329  0.00  0.00    +0.000 A 
ATOM      9 CL   UNL     1       2.736   3.375  16.698  0.00  0.00    +0.000 Cl
BRANCH   2  10
ATOM     10  O   UNL     1       1.347   1.531  18.526  0.00  0.00    +0.000 OA
ATOM     11  H   UNL     1       0.439   1.518  18.179  0.00  0.00    +0.000 HD
ENDBRANCH   2  10
ENDBRANCH   1   7
BRANCH   1  12
ATOM     12  N   UNL     1       4.672   5.626  17.730  0.00  0.00    +0.000 NA
ATOM     13  C   UNL     1       5.414   4.631  18.479  0.00  0.00    +0.000 C 
ATOM     14  C   UNL     1       6.938   4.756  18.260  0.00  0.00    +0.000 C 
ATOM     15  C   UNL     1       7.432   6.160  18.683  0.00  0.00    +0.000 C 
ATOM     16  C   UNL     1       7.280   7.019  17.415  0.00  0.00    +0.000 C 
ATOM     17  C   UNL     1       6.694   6.071  16.352  0.00  0.00    +0.000 C 
ATOM     18  C   UNL     1       5.158   6.043  16.425  0.00  0.00    +0.000 C 
ATOM     19  C   UNL     1       7.303   4.735  16.788  0.00  0.00    +0.000 C 
BRANCH  19  20
ATOM     20  O   UNL     1       6.853   3.606  16.070  0.00  0.00    +0.000 OA
ATOM     21  H   UNL     1       7.623   3.067  15.815  0.00  0.00    +0.000 HD
ENDBRANCH  19  20
ENDBRANCH   1  12
TORSDOF 4
ENDMDL
MODEL 3
REMARK VINA RESULT:      -7.0      2.209      3.211
REMARK  Name = 
REMARK  4 active torsions:
REMARK  status: ('A' for Active; 'I' for Inactive)
REMARK    1  A    between atoms: O_1  and  C_2
REMARK    2  A    between atoms: C_7  and  C_8
REMARK    3  A    between atoms: C_8  and  N_9
REMARK    4  A    between atoms: C_16  and  O_17
REMARK                            x       y       z     vdW  Elec       q    Type
REMARK                         _______ _______ _______ _____ _____    ______ ____
ROOT
ATOM      1  C   UNL     1       3.536   4.825  16.888  0.00  0.00    +0.000 C 
ENDROOT
BRANCH   1   7
ATOM      2  C   UNL     1       6.880   5.127  18.762  0.00  0.00    +0.000 A 
ATOM      3  C   UNL     1       7.781   4.634  17.826  0.00  0.00    +0.000 A 
ATOM      4  C   UNL     1       7.332   4.364  16.539  0.00  0.00    +0.000 A 
ATOM      5  C   UNL     1       5.978   4.520  16.214  0.00  0.00    +0.000 A 
ATOM      6 CL   UNL     1       5.580   4.360  14.536  0.00  0.00    +0.000 Cl
ATOM      7  C   UNL     1       5.022   4.859  17.193  0.00  0.00    +0.000 A 
ATOM      8  C   UNL     1       5.510   5.231  18.463  0.00  0.00    +0.000 A 
ATOM      9 CL   UNL     1       4.453   5.910  19.661  0.00  0.00    +0.000 Cl
BRANCH   2  10
ATOM     10  O   UNL     1       7.354   5.526  19.983  0.00  0.00    +0.000 OA
ATOM     11  H   UNL     1       6.727   6.153  20.379  0.00  0.00    +0.000 HD
ENDBRANCH   2  10
ENDBRANCH   1   7
BRANCH   1  12
ATOM     12  N   UNL     1       2.728   3.945  17.723  0.00  0.00    +0.000 NA
ATOM     13  C   UNL     1       1.476   4.394  18.298  0.00  0.00    +0.000 C 
ATOM     14  C   UNL     1       1.106   3.603  19.574  0.00  0.00    +0.000 C 
ATOM     15  C   UNL     1       2.218   3.747  20.640  0.00  0.00    +0.000 C 
ATOM     16  C   UNL     1       3.197   2.600  20.333  0.00  0.00    +0.000 C 
ATOM     17  C   UNL     1       2.604   1.881  19.105  0.00  0.00    +0.000 C 
ATOM     18  C   UNL     1       3.083   2.538  17.799  0.00  0.00    +0.000 C 
ATOM     19  C   UNL     1       1.107   2.105  19.333  0.00  0.00    +0.000 C 
BRANCH  19  20
ATOM     20  O   UNL     1       0.267   1.662  18.288  0.00  0.00    +0.000 OA
ATOM     21  H   UNL     1       0.738   0.983  17.773  0.00  0.00    +0.000 HD
ENDBRANCH  19  20
ENDBRANCH   1  12
TORSDOF 4
ENDMDL
MODEL 4
REMARK VINA RESULT:      -7.0      2.164      5.468
REMARK  Name = 
REMARK  4 active torsions:
REMARK  status: ('A' for Active; 'I' for Inactive)
REMARK    1  A    between atoms: O_1  and  C_2
REMARK    2  A    between atoms: C_7  and  C_8
REMARK    3  A    between atoms: C_8  and  N_9
REMARK    4  A    between atoms: C_16  and  O_17
REMARK                            x       y       z     vdW  Elec       q    Type
REMARK                         _______ _______ _______ _____ _____    ______ ____
ROOT
ATOM      1  C   UNL     1       2.802   6.122  18.136  0.00  0.00    +0.000 C 
ENDROOT
BRANCH   1   7
ATOM      2  C   UNL     1       1.895   2.574  19.309  0.00  0.00    +0.000 A 
ATOM      3  C   UNL     1       1.619   2.777  20.655  0.00  0.00    +0.000 A 
ATOM      4  C   UNL     1       1.564   4.078  21.141  0.00  0.00    +0.000 A 
ATOM      5  C   UNL     1       1.852   5.161  20.300  0.00  0.00    +0.000 A 
ATOM      6 CL   UNL     1       1.543   6.732  20.958  0.00  0.00    +0.000 Cl
ATOM      7  C   UNL     1       2.295   4.964  18.976  0.00  0.00    +0.000 A 
ATOM      8  C   UNL     1       2.242   3.649  18.471  0.00  0.00    +0.000 A 
ATOM      9 CL   UNL     1       2.516   3.328  16.787  0.00  0.00    +0.000 Cl
BRANCH   2  10
ATOM     10  O   UNL     1       1.808   1.303  18.805  0.00  0.00    +0.000 OA
ATOM     11  H   UNL     1       2.532   0.767  19.166  0.00  0.00    +0.000 HD
ENDBRANCH   2  10
ENDBRANCH   1   7
BRANCH   1  12
ATOM     12  N   UNL     1       4.206   6.067  17.746  0.00  0.00    +0.000 NA
ATOM     13  C   UNL     1       4.706   6.830  16.620  0.00  0.00    +0.000 C 
ATOM     14  C   UNL     1       5.979   6.201  16.011  0.00  0.00    +0.000 C 
ATOM     15  C   UNL     1       5.696   4.755  15.540  0.00  0.00    +0.000 C 
ATOM     16  C   UNL     1       5.978   3.885  16.777  0.00  0.00    +0.000 C 
ATOM     17  C   UNL     1       6.385   4.876  17.884  0.00  0.00    +0.000 C 
ATOM     18  C   UNL     1       5.148   5.405  18.632  0.00  0.00    +0.000 C 
ATOM     19  C   UNL     1       7.056   5.976  17.056  0.00  0.00    +0.000 C 
BRANCH  19  20
ATOM     20  O   UNL     1       7.442   7.124  17.782  0.00  0.00    +0.000 OA
ATOM     21  H   UNL     1       8.220   6.905  18.325  0.00  0.00    +0.000 HD
ENDBRANCH  19  20
ENDBRANCH   1  12
TORSDOF 4
ENDMDL
MODEL 5
REMARK VINA RESULT:      -6.9      1.848      5.604
REMARK  Name = 
REMARK  4 active torsions:
REMARK  status: ('A' for Active; 'I' for Inactive)
REMARK    1  A    between atoms: O_1  and  C_2
REMARK    2  A    between atoms: C_7  and  C_8
REMARK    3  A    between atoms: C_8  and  N_9
REMARK    4  A    between atoms: C_16  and  O_17
REMARK                            x       y       z     vdW  Elec       q    Type
REMARK                         _______ _______ _______ _____ _____    ______ ____
ROOT
ATOM      1  C   UNL     1       3.707   2.911  17.435  0.00  0.00    +0.000 C 
ENDROOT
BRANCH   1   7
ATOM      2  C   UNL     1       2.596   2.846  21.116  0.00  0.00    +0.000 A 
ATOM      3  C   UNL     1       1.550   3.760  21.117  0.00  0.00    +0.000 A 
ATOM      4  C   UNL     1       1.099   4.267  19.905  0.00  0.00    +0.000 A 
ATOM      5  C   UNL     1       1.737   3.914  18.708  0.00  0.00    +0.000 A 
ATOM      6 CL   UNL     1       0.957   4.435  17.253  0.00  0.00    +0.000 Cl
ATOM      7  C   UNL     1       2.902   3.121  18.704  0.00  0.00    +0.000 A 
ATOM      8  C   UNL     1       3.280   2.531  19.928  0.00  0.00    +0.000 A 
ATOM      9 CL   UNL     1       4.538   1.337  19.992  0.00  0.00    +0.000 Cl
BRANCH   2  10
ATOM     10  O   UNL     1       2.943   2.242  22.295  0.00  0.00    +0.000 OA
ATOM     11  H   UNL     1       3.081   2.924  22.973  0.00  0.00    +0.000 HD
ENDBRANCH   2  10
ENDBRANCH   1   7
BRANCH   1  12
ATOM     12  N   UNL     1       4.839   3.808  17.236  0.00  0.00    +0.000 NA
ATOM     13  C   UNL     1       5.466   4.489  18.351  0.00  0.00    +0.000 C 
ATOM     14  C   UNL     1       6.177   5.789  17.912  0.00  0.00    +0.000 C 
ATOM     15  C   UNL     1       5.172   6.757  17.245  0.00  0.00    +0.000 C 
ATOM     16  C   UNL     1       5.188   6.364  15.757  0.00  0.00    +0.000 C 
ATOM     17  C   UNL     1       6.180   5.189  15.660  0.00  0.00    +0.000 C 
ATOM     18  C   UNL     1       5.473   3.848  15.929  0.00  0.00    +0.000 C 
ATOM     19  C   UNL     1       7.160   5.543  16.782  0.00  0.00    +0.000 C 
BRANCH  19  20
ATOM     20  O   UNL     1       8.151   4.572  17.045  0.00  0.00    +0.000 OA
ATOM     21  H   UNL     1       7.836   3.986  17.756  0.00  0.00    +0.000 HD
ENDBRANCH  19  20
ENDBRANCH   1  12
TORSDOF 4
ENDMDL
MODEL 6
REMARK VINA RESULT:      -6.9      1.860      5.506
REMARK  Name = 
REMARK  4 active torsions:
REMARK  status: ('A' for Active; 'I' for Inactive)
REMARK    1  A    between atoms: O_1  and  C_2
REMARK    2  A    between atoms: C_7  and  C_8
REMARK    3  A    between atoms: C_8  and  N_9
REMARK    4  A    between atoms: C_16  and  O_17
REMARK                            x       y       z     vdW  Elec       q    Type
REMARK                         _______ _______ _______ _____ _____    ______ ____
ROOT
ATOM      1  C   UNL     1       5.088   3.771  19.271  0.00  0.00    +0.000 C 
ENDROOT
BRANCH   1   7
ATOM      2  C   UNL     1       1.495   2.404  19.187  0.00  0.00    +0.000 A 
ATOM      3  C   UNL     1       0.766   3.478  19.684  0.00  0.00    +0.000 A 
ATOM      4  C   UNL     1       1.411   4.691  19.887  0.00  0.00    +0.000 A 
ATOM      5  C   UNL     1       2.789   4.808  19.659  0.00  0.00    +0.000 A 
ATOM      6 CL   UNL     1       3.435   6.412  19.739  0.00  0.00    +0.000 Cl
ATOM      7  C   UNL     1       3.573   3.689  19.315  0.00  0.00    +0.000 A 
ATOM      8  C   UNL     1       2.888   2.494  19.011  0.00  0.00    +0.000 A 
ATOM      9 CL   UNL     1       3.723   1.133  18.331  0.00  0.00    +0.000 Cl
BRANCH   2  10
ATOM     10  O   UNL     1       0.828   1.255  18.854  0.00  0.00    +0.000 OA
ATOM     11  H   UNL     1       0.759   1.196  17.887  0.00  0.00    +0.000 HD
ENDBRANCH   2  10
ENDBRANCH   1   7
BRANCH   1  12
ATOM     12  N   UNL     1       5.663   4.406  18.092  0.00  0.00    +0.000 NA
ATOM     13  C   UNL     1       6.974   5.023  18.133  0.00  0.00    +0.000 C 
ATOM     14  C   UNL     1       7.134   6.118  17.054  0.00  0.00    +0.000 C 
ATOM     15  C   UNL     1       6.065   7.220  17.239  0.00  0.00    +0.000 C 
ATOM     16  C   UNL     1       4.859   6.729  16.419  0.00  0.00    +0.000 C 
ATOM     17  C   UNL     1       5.296   5.374  15.830  0.00  0.00    +0.000 C 
ATOM     18  C   UNL     1       5.000   4.226  16.812  0.00  0.00    +0.000 C 
ATOM     19  C   UNL     1       6.802   5.601  15.667  0.00  0.00    +0.000 C 
BRANCH  19  20
ATOM     20  O   UNL     1       7.539   4.470  15.252  0.00  0.00    +0.000 OA
ATOM     21  H   UNL     1       7.157   4.134  14.421  0.00  0.00    +0.000 HD
ENDBRANCH  19  20
ENDBRANCH   1  12
TORSDOF 4
ENDMDL
MODEL 7
REMARK VINA RESULT:      -6.9      2.022      5.624
REMARK  Name = 
REMARK  4 active torsions:
REMARK  status: ('A' for Active; 'I' for Inactive)
REMARK    1  A    between atoms: O_1  and  C_2
REMARK    2  A    between atoms: C_7  and  C_8
REMARK    3  A    between atoms: C_8  and  N_9
REMARK    4  A    between atoms: C_16  and  O_17
REMARK                            x       y       z     vdW  Elec       q    Type
REMARK                         _______ _______ _______ _____ _____    ______ ____
ROOT
ATOM      1  C   UNL     1       3.858   2.955  17.510  0.00  0.00    +0.000 C 
ENDROOT
BRANCH   1   7
ATOM      2  C   UNL     1       2.579   2.818  21.133  0.00  0.00    +0.000 A 
ATOM      3  C   UNL     1       1.465   3.648  21.077  0.00  0.00    +0.000 A 
ATOM      4  C   UNL     1       1.036   4.113  19.841  0.00  0.00    +0.000 A 
ATOM      5  C   UNL     1       1.756   3.807  18.679  0.00  0.00    +0.000 A 
ATOM      6 CL   UNL     1       1.009   4.259  17.184  0.00  0.00    +0.000 Cl
ATOM      7  C   UNL     1       2.978   3.106  18.737  0.00  0.00    +0.000 A 
ATOM      8  C   UNL     1       3.342   2.553  19.982  0.00  0.00    +0.000 A 
ATOM      9 CL   UNL     1       4.684   1.461  20.116  0.00  0.00    +0.000 Cl
BRANCH   2  10
ATOM     10  O   UNL     1       2.914   2.248  22.333  0.00  0.00    +0.000 OA
ATOM     11  H   UNL     1       2.527   2.772  23.053  0.00  0.00    +0.000 HD
ENDBRANCH   2  10
ENDBRANCH   1   7
BRANCH   1  12
ATOM     12  N   UNL     1       4.752   4.069  17.218  0.00  0.00    +0.000 NA
ATOM     13  C   UNL     1       5.717   3.997  16.139  0.00  0.00    +0.000 C 
ATOM     14  C   UNL     1       6.918   4.943  16.371  0.00  0.00    +0.000 C 
ATOM     15  C   UNL     1       7.633   4.594  17.697  0.00  0.00    +0.000 C 
ATOM     16  C   UNL     1       6.899   5.428  18.761  0.00  0.00    +0.000 C 
ATOM     17  C   UNL     1       5.800   6.187  17.993  0.00  0.00    +0.000 C 
ATOM     18  C   UNL     1       4.520   5.340  17.883  0.00  0.00    +0.000 C 
ATOM     19  C   UNL     1       6.473   6.370  16.630  0.00  0.00    +0.000 C 
BRANCH  19  20
ATOM     20  O   UNL     1       5.657   6.939  15.628  0.00  0.00    +0.000 OA
ATOM     21  H   UNL     1       5.218   7.729  15.992  0.00  0.00    +0.000 HD
ENDBRANCH  19  20
ENDBRANCH   1  12
TORSDOF 4
ENDMDL
MODEL 8
REMARK VINA RESULT:      -6.8      1.883      5.915
REMARK  Name = 
REMARK  4 active torsions:
REMARK  status: ('A' for Active; 'I' for Inactive)
REMARK    1  A    between atoms: O_1  and  C_2
REMARK    2  A    between atoms: C_7  and  C_8
REMARK    3  A    between atoms: C_8  and  N_9
REMARK    4  A    between atoms: C_16  and  O_17
REMARK                            x       y       z     vdW  Elec       q    Type
REMARK                         _______ _______ _______ _____ _____    ______ ____
ROOT
ATOM      1  C   UNL     1       3.698   3.129  17.639  0.00  0.00    +0.000 C 
ENDROOT
BRANCH   1   7
ATOM      2  C   UNL     1       1.791   4.710  20.579  0.00  0.00    +0.000 A 
ATOM      3  C   UNL     1       1.977   3.767  21.583  0.00  0.00    +0.000 A 
ATOM      4  C   UNL     1       2.851   2.711  21.360  0.00  0.00    +0.000 A 
ATOM      5  C   UNL     1       3.480   2.563  20.117  0.00  0.00    +0.000 A 
ATOM      6 CL   UNL     1       4.704   1.342  20.030  0.00  0.00    +0.000 Cl
ATOM      7  C   UNL     1       3.176   3.414  19.035  0.00  0.00    +0.000 A 
ATOM      8  C   UNL     1       2.371   4.538  19.310  0.00  0.00    +0.000 A 
ATOM      9 CL   UNL     1       2.144   5.785  18.123  0.00  0.00    +0.000 Cl
BRANCH   2  10
ATOM     10  O   UNL     1       1.041   5.823  20.853  0.00  0.00    +0.000 OA
ATOM     11  H   UNL     1       1.632   6.585  20.964  0.00  0.00    +0.000 HD
ENDBRANCH   2  10
ENDBRANCH   1   7
BRANCH   1  12
ATOM     12  N   UNL     1       4.805   3.961  17.183  0.00  0.00    +0.000 NA
ATOM     13  C   UNL     1       5.806   4.455  18.108  0.00  0.00    +0.000 C 
ATOM     14  C   UNL     1       6.485   5.744  17.594  0.00  0.00    +0.000 C 
ATOM     15  C   UNL     1       5.434   6.856  17.366  0.00  0.00    +0.000 C 
ATOM     16  C   UNL     1       4.960   6.647  15.917  0.00  0.00    +0.000 C 
ATOM     17  C   UNL     1       5.748   5.424  15.407  0.00  0.00    +0.000 C 
ATOM     18  C   UNL     1       5.018   4.115  15.754  0.00  0.00    +0.000 C 
ATOM     19  C   UNL     1       7.052   5.569  16.198  0.00  0.00    +0.000 C 
BRANCH  19  20
ATOM     20  O   UNL     1       7.967   4.505  16.047  0.00  0.00    +0.000 OA
ATOM     21  H   UNL     1       8.860   4.825  16.269  0.00  0.00    +0.000 HD
ENDBRANCH  19  20
ENDBRANCH   1  12
TORSDOF 4
ENDMDL
MODEL 9
REMARK VINA RESULT:      -6.8      1.640      2.245
REMARK  Name = 
REMARK  4 active torsions:
REMARK  status: ('A' for Active; 'I' for Inactive)
REMARK    1  A    between atoms: O_1  and  C_2
REMARK    2  A    between atoms: C_7  and  C_8
REMARK    3  A    between atoms: C_8  and  N_9
REMARK    4  A    between atoms: C_16  and  O_17
REMARK                            x       y       z     vdW  Elec       q    Type
REMARK                         _______ _______ _______ _____ _____    ______ ____
ROOT
ATOM      1  C   UNL     1       4.210   5.591  18.867  0.00  0.00    +0.000 C 
ENDROOT
BRANCH   1   7
ATOM      2  C   UNL     1       5.998   3.994  15.861  0.00  0.00    +0.000 A 
ATOM      3  C   UNL     1       7.331   4.270  16.139  0.00  0.00    +0.000 A 
ATOM      4  C   UNL     1       7.661   4.821  17.371  0.00  0.00    +0.000 A 
ATOM      5  C   UNL     1       6.657   5.156  18.288  0.00  0.00    +0.000 A 
ATOM      6 CL   UNL     1       7.199   5.632  19.863  0.00  0.00    +0.000 Cl
ATOM      7  C   UNL     1       5.292   5.038  17.958  0.00  0.00    +0.000 A 
ATOM      8  C   UNL     1       4.979   4.380  16.750  0.00  0.00    +0.000 A 
ATOM      9 CL   UNL     1       3.342   3.950  16.365  0.00  0.00    +0.000 Cl
BRANCH   2  10
ATOM     10  O   UNL     1       5.693   3.322  14.707  0.00  0.00    +0.000 OA
ATOM     11  H   UNL     1       4.919   3.737  14.293  0.00  0.00    +0.000 HD
ENDBRANCH   2  10
ENDBRANCH   1   7
BRANCH   1  12
ATOM     12  N   UNL     1       3.415   4.609  19.593  0.00  0.00    +0.000 NA
ATOM     13  C   UNL     1       3.949   3.302  19.921  0.00  0.00    +0.000 C 
ATOM     14  C   UNL     1       2.833   2.249  20.110  0.00  0.00    +0.000 C 
ATOM     15  C   UNL     1       1.982   2.126  18.824  0.00  0.00    +0.000 C 
ATOM     16  C   UNL     1       0.876   3.183  18.991  0.00  0.00    +0.000 C 
ATOM     17  C   UNL     1       1.165   3.860  20.344  0.00  0.00    +0.000 C 
ATOM     18  C   UNL     1       2.152   5.029  20.175  0.00  0.00    +0.000 C 
ATOM     19  C   UNL     1       1.794   2.700  21.121  0.00  0.00    +0.000 C 
BRANCH  19  20
ATOM     20  O   UNL     1       2.298   3.033  22.397  0.00  0.00    +0.000 OA
ATOM     21  H   UNL     1       1.835   3.827  22.719  0.00  0.00    +0.000 HD
ENDBRANCH  19  20
ENDBRANCH   1  12
TORSDOF 4
ENDMDL
