MODEL 1
REMARK VINA RESULT:      -8.6      0.000      0.000
REMARK  Name = 
REMARK  7 active torsions:
REMARK  status: ('A' for Active; 'I' for Inactive)
REMARK    1  A    between atoms: C_1  and  N_2
REMARK    2  A    between atoms: N_2  and  C_3
REMARK    3  A    between atoms: C_4  and  C_6
REMARK    4  A    between atoms: C_10  and  N_11
REMARK    5  A    between atoms: C_16  and  C_17
REMARK    6  A    between atoms: C_19  and  O_20
REMARK    7  A    between atoms: O_20  and  C_21
REMARK                            x       y       z     vdW  Elec       q    Type
REMARK                         _______ _______ _______ _____ _____    ______ ____
ROOT
ATOM      1  N   UNL     1       0.341  11.390  18.369  0.00  0.00    +0.000 N 
ATOM      2  C   UNL     1       0.675  12.720  18.650  0.00  0.00    +0.000 A 
ATOM      3  N   UNL     1      -0.271  13.639  18.422  0.00  0.00    +0.000 NA
ATOM      4  C   UNL     1      -0.011  14.898  18.833  0.00  0.00    +0.000 A 
ATOM      5  C   UNL     1       1.151  15.274  19.464  0.00  0.00    +0.000 A 
ATOM      6  C   UNL     1       2.089  14.282  19.616  0.00  0.00    +0.000 A 
ATOM      7  N   UNL     1       1.860  13.023  19.188  0.00  0.00    +0.000 NA
ATOM      8  H   UNL     1      -0.638  11.366  18.121  0.00  0.00    +0.000 HD
ENDROOT
BRANCH   1  13
ATOM      9  C   UNL     1       3.040   6.095  19.134  0.00  0.00    +0.000 A 
ATOM     10  C   UNL     1       2.916   7.070  18.154  0.00  0.00    +0.000 A 
ATOM     11  C   UNL     1       2.151   8.149  18.679  0.00  0.00    +0.000 A 
ATOM     12  C   UNL     1       1.665   9.366  18.154  0.00  0.00    +0.000 A 
ATOM     13  C   UNL     1       0.855  10.207  18.944  0.00  0.00    +0.000 A 
ATOM     14  C   UNL     1       0.620   9.836  20.273  0.00  0.00    +0.000 A 
ATOM     15  C   UNL     1       1.102   8.646  20.827  0.00  0.00    +0.000 A 
ATOM     16  C   UNL     1       1.861   7.823  19.998  0.00  0.00    +0.000 A 
ATOM     17  N   UNL     1       2.468   6.624  20.267  0.00  0.00    +0.000 N 
ATOM     18  H   UNL     1       2.492   6.192  21.178  0.00  0.00    +0.000 HD
BRANCH   9  22
ATOM     19  C   UNL     1       3.726   2.425  18.696  0.00  0.00    +0.000 C 
ATOM     20  N   UNL     1       2.965   3.656  18.835  0.00  0.00    +0.000 N 
ATOM     21  C   UNL     1       1.613   3.658  18.291  0.00  0.00    +0.000 C 
ATOM     22  C   UNL     1       3.725   4.817  19.042  0.00  0.00    +0.000 C 
ATOM     23  O   UNL     1       4.953   4.761  19.125  0.00  0.00    +0.000 OA
ENDBRANCH   9  22
ENDBRANCH   1  13
BRANCH   6  24
ATOM     24  C   UNL     1       3.385  14.474  20.292  0.00  0.00    +0.000 A 
ATOM     25  C   UNL     1       4.486  14.972  19.594  0.00  0.00    +0.000 A 
ATOM     26  C   UNL     1       5.726  15.014  20.215  0.00  0.00    +0.000 A 
ATOM     27  C   UNL     1       5.824  14.616  21.541  0.00  0.00    +0.000 A 
ATOM     28  C   UNL     1       4.686  14.156  22.178  0.00  0.00    +0.000 A 
ATOM     29  N   UNL     1       3.468  14.080  21.590  0.00  0.00    +0.000 NA
BRANCH  26  30
ATOM     30  O   UNL     1       6.881  15.447  19.633  0.00  0.00    +0.000 OA
BRANCH  30  31
ATOM     31  C   UNL     1       7.952  14.501  19.485  0.00  0.00    +0.000 C 
ATOM     32  C   UNL     1       9.260  15.243  19.763  0.00  0.00    +0.000 C 
ATOM     33  C   UNL     1      10.459  14.402  19.363  0.00  0.00    +0.000 C 
ATOM     34  O   UNL     1      10.356  13.998  18.000  0.00  0.00    +0.000 OA
ATOM     35  C   UNL     1       9.216  13.170  17.771  0.00  0.00    +0.000 C 
ATOM     36  C   UNL     1       7.935  13.931  18.066  0.00  0.00    +0.000 C 
ENDBRANCH  30  31
ENDBRANCH  26  30
ENDBRANCH   6  24
TORSDOF 5
ENDMDL
MODEL 2
REMARK VINA RESULT:      -8.6      5.422      8.679
REMARK  Name = 
REMARK  7 active torsions:
REMARK  status: ('A' for Active; 'I' for Inactive)
REMARK    1  A    between atoms: C_1  and  N_2
REMARK    2  A    between atoms: N_2  and  C_3
REMARK    3  A    between atoms: C_4  and  C_6
REMARK    4  A    between atoms: C_10  and  N_11
REMARK    5  A    between atoms: C_16  and  C_17
REMARK    6  A    between atoms: C_19  and  O_20
REMARK    7  A    between atoms: O_20  and  C_21
REMARK                            x       y       z     vdW  Elec       q    Type
REMARK                         _______ _______ _______ _____ _____    ______ ____
ROOT
ATOM      1  N   UNL     1       0.647   9.989  21.249  0.00  0.00    +0.000 N 
ATOM      2  C   UNL     1      -0.302  10.981  20.979  0.00  0.00    +0.000 A 
ATOM      3  N   UNL     1      -0.267  12.074  21.752  0.00  0.00    +0.000 NA
ATOM      4  C   UNL     1      -1.075  13.096  21.400  0.00  0.00    +0.000 A 
ATOM      5  C   UNL     1      -1.911  13.073  20.310  0.00  0.00    +0.000 A 
ATOM      6  C   UNL     1      -1.923  11.898  19.598  0.00  0.00    +0.000 A 
ATOM      7  N   UNL     1      -1.142  10.854  19.949  0.00  0.00    +0.000 NA
ATOM      8  H   UNL     1       1.272  10.348  21.957  0.00  0.00    +0.000 HD
ENDROOT
BRANCH   1  13
ATOM      9  C   UNL     1       3.143   5.008  19.042  0.00  0.00    +0.000 A 
ATOM     10  C   UNL     1       2.579   5.454  20.229  0.00  0.00    +0.000 A 
ATOM     11  C   UNL     1       2.103   6.781  20.038  0.00  0.00    +0.000 A 
ATOM     12  C   UNL     1       1.498   7.746  20.872  0.00  0.00    +0.000 A 
ATOM     13  C   UNL     1       1.202   9.031  20.373  0.00  0.00    +0.000 A 
ATOM     14  C   UNL     1       1.451   9.284  19.018  0.00  0.00    +0.000 A 
ATOM     15  C   UNL     1       2.032   8.343  18.163  0.00  0.00    +0.000 A 
ATOM     16  C   UNL     1       2.351   7.102  18.709  0.00  0.00    +0.000 A 
ATOM     17  N   UNL     1       2.905   5.998  18.117  0.00  0.00    +0.000 N 
ATOM     18  H   UNL     1       3.107   5.923  17.132  0.00  0.00    +0.000 HD
BRANCH   9  22
ATOM     19  C   UNL     1       3.634   1.346  18.352  0.00  0.00    +0.000 C 
ATOM     20  N   UNL     1       2.947   2.585  18.678  0.00  0.00    +0.000 N 
ATOM     21  C   UNL     1       1.516   2.636  18.405  0.00  0.00    +0.000 C 
ATOM     22  C   UNL     1       3.763   3.722  18.775  0.00  0.00    +0.000 C 
ATOM     23  O   UNL     1       4.982   3.639  18.619  0.00  0.00    +0.000 OA
ENDBRANCH   9  22
ENDBRANCH   1  13
BRANCH   6  24
ATOM     24  C   UNL     1      -2.727  11.683  18.381  0.00  0.00    +0.000 A 
ATOM     25  C   UNL     1      -4.092  11.970  18.369  0.00  0.00    +0.000 A 
ATOM     26  C   UNL     1      -4.851  11.630  17.258  0.00  0.00    +0.000 A 
ATOM     27  C   UNL     1      -4.216  11.069  16.160  0.00  0.00    +0.000 A 
ATOM     28  C   UNL     1      -2.855  10.835  16.233  0.00  0.00    +0.000 A 
ATOM     29  N   UNL     1      -2.092  11.133  17.313  0.00  0.00    +0.000 NA
BRANCH  26  30
ATOM     30  O   UNL     1      -6.195  11.828  17.136  0.00  0.00    +0.000 OA
BRANCH  30  31
ATOM     31  C   UNL     1      -7.022  11.527  18.272  0.00  0.00    +0.000 C 
ATOM     32  C   UNL     1      -6.833  12.654  19.288  0.00  0.00    +0.000 C 
ATOM     33  C   UNL     1      -7.449  12.288  20.627  0.00  0.00    +0.000 C 
ATOM     34  O   UNL     1      -6.922  11.052  21.101  0.00  0.00    +0.000 OA
ATOM     35  C   UNL     1      -7.235   9.967  20.228  0.00  0.00    +0.000 C 
ATOM     36  C   UNL     1      -6.604  10.180  18.862  0.00  0.00    +0.000 C 
ENDBRANCH  30  31
ENDBRANCH  26  30
ENDBRANCH   6  24
TORSDOF 5
ENDMDL
MODEL 3
REMARK VINA RESULT:      -8.4      3.626      9.479
REMARK  Name = 
REMARK  7 active torsions:
REMARK  status: ('A' for Active; 'I' for Inactive)
REMARK    1  A    between atoms: C_1  and  N_2
REMARK    2  A    between atoms: N_2  and  C_3
REMARK    3  A    between atoms: C_4  and  C_6
REMARK    4  A    between atoms: C_10  and  N_11
REMARK    5  A    between atoms: C_16  and  C_17
REMARK    6  A    between atoms: C_19  and  O_20
REMARK    7  A    between atoms: O_20  and  C_21
REMARK                            x       y       z     vdW  Elec       q    Type
REMARK                         _______ _______ _______ _____ _____    ______ ____
ROOT
ATOM      1  N   UNL     1       1.432   7.111  20.661  0.00  0.00    +0.000 N 
ATOM      2  C   UNL     1       2.170   5.944  20.436  0.00  0.00    +0.000 A 
ATOM      3  N   UNL     1       1.607   4.792  20.822  0.00  0.00    +0.000 NA
ATOM      4  C   UNL     1       2.244   3.655  20.469  0.00  0.00    +0.000 A 
ATOM      5  C   UNL     1       3.412   3.622  19.748  0.00  0.00    +0.000 A 
ATOM      6  C   UNL     1       3.949   4.847  19.434  0.00  0.00    +0.000 A 
ATOM      7  N   UNL     1       3.343   5.996  19.800  0.00  0.00    +0.000 NA
ATOM      8  H   UNL     1       0.523   6.836  21.007  0.00  0.00    +0.000 HD
ENDROOT
BRANCH   1  13
ATOM      9  C   UNL     1       0.840  12.886  19.175  0.00  0.00    +0.000 A 
ATOM     10  C   UNL     1       0.706  12.079  20.296  0.00  0.00    +0.000 A 
ATOM     11  C   UNL     1       1.079  10.751  19.949  0.00  0.00    +0.000 A 
ATOM     12  C   UNL     1       1.101   9.516  20.634  0.00  0.00    +0.000 A 
ATOM     13  C   UNL     1       1.473   8.336  19.960  0.00  0.00    +0.000 A 
ATOM     14  C   UNL     1       1.892   8.442  18.628  0.00  0.00    +0.000 A 
ATOM     15  C   UNL     1       1.899   9.653  17.928  0.00  0.00    +0.000 A 
ATOM     16  C   UNL     1       1.480  10.787  18.619  0.00  0.00    +0.000 A 
ATOM     17  N   UNL     1       1.399  12.090  18.202  0.00  0.00    +0.000 N 
ATOM     18  H   UNL     1       1.711  12.419  17.301  0.00  0.00    +0.000 HD
BRANCH   9  22
ATOM     19  C   UNL     1       1.212  16.625  19.261  0.00  0.00    +0.000 C 
ATOM     20  N   UNL     1       1.543  15.224  19.462  0.00  0.00    +0.000 N 
ATOM     21  C   UNL     1       2.956  14.893  19.592  0.00  0.00    +0.000 C 
ATOM     22  C   UNL     1       0.561  14.306  19.058  0.00  0.00    +0.000 C 
ATOM     23  O   UNL     1      -0.512  14.695  18.594  0.00  0.00    +0.000 OA
ENDBRANCH   9  22
ENDBRANCH   1  13
BRANCH   6  24
ATOM     24  C   UNL     1       5.180   5.026  18.641  0.00  0.00    +0.000 A 
ATOM     25  C   UNL     1       5.113   5.381  17.293  0.00  0.00    +0.000 A 
ATOM     26  C   UNL     1       6.276   5.408  16.537  0.00  0.00    +0.000 A 
ATOM     27  C   UNL     1       7.487   5.141  17.161  0.00  0.00    +0.000 A 
ATOM     28  C   UNL     1       7.479   4.820  18.506  0.00  0.00    +0.000 A 
ATOM     29  N   UNL     1       6.358   4.761  19.264  0.00  0.00    +0.000 NA
BRANCH  26  30
ATOM     30  O   UNL     1       6.341   5.707  15.208  0.00  0.00    +0.000 OA
BRANCH  30  31
ATOM     31  C   UNL     1       6.641   4.639  14.295  0.00  0.00    +0.000 C 
ATOM     32  C   UNL     1       7.445   5.237  13.140  0.00  0.00    +0.000 C 
ATOM     33  C   UNL     1       7.570   4.248  11.994  0.00  0.00    +0.000 C 
ATOM     34  O   UNL     1       6.283   3.803  11.572  0.00  0.00    +0.000 OA
ATOM     35  C   UNL     1       5.592   3.103  12.607  0.00  0.00    +0.000 C 
ATOM     36  C   UNL     1       5.336   4.018  13.793  0.00  0.00    +0.000 C 
ENDBRANCH  30  31
ENDBRANCH  26  30
ENDBRANCH   6  24
TORSDOF 5
ENDMDL
MODEL 4
REMARK VINA RESULT:      -8.1      1.984      2.861
REMARK  Name = 
REMARK  7 active torsions:
REMARK  status: ('A' for Active; 'I' for Inactive)
REMARK    1  A    between atoms: C_1  and  N_2
REMARK    2  A    between atoms: N_2  and  C_3
REMARK    3  A    between atoms: C_4  and  C_6
REMARK    4  A    between atoms: C_10  and  N_11
REMARK    5  A    between atoms: C_16  and  C_17
REMARK    6  A    between atoms: C_19  and  O_20
REMARK    7  A    between atoms: O_20  and  C_21
REMARK                            x       y       z     vdW  Elec       q    Type
REMARK                         _______ _______ _______ _____ _____    ______ ____
ROOT
ATOM      1  N   UNL     1       0.128  11.493  18.362  0.00  0.00    +0.000 N 
ATOM      2  C   UNL     1       0.548  12.818  18.529  0.00  0.00    +0.000 A 
ATOM      3  N   UNL     1      -0.389  13.766  18.403  0.00  0.00    +0.000 NA
ATOM      4  C   UNL     1      -0.024  15.028  18.714  0.00  0.00    +0.000 A 
ATOM      5  C   UNL     1       1.232  15.380  19.145  0.00  0.00    +0.000 A 
ATOM      6  C   UNL     1       2.147  14.356  19.200  0.00  0.00    +0.000 A 
ATOM      7  N   UNL     1       1.810  13.092  18.868  0.00  0.00    +0.000 NA
ATOM      8  H   UNL     1      -0.877  11.501  18.265  0.00  0.00    +0.000 HD
ENDROOT
BRANCH   1  13
ATOM      9  C   UNL     1       3.030   6.290  18.999  0.00  0.00    +0.000 A 
ATOM     10  C   UNL     1       2.883   7.291  18.050  0.00  0.00    +0.000 A 
ATOM     11  C   UNL     1       2.065   8.320  18.597  0.00  0.00    +0.000 A 
ATOM     12  C   UNL     1       1.538   9.534  18.104  0.00  0.00    +0.000 A 
ATOM     13  C   UNL     1       0.680  10.313  18.906  0.00  0.00    +0.000 A 
ATOM     14  C   UNL     1       0.438   9.887  20.218  0.00  0.00    +0.000 A 
ATOM     15  C   UNL     1       0.960   8.700  20.740  0.00  0.00    +0.000 A 
ATOM     16  C   UNL     1       1.766   7.937  19.899  0.00  0.00    +0.000 A 
ATOM     17  N   UNL     1       2.417   6.756  20.139  0.00  0.00    +0.000 N 
ATOM     18  H   UNL     1       2.444   6.294  21.035  0.00  0.00    +0.000 HD
BRANCH   9  22
ATOM     19  C   UNL     1       3.883   2.677  18.407  0.00  0.00    +0.000 C 
ATOM     20  N   UNL     1       3.067   3.870  18.569  0.00  0.00    +0.000 N 
ATOM     21  C   UNL     1       1.747   3.852  17.954  0.00  0.00    +0.000 C 
ATOM     22  C   UNL     1       3.769   5.045  18.877  0.00  0.00    +0.000 C 
ATOM     23  O   UNL     1       4.992   5.030  19.024  0.00  0.00    +0.000 OA
ENDBRANCH   9  22
ENDBRANCH   1  13
BRANCH   6  24
ATOM     24  C   UNL     1       3.537  14.520  19.664  0.00  0.00    +0.000 A 
ATOM     25  C   UNL     1       3.846  14.449  21.023  0.00  0.00    +0.000 A 
ATOM     26  C   UNL     1       5.135  14.744  21.445  0.00  0.00    +0.000 A 
ATOM     27  C   UNL     1       6.100  15.040  20.493  0.00  0.00    +0.000 A 
ATOM     28  C   UNL     1       5.726  15.068  19.162  0.00  0.00    +0.000 A 
ATOM     29  N   UNL     1       4.471  14.810  18.721  0.00  0.00    +0.000 NA
BRANCH  26  30
ATOM     30  O   UNL     1       5.555  14.741  22.742  0.00  0.00    +0.000 OA
BRANCH  30  31
ATOM     31  C   UNL     1       6.675  13.908  23.082  0.00  0.00    +0.000 C 
ATOM     32  C   UNL     1       6.133  12.505  23.361  0.00  0.00    +0.000 C 
ATOM     33  C   UNL     1       7.198  11.626  23.994  0.00  0.00    +0.000 C 
ATOM     34  O   UNL     1       7.720  12.238  25.170  0.00  0.00    +0.000 OA
ATOM     35  C   UNL     1       8.367  13.478  24.888  0.00  0.00    +0.000 C 
ATOM     36  C   UNL     1       7.379  14.479  24.314  0.00  0.00    +0.000 C 
ENDBRANCH  30  31
ENDBRANCH  26  30
ENDBRANCH   6  24
TORSDOF 5
ENDMDL
MODEL 5
REMARK VINA RESULT:      -8.1      1.370      1.658
REMARK  Name = 
REMARK  7 active torsions:
REMARK  status: ('A' for Active; 'I' for Inactive)
REMARK    1  A    between atoms: C_1  and  N_2
REMARK    2  A    between atoms: N_2  and  C_3
REMARK    3  A    between atoms: C_4  and  C_6
REMARK    4  A    between atoms: C_10  and  N_11
REMARK    5  A    between atoms: C_16  and  C_17
REMARK    6  A    between atoms: C_19  and  O_20
REMARK    7  A    between atoms: O_20  and  C_21
REMARK                            x       y       z     vdW  Elec       q    Type
REMARK                         _______ _______ _______ _____ _____    ______ ____
ROOT
ATOM      1  N   UNL     1       0.031  11.226  18.371  0.00  0.00    +0.000 N 
ATOM      2  C   UNL     1       0.333  12.580  18.551  0.00  0.00    +0.000 A 
ATOM      3  N   UNL     1      -0.702  13.428  18.598  0.00  0.00    +0.000 NA
ATOM      4  C   UNL     1      -0.428  14.709  18.924  0.00  0.00    +0.000 A 
ATOM      5  C   UNL     1       0.833  15.175  19.205  0.00  0.00    +0.000 A 
ATOM      6  C   UNL     1       1.846  14.254  19.087  0.00  0.00    +0.000 A 
ATOM      7  N   UNL     1       1.596  12.974  18.736  0.00  0.00    +0.000 NA
ATOM      8  H   UNL     1      -0.974  11.130  18.407  0.00  0.00    +0.000 HD
ENDROOT
BRANCH   1  13
ATOM      9  C   UNL     1       3.591   6.407  18.371  0.00  0.00    +0.000 A 
ATOM     10  C   UNL     1       3.243   7.445  17.519  0.00  0.00    +0.000 A 
ATOM     11  C   UNL     1       2.354   8.319  18.206  0.00  0.00    +0.000 A 
ATOM     12  C   UNL     1       1.643   9.486  17.852  0.00  0.00    +0.000 A 
ATOM     13  C   UNL     1       0.767  10.091  18.776  0.00  0.00    +0.000 A 
ATOM     14  C   UNL     1       0.691   9.548  20.065  0.00  0.00    +0.000 A 
ATOM     15  C   UNL     1       1.396   8.404  20.450  0.00  0.00    +0.000 A 
ATOM     16  C   UNL     1       2.216   7.812  19.492  0.00  0.00    +0.000 A 
ATOM     17  N   UNL     1       3.024   6.710  19.588  0.00  0.00    +0.000 N 
ATOM     18  H   UNL     1       3.183   6.194  20.439  0.00  0.00    +0.000 HD
BRANCH   9  22
ATOM     19  C   UNL     1       6.550   4.348  17.303  0.00  0.00    +0.000 C 
ATOM     20  N   UNL     1       5.710   5.519  17.495  0.00  0.00    +0.000 N 
ATOM     21  C   UNL     1       6.379   6.814  17.507  0.00  0.00    +0.000 C 
ATOM     22  C   UNL     1       4.464   5.279  18.095  0.00  0.00    +0.000 C 
ATOM     23  O   UNL     1       4.121   4.136  18.401  0.00  0.00    +0.000 OA
ENDBRANCH   9  22
ENDBRANCH   1  13
BRANCH   6  24
ATOM     24  C   UNL     1       3.261  14.547  19.374  0.00  0.00    +0.000 A 
ATOM     25  C   UNL     1       4.207  14.569  18.348  0.00  0.00    +0.000 A 
ATOM     26  C   UNL     1       5.551  14.711  18.662  0.00  0.00    +0.000 A 
ATOM     27  C   UNL     1       5.913  14.891  19.989  0.00  0.00    +0.000 A 
ATOM     28  C   UNL     1       4.919  14.883  20.951  0.00  0.00    +0.000 A 
ATOM     29  N   UNL     1       3.602  14.722  20.678  0.00  0.00    +0.000 NA
BRANCH  26  30
ATOM     30  O   UNL     1       6.571  14.715  17.757  0.00  0.00    +0.000 OA
BRANCH  30  31
ATOM     31  C   UNL     1       7.863  14.269  18.202  0.00  0.00    +0.000 C 
ATOM     32  C   UNL     1       8.872  15.361  17.843  0.00  0.00    +0.000 C 
ATOM     33  C   UNL     1      10.297  14.865  18.022  0.00  0.00    +0.000 C 
ATOM     34  O   UNL     1      10.511  13.673  17.269  0.00  0.00    +0.000 OA
ATOM     35  C   UNL     1       9.677  12.603  17.710  0.00  0.00    +0.000 C 
ATOM     36  C   UNL     1       8.211  12.950  17.510  0.00  0.00    +0.000 C 
ENDBRANCH  30  31
ENDBRANCH  26  30
ENDBRANCH   6  24
TORSDOF 5
ENDMDL
MODEL 6
REMARK VINA RESULT:      -8.0      2.372      8.275
REMARK  Name = 
REMARK  7 active torsions:
REMARK  status: ('A' for Active; 'I' for Inactive)
REMARK    1  A    between atoms: C_1  and  N_2
REMARK    2  A    between atoms: N_2  and  C_3
REMARK    3  A    between atoms: C_4  and  C_6
REMARK    4  A    between atoms: C_10  and  N_11
REMARK    5  A    between atoms: C_16  and  C_17
REMARK    6  A    between atoms: C_19  and  O_20
REMARK    7  A    between atoms: O_20  and  C_21
REMARK                            x       y       z     vdW  Elec       q    Type
REMARK                         _______ _______ _______ _____ _____    ______ ____
ROOT
ATOM      1  N   UNL     1       0.769  13.800  19.532  0.00  0.00    +0.000 N 
ATOM      2  C   UNL     1       0.238  12.572  19.123  0.00  0.00    +0.000 A 
ATOM      3  N   UNL     1      -0.954  12.603  18.514  0.00  0.00    +0.000 NA
ATOM      4  C   UNL     1      -1.398  11.445  17.982  0.00  0.00    +0.000 A 
ATOM      5  C   UNL     1      -0.701  10.262  18.032  0.00  0.00    +0.000 A 
ATOM      6  C   UNL     1       0.489  10.303  18.716  0.00  0.00    +0.000 A 
ATOM      7  N   UNL     1       0.939  11.445  19.279  0.00  0.00    +0.000 NA
ATOM      8  H   UNL     1       0.158  14.527  19.187  0.00  0.00    +0.000 HD
ENDROOT
BRANCH   1  13
ATOM      9  C   UNL     1       6.577  14.905  18.557  0.00  0.00    +0.000 A 
ATOM     10  C   UNL     1       5.436  14.602  17.826  0.00  0.00    +0.000 A 
ATOM     11  C   UNL     1       4.330  14.530  18.718  0.00  0.00    +0.000 A 
ATOM     12  C   UNL     1       2.960  14.217  18.574  0.00  0.00    +0.000 A 
ATOM     13  C   UNL     1       2.121  14.169  19.705  0.00  0.00    +0.000 A 
ATOM     14  C   UNL     1       2.667  14.516  20.947  0.00  0.00    +0.000 A 
ATOM     15  C   UNL     1       4.015  14.848  21.118  0.00  0.00    +0.000 A 
ATOM     16  C   UNL     1       4.819  14.839  19.981  0.00  0.00    +0.000 A 
ATOM     17  N   UNL     1       6.151  15.133  19.845  0.00  0.00    +0.000 N 
ATOM     18  H   UNL     1       6.737  15.474  20.591  0.00  0.00    +0.000 HD
BRANCH   9  22
ATOM     19  C   UNL     1       9.831  16.440  17.468  0.00  0.00    +0.000 C 
ATOM     20  N   UNL     1       8.447  16.363  17.907  0.00  0.00    +0.000 N 
ATOM     21  C   UNL     1       7.901  17.537  18.574  0.00  0.00    +0.000 C 
ATOM     22  C   UNL     1       7.935  15.066  18.067  0.00  0.00    +0.000 C 
ATOM     23  O   UNL     1       8.628  14.079  17.816  0.00  0.00    +0.000 OA
ENDBRANCH   9  22
ENDBRANCH   1  13
BRANCH   6  24
ATOM     24  C   UNL     1       1.397   9.150  18.857  0.00  0.00    +0.000 A 
ATOM     25  C   UNL     1       2.233   8.770  17.807  0.00  0.00    +0.000 A 
ATOM     26  C   UNL     1       2.975   7.602  17.914  0.00  0.00    +0.000 A 
ATOM     27  C   UNL     1       2.912   6.875  19.094  0.00  0.00    +0.000 A 
ATOM     28  C   UNL     1       2.079   7.325  20.102  0.00  0.00    +0.000 A 
ATOM     29  N   UNL     1       1.324   8.447  20.017  0.00  0.00    +0.000 NA
BRANCH  26  30
ATOM     30  O   UNL     1       3.802   7.107  16.949  0.00  0.00    +0.000 OA
BRANCH  30  31
ATOM     31  C   UNL     1       4.923   6.314  17.371  0.00  0.00    +0.000 C 
ATOM     32  C   UNL     1       6.168   7.199  17.289  0.00  0.00    +0.000 C 
ATOM     33  C   UNL     1       7.433   6.375  17.448  0.00  0.00    +0.000 C 
ATOM     34  O   UNL     1       7.469   5.319  16.492  0.00  0.00    +0.000 OA
ATOM     35  C   UNL     1       6.391   4.401  16.668  0.00  0.00    +0.000 C 
ATOM     36  C   UNL     1       5.056   5.095  16.457  0.00  0.00    +0.000 C 
ENDBRANCH  30  31
ENDBRANCH  26  30
ENDBRANCH   6  24
TORSDOF 5
ENDMDL
MODEL 7
REMARK VINA RESULT:      -8.0      2.350      9.411
REMARK  Name = 
REMARK  7 active torsions:
REMARK  status: ('A' for Active; 'I' for Inactive)
REMARK    1  A    between atoms: C_1  and  N_2
REMARK    2  A    between atoms: N_2  and  C_3
REMARK    3  A    between atoms: C_4  and  C_6
REMARK    4  A    between atoms: C_10  and  N_11
REMARK    5  A    between atoms: C_16  and  C_17
REMARK    6  A    between atoms: C_19  and  O_20
REMARK    7  A    between atoms: O_20  and  C_21
REMARK                            x       y       z     vdW  Elec       q    Type
REMARK                         _______ _______ _______ _____ _____    ______ ____
ROOT
ATOM      1  N   UNL     1       1.469  13.863  20.964  0.00  0.00    +0.000 N 
ATOM      2  C   UNL     1       0.782  12.644  20.980  0.00  0.00    +0.000 A 
ATOM      3  N   UNL     1      -0.451  12.654  21.502  0.00  0.00    +0.000 NA
ATOM      4  C   UNL     1      -1.174  11.521  21.381  0.00  0.00    +0.000 A 
ATOM      5  C   UNL     1      -0.719  10.384  20.759  0.00  0.00    +0.000 A 
ATOM      6  C   UNL     1       0.573  10.439  20.294  0.00  0.00    +0.000 A 
ATOM      7  N   UNL     1       1.323  11.554  20.429  0.00  0.00    +0.000 NA
ATOM      8  H   UNL     1       0.831  14.578  21.283  0.00  0.00    +0.000 HD
ENDROOT
BRANCH   1  13
ATOM      9  C   UNL     1       6.702  15.739  18.727  0.00  0.00    +0.000 A 
ATOM     10  C   UNL     1       6.199  15.231  19.917  0.00  0.00    +0.000 A 
ATOM     11  C   UNL     1       4.823  14.921  19.733  0.00  0.00    +0.000 A 
ATOM     12  C   UNL     1       3.796  14.436  20.574  0.00  0.00    +0.000 A 
ATOM     13  C   UNL     1       2.482  14.299  20.082  0.00  0.00    +0.000 A 
ATOM     14  C   UNL     1       2.252  14.579  18.729  0.00  0.00    +0.000 A 
ATOM     15  C   UNL     1       3.251  15.043  17.868  0.00  0.00    +0.000 A 
ATOM     16  C   UNL     1       4.525  15.208  18.407  0.00  0.00    +0.000 A 
ATOM     17  N   UNL     1       5.685  15.625  17.808  0.00  0.00    +0.000 N 
ATOM     18  H   UNL     1       5.778  15.818  16.822  0.00  0.00    +0.000 HD
BRANCH   9  22
ATOM     19  C   UNL     1      10.388  15.782  17.993  0.00  0.00    +0.000 C 
ATOM     20  N   UNL     1       9.077  15.248  18.325  0.00  0.00    +0.000 N 
ATOM     21  C   UNL     1       8.845  13.841  18.029  0.00  0.00    +0.000 C 
ATOM     22  C   UNL     1       8.052  16.199  18.452  0.00  0.00    +0.000 C 
ATOM     23  O   UNL     1       8.286  17.400  18.315  0.00  0.00    +0.000 OA
ENDBRANCH   9  22
ENDBRANCH   1  13
BRANCH   6  24
ATOM     24  C   UNL     1       1.235   9.337  19.572  0.00  0.00    +0.000 A 
ATOM     25  C   UNL     1       1.564   8.152  20.231  0.00  0.00    +0.000 A 
ATOM     26  C   UNL     1       2.308   7.187  19.566  0.00  0.00    +0.000 A 
ATOM     27  C   UNL     1       2.651   7.402  18.240  0.00  0.00    +0.000 A 
ATOM     28  C   UNL     1       2.270   8.591  17.644  0.00  0.00    +0.000 A 
ATOM     29  N   UNL     1       1.566   9.562  18.273  0.00  0.00    +0.000 NA
BRANCH  26  30
ATOM     30  O   UNL     1       2.719   6.004  20.107  0.00  0.00    +0.000 OA
BRANCH  30  31
ATOM     31  C   UNL     1       1.758   4.940  20.201  0.00  0.00    +0.000 C 
ATOM     32  C   UNL     1       2.180   4.045  21.367  0.00  0.00    +0.000 C 
ATOM     33  C   UNL     1       1.388   2.749  21.372  0.00  0.00    +0.000 C 
ATOM     34  O   UNL     1       1.509   2.082  20.119  0.00  0.00    +0.000 OA
ATOM     35  C   UNL     1       0.970   2.854  19.046  0.00  0.00    +0.000 C 
ATOM     36  C   UNL     1       1.735   4.157  18.888  0.00  0.00    +0.000 C 
ENDBRANCH  30  31
ENDBRANCH  26  30
ENDBRANCH   6  24
TORSDOF 5
ENDMDL
MODEL 8
REMARK VINA RESULT:      -8.0      4.278      9.409
REMARK  Name = 
REMARK  7 active torsions:
REMARK  status: ('A' for Active; 'I' for Inactive)
REMARK    1  A    between atoms: C_1  and  N_2
REMARK    2  A    between atoms: N_2  and  C_3
REMARK    3  A    between atoms: C_4  and  C_6
REMARK    4  A    between atoms: C_10  and  N_11
REMARK    5  A    between atoms: C_16  and  C_17
REMARK    6  A    between atoms: C_19  and  O_20
REMARK    7  A    between atoms: O_20  and  C_21
REMARK                            x       y       z     vdW  Elec       q    Type
REMARK                         _______ _______ _______ _____ _____    ______ ____
ROOT
ATOM      1  N   UNL     1       1.391   7.019  20.594  0.00  0.00    +0.000 N 
ATOM      2  C   UNL     1       2.157   5.873  20.356  0.00  0.00    +0.000 A 
ATOM      3  N   UNL     1       1.604   4.699  20.686  0.00  0.00    +0.000 NA
ATOM      4  C   UNL     1       2.272   3.585  20.318  0.00  0.00    +0.000 A 
ATOM      5  C   UNL     1       3.464   3.596  19.636  0.00  0.00    +0.000 A 
ATOM      6  C   UNL     1       3.989   4.840  19.380  0.00  0.00    +0.000 A 
ATOM      7  N   UNL     1       3.350   5.966  19.762  0.00  0.00    +0.000 NA
ATOM      8  H   UNL     1       0.477   6.717  20.901  0.00  0.00    +0.000 HD
ENDROOT
BRANCH   1  13
ATOM      9  C   UNL     1       0.907  12.859  19.346  0.00  0.00    +0.000 A 
ATOM     10  C   UNL     1       0.811  12.017  20.444  0.00  0.00    +0.000 A 
ATOM     11  C   UNL     1       1.119  10.691  20.030  0.00  0.00    +0.000 A 
ATOM     12  C   UNL     1       1.139   9.432  20.670  0.00  0.00    +0.000 A 
ATOM     13  C   UNL     1       1.433   8.267  19.935  0.00  0.00    +0.000 A 
ATOM     14  C   UNL     1       1.778   8.408  18.585  0.00  0.00    +0.000 A 
ATOM     15  C   UNL     1       1.785   9.643  17.928  0.00  0.00    +0.000 A 
ATOM     16  C   UNL     1       1.445  10.764  18.681  0.00  0.00    +0.000 A 
ATOM     17  N   UNL     1       1.382  12.083  18.315  0.00  0.00    +0.000 N 
ATOM     18  H   UNL     1       1.654  12.434  17.410  0.00  0.00    +0.000 HD
BRANCH   9  22
ATOM     19  C   UNL     1      -0.777  16.216  19.515  0.00  0.00    +0.000 C 
ATOM     20  N   UNL     1      -0.630  14.769  19.527  0.00  0.00    +0.000 N 
ATOM     21  C   UNL     1      -1.662  14.009  20.220  0.00  0.00    +0.000 C 
ATOM     22  C   UNL     1       0.669  14.291  19.294  0.00  0.00    +0.000 C 
ATOM     23  O   UNL     1       1.596  15.070  19.069  0.00  0.00    +0.000 OA
ENDBRANCH   9  22
ENDBRANCH   1  13
BRANCH   6  24
ATOM     24  C   UNL     1       5.241   5.066  18.635  0.00  0.00    +0.000 A 
ATOM     25  C   UNL     1       5.212   5.432  17.288  0.00  0.00    +0.000 A 
ATOM     26  C   UNL     1       6.401   5.504  16.576  0.00  0.00    +0.000 A 
ATOM     27  C   UNL     1       7.596   5.270  17.241  0.00  0.00    +0.000 A 
ATOM     28  C   UNL     1       7.549   4.936  18.583  0.00  0.00    +0.000 A 
ATOM     29  N   UNL     1       6.403   4.833  19.299  0.00  0.00    +0.000 NA
BRANCH  26  30
ATOM     30  O   UNL     1       6.504   5.817  15.253  0.00  0.00    +0.000 OA
BRANCH  30  31
ATOM     31  C   UNL     1       6.762   4.748  14.329  0.00  0.00    +0.000 C 
ATOM     32  C   UNL     1       7.551   5.335  13.157  0.00  0.00    +0.000 C 
ATOM     33  C   UNL     1       7.630   4.349  12.006  0.00  0.00    +0.000 C 
ATOM     34  O   UNL     1       6.326   3.931  11.612  0.00  0.00    +0.000 OA
ATOM     35  C   UNL     1       5.646   3.240  12.659  0.00  0.00    +0.000 C 
ATOM     36  C   UNL     1       5.435   4.154  13.855  0.00  0.00    +0.000 C 
ENDBRANCH  30  31
ENDBRANCH  26  30
ENDBRANCH   6  24
TORSDOF 5
ENDMDL
MODEL 9
REMARK VINA RESULT:      -8.0      2.145      8.121
REMARK  Name = 
REMARK  7 active torsions:
REMARK  status: ('A' for Active; 'I' for Inactive)
REMARK    1  A    between atoms: C_1  and  N_2
REMARK    2  A    between atoms: N_2  and  C_3
REMARK    3  A    between atoms: C_4  and  C_6
REMARK    4  A    between atoms: C_10  and  N_11
REMARK    5  A    between atoms: C_16  and  C_17
REMARK    6  A    between atoms: C_19  and  O_20
REMARK    7  A    between atoms: O_20  and  C_21
REMARK                            x       y       z     vdW  Elec       q    Type
REMARK                         _______ _______ _______ _____ _____    ______ ____
ROOT
ATOM      1  N   UNL     1       1.079  14.227  19.349  0.00  0.00    +0.000 N 
ATOM      2  C   UNL     1       0.406  13.038  19.046  0.00  0.00    +0.000 A 
ATOM      3  N   UNL     1      -0.737  13.151  18.358  0.00  0.00    +0.000 NA
ATOM      4  C   UNL     1      -1.307  12.005  17.931  0.00  0.00    +0.000 A 
ATOM      5  C   UNL     1      -0.784  10.756  18.160  0.00  0.00    +0.000 A 
ATOM      6  C   UNL     1       0.364  10.724  18.915  0.00  0.00    +0.000 A 
ATOM      7  N   UNL     1       0.936  11.857  19.374  0.00  0.00    +0.000 NA
ATOM      8  H   UNL     1       0.593  14.981  18.883  0.00  0.00    +0.000 HD
ENDROOT
BRANCH   1  13
ATOM      9  C   UNL     1       6.965  14.980  18.520  0.00  0.00    +0.000 A 
ATOM     10  C   UNL     1       5.805  14.925  17.762  0.00  0.00    +0.000 A 
ATOM     11  C   UNL     1       4.694  14.782  18.639  0.00  0.00    +0.000 A 
ATOM     12  C   UNL     1       3.302  14.625  18.457  0.00  0.00    +0.000 A 
ATOM     13  C   UNL     1       2.458  14.435  19.570  0.00  0.00    +0.000 A 
ATOM     14  C   UNL     1       3.029  14.487  20.847  0.00  0.00    +0.000 A 
ATOM     15  C   UNL     1       4.401  14.659  21.060  0.00  0.00    +0.000 A 
ATOM     16  C   UNL     1       5.205  14.798  19.931  0.00  0.00    +0.000 A 
ATOM     17  N   UNL     1       6.558  14.993  19.834  0.00  0.00    +0.000 N 
ATOM     18  H   UNL     1       7.169  15.131  20.624  0.00  0.00    +0.000 HD
BRANCH   9  22
ATOM     19  C   UNL     1      10.487  14.169  17.487  0.00  0.00    +0.000 C 
ATOM     20  N   UNL     1       9.150  13.970  18.023  0.00  0.00    +0.000 N 
ATOM     21  C   UNL     1       8.637  12.606  18.020  0.00  0.00    +0.000 C 
ATOM     22  C   UNL     1       8.334  15.111  18.051  0.00  0.00    +0.000 C 
ATOM     23  O   UNL     1       8.761  16.201  17.670  0.00  0.00    +0.000 OA
ENDBRANCH   9  22
ENDBRANCH   1  13
BRANCH   6  24
ATOM     24  C   UNL     1       1.096   9.488  19.245  0.00  0.00    +0.000 A 
ATOM     25  C   UNL     1       1.762   8.768  18.253  0.00  0.00    +0.000 A 
ATOM     26  C   UNL     1       2.326   7.538  18.564  0.00  0.00    +0.000 A 
ATOM     27  C   UNL     1       2.265   7.087  19.874  0.00  0.00    +0.000 A 
ATOM     28  C   UNL     1       1.610   7.865  20.811  0.00  0.00    +0.000 A 
ATOM     29  N   UNL     1       1.028   9.057  20.532  0.00  0.00    +0.000 NA
BRANCH  26  30
ATOM     30  O   UNL     1       2.973   6.726  17.681  0.00  0.00    +0.000 OA
BRANCH  30  31
ATOM     31  C   UNL     1       4.329   6.356  17.980  0.00  0.00    +0.000 C 
ATOM     32  C   UNL     1       5.188   6.756  16.779  0.00  0.00    +0.000 C 
ATOM     33  C   UNL     1       6.581   6.159  16.884  0.00  0.00    +0.000 C 
ATOM     34  O   UNL     1       6.510   4.744  17.040  0.00  0.00    +0.000 OA
ATOM     35  C   UNL     1       5.844   4.371  18.245  0.00  0.00    +0.000 C 
ATOM     36  C   UNL     1       4.402   4.849  18.230  0.00  0.00    +0.000 C 
ENDBRANCH  30  31
ENDBRANCH  26  30
ENDBRANCH   6  24
TORSDOF 5
ENDMDL
