MODEL 1
REMARK VINA RESULT:      -7.0      0.000      0.000
REMARK  Name = 
REMARK  3 active torsions:
REMARK  status: ('A' for Active; 'I' for Inactive)
REMARK    1  A    between atoms: N_4  and  N_5
REMARK    2  A    between atoms: C_6  and  C_7
REMARK    3  A    between atoms: C_12  and  N_13
REMARK                            x       y       z     vdW  Elec       q    Type
REMARK                         _______ _______ _______ _____ _____    ______ ____
ROOT
ATOM      1  C   UNL     1       5.127   3.985  17.189  0.00  0.00    +0.000 A 
ATOM      2  C   UNL     1       5.166   3.699  15.797  0.00  0.00    +0.000 A 
ATOM      3  C   UNL     1       6.149   4.290  15.019  0.00  0.00    +0.000 A 
ATOM      4  C   UNL     1       7.056   5.133  15.532  0.00  0.00    +0.000 A 
ATOM      5  C   UNL     1       7.071   5.471  16.876  0.00  0.00    +0.000 A 
ATOM      6  C   UNL     1       6.104   4.899  17.748  0.00  0.00    +0.000 A 
ATOM      7  O   UNL     1       7.878   5.546  14.564  0.00  0.00    +0.000 OA
ATOM      8  C   UNL     1       7.479   4.926  13.384  0.00  0.00    +0.000 C 
ATOM      9  O   UNL     1       6.375   4.142  13.709  0.00  0.00    +0.000 OA
ENDROOT
BRANCH   6  10
ATOM     10  N   UNL     1       6.142   5.303  19.130  0.00  0.00    +0.000 N 
ATOM     11  O   UNL     1       7.136   5.219  19.780  0.00  0.00    +0.000 OA
ATOM     12  O   UNL     1       5.038   5.683  19.733  0.00  0.00    +0.000 OA
ENDBRANCH   6  10
BRANCH   1  14
ATOM     13  N   UNL     1       2.908   3.816  18.146  0.00  0.00    +0.000 NA
ATOM     14  C   UNL     1       4.081   3.302  18.000  0.00  0.00    +0.000 C 
BRANCH  13  18
ATOM     15  N   UNL     1       2.345   4.527  20.771  0.00  0.00    +0.000 NA
ATOM     16  C   UNL     1       1.666   3.580  20.227  0.00  0.00    +0.000 C 
ATOM     17  N   UNL     1       0.652   2.913  20.962  0.00  0.00    +0.000 N 
ATOM     18  N   UNL     1       1.941   3.180  18.893  0.00  0.00    +0.000 N 
ATOM     19  H   UNL     1       2.170   4.825  21.743  0.00  0.00    +0.000 HD
ATOM     20  H   UNL     1       0.433   3.187  21.932  0.00  0.00    +0.000 HD
ATOM     21  H   UNL     1       0.100   2.162  20.523  0.00  0.00    +0.000 HD
ATOM     22  H   UNL     1       1.433   2.370  18.503  0.00  0.00    +0.000 HD
ENDBRANCH  13  18
ENDBRANCH   1  14
TORSDOF 3
ENDMDL
MODEL 2
REMARK VINA RESULT:      -6.9      3.854      4.526
REMARK  Name = 
REMARK  3 active torsions:
REMARK  status: ('A' for Active; 'I' for Inactive)
REMARK    1  A    between atoms: N_4  and  N_5
REMARK    2  A    between atoms: C_6  and  C_7
REMARK    3  A    between atoms: C_12  and  N_13
REMARK                            x       y       z     vdW  Elec       q    Type
REMARK                         _______ _______ _______ _____ _____    ______ ____
ROOT
ATOM      1  C   UNL     1       3.554   6.043  17.822  0.00  0.00    +0.000 A 
ATOM      2  C   UNL     1       4.676   6.556  17.116  0.00  0.00    +0.000 A 
ATOM      3  C   UNL     1       5.437   5.689  16.346  0.00  0.00    +0.000 A 
ATOM      4  C   UNL     1       5.158   4.381  16.258  0.00  0.00    +0.000 A 
ATOM      5  C   UNL     1       4.091   3.807  16.930  0.00  0.00    +0.000 A 
ATOM      6  C   UNL     1       3.252   4.627  17.732  0.00  0.00    +0.000 A 
ATOM      7  O   UNL     1       6.045   3.791  15.452  0.00  0.00    +0.000 OA
ATOM      8  C   UNL     1       6.920   4.775  15.001  0.00  0.00    +0.000 C 
ATOM      9  O   UNL     1       6.507   5.965  15.595  0.00  0.00    +0.000 OA
ENDROOT
BRANCH   6  10
ATOM     10  N   UNL     1       2.173   3.981  18.433  0.00  0.00    +0.000 N 
ATOM     11  O   UNL     1       2.258   3.693  19.586  0.00  0.00    +0.000 OA
ATOM     12  O   UNL     1       1.097   3.602  17.779  0.00  0.00    +0.000 OA
ENDBRANCH   6  10
BRANCH   1  14
ATOM     13  N   UNL     1       2.213   8.047  18.051  0.00  0.00    +0.000 NA
ATOM     14  C   UNL     1       2.738   7.010  18.608  0.00  0.00    +0.000 C 
BRANCH  13  18
ATOM     15  N   UNL     1       2.186  10.770  17.511  0.00  0.00    +0.000 NA
ATOM     16  C   UNL     1       1.450  10.321  18.466  0.00  0.00    +0.000 C 
ATOM     17  N   UNL     1       0.645  11.209  19.226  0.00  0.00    +0.000 N 
ATOM     18  N   UNL     1       1.454   8.938  18.778  0.00  0.00    +0.000 N 
ATOM     19  H   UNL     1       2.208  11.775  17.274  0.00  0.00    +0.000 HD
ATOM     20  H   UNL     1       0.624  12.219  19.016  0.00  0.00    +0.000 HD
ATOM     21  H   UNL     1       0.047  10.848  19.983  0.00  0.00    +0.000 HD
ATOM     22  H   UNL     1       0.912   8.611  19.595  0.00  0.00    +0.000 HD
ENDBRANCH  13  18
ENDBRANCH   1  14
TORSDOF 3
ENDMDL
MODEL 3
REMARK VINA RESULT:      -6.9      3.365      6.044
REMARK  Name = 
REMARK  3 active torsions:
REMARK  status: ('A' for Active; 'I' for Inactive)
REMARK    1  A    between atoms: N_4  and  N_5
REMARK    2  A    between atoms: C_6  and  C_7
REMARK    3  A    between atoms: C_12  and  N_13
REMARK                            x       y       z     vdW  Elec       q    Type
REMARK                         _______ _______ _______ _____ _____    ______ ____
ROOT
ATOM      1  C   UNL     1       4.682   4.284  17.141  0.00  0.00    +0.000 A 
ATOM      2  C   UNL     1       3.379   3.774  16.892  0.00  0.00    +0.000 A 
ATOM      3  C   UNL     1       2.639   3.276  17.954  0.00  0.00    +0.000 A 
ATOM      4  C   UNL     1       3.119   3.246  19.206  0.00  0.00    +0.000 A 
ATOM      5  C   UNL     1       4.385   3.711  19.522  0.00  0.00    +0.000 A 
ATOM      6  C   UNL     1       5.205   4.250  18.493  0.00  0.00    +0.000 A 
ATOM      7  O   UNL     1       2.200   2.723  20.022  0.00  0.00    +0.000 OA
ATOM      8  C   UNL     1       1.082   2.417  19.251  0.00  0.00    +0.000 C 
ATOM      9  O   UNL     1       1.400   2.775  17.943  0.00  0.00    +0.000 OA
ENDROOT
BRANCH   6  10
ATOM     10  N   UNL     1       6.524   4.693  18.865  0.00  0.00    +0.000 N 
ATOM     11  O   UNL     1       6.700   5.448  19.769  0.00  0.00    +0.000 OA
ATOM     12  O   UNL     1       7.563   4.345  18.138  0.00  0.00    +0.000 OA
ENDBRANCH   6  10
BRANCH   1  14
ATOM     13  N   UNL     1       6.087   4.082  15.178  0.00  0.00    +0.000 NA
ATOM     14  C   UNL     1       5.431   4.845  15.982  0.00  0.00    +0.000 C 
BRANCH  13  18
ATOM     15  N   UNL     1       6.022   2.917  12.658  0.00  0.00    +0.000 NA
ATOM     16  C   UNL     1       6.707   3.992  12.825  0.00  0.00    +0.000 C 
ATOM     17  N   UNL     1       7.417   4.565  11.737  0.00  0.00    +0.000 N 
ATOM     18  N   UNL     1       6.775   4.603  14.104  0.00  0.00    +0.000 N 
ATOM     19  H   UNL     1       5.969   2.449  11.739  0.00  0.00    +0.000 HD
ATOM     20  H   UNL     1       7.381   4.140  10.798  0.00  0.00    +0.000 HD
ATOM     21  H   UNL     1       7.956   5.433  11.868  0.00  0.00    +0.000 HD
ATOM     22  H   UNL     1       7.389   5.424  14.230  0.00  0.00    +0.000 HD
ENDBRANCH  13  18
ENDBRANCH   1  14
TORSDOF 3
ENDMDL
MODEL 4
REMARK VINA RESULT:      -6.8      3.687      6.191
REMARK  Name = 
REMARK  3 active torsions:
REMARK  status: ('A' for Active; 'I' for Inactive)
REMARK    1  A    between atoms: N_4  and  N_5
REMARK    2  A    between atoms: C_6  and  C_7
REMARK    3  A    between atoms: C_12  and  N_13
REMARK                            x       y       z     vdW  Elec       q    Type
REMARK                         _______ _______ _______ _____ _____    ______ ____
ROOT
ATOM      1  C   UNL     1       4.762   4.289  16.737  0.00  0.00    +0.000 A 
ATOM      2  C   UNL     1       3.967   3.375  17.481  0.00  0.00    +0.000 A 
ATOM      3  C   UNL     1       3.025   3.874  18.368  0.00  0.00    +0.000 A 
ATOM      4  C   UNL     1       2.851   5.189  18.559  0.00  0.00    +0.000 A 
ATOM      5  C   UNL     1       3.599   6.138  17.883  0.00  0.00    +0.000 A 
ATOM      6  C   UNL     1       4.578   5.712  16.943  0.00  0.00    +0.000 A 
ATOM      7  O   UNL     1       1.884   5.383  19.460  0.00  0.00    +0.000 OA
ATOM      8  C   UNL     1       1.418   4.131  19.850  0.00  0.00    +0.000 C 
ATOM      9  O   UNL     1       2.170   3.197  19.141  0.00  0.00    +0.000 OA
ENDROOT
BRANCH   6  10
ATOM     10  N   UNL     1       5.351   6.735  16.286  0.00  0.00    +0.000 N 
ATOM     11  O   UNL     1       5.089   7.108  15.186  0.00  0.00    +0.000 OA
ATOM     12  O   UNL     1       6.434   7.211  16.860  0.00  0.00    +0.000 OA
ENDBRANCH   6  10
BRANCH   1  14
ATOM     13  N   UNL     1       5.598   3.901  14.497  0.00  0.00    +0.000 NA
ATOM     14  C   UNL     1       5.735   3.717  15.765  0.00  0.00    +0.000 C 
BRANCH  13  18
ATOM     15  N   UNL     1       4.887   3.185  11.910  0.00  0.00    +0.000 NA
ATOM     16  C   UNL     1       6.110   3.035  12.280  0.00  0.00    +0.000 C 
ATOM     17  N   UNL     1       7.071   2.510  11.377  0.00  0.00    +0.000 N 
ATOM     18  N   UNL     1       6.503   3.375  13.600  0.00  0.00    +0.000 N 
ATOM     19  H   UNL     1       4.577   2.932  10.959  0.00  0.00    +0.000 HD
ATOM     20  H   UNL     1       6.810   2.257  10.412  0.00  0.00    +0.000 HD
ATOM     21  H   UNL     1       8.053   2.401  11.669  0.00  0.00    +0.000 HD
ATOM     22  H   UNL     1       7.473   3.178  13.896  0.00  0.00    +0.000 HD
ENDBRANCH  13  18
ENDBRANCH   1  14
TORSDOF 3
ENDMDL
MODEL 5
REMARK VINA RESULT:      -6.8      3.034      5.963
REMARK  Name = 
REMARK  3 active torsions:
REMARK  status: ('A' for Active; 'I' for Inactive)
REMARK    1  A    between atoms: N_4  and  N_5
REMARK    2  A    between atoms: C_6  and  C_7
REMARK    3  A    between atoms: C_12  and  N_13
REMARK                            x       y       z     vdW  Elec       q    Type
REMARK                         _______ _______ _______ _____ _____    ______ ____
ROOT
ATOM      1  C   UNL     1       4.291   4.094  17.269  0.00  0.00    +0.000 A 
ATOM      2  C   UNL     1       2.966   3.584  17.205  0.00  0.00    +0.000 A 
ATOM      3  C   UNL     1       2.328   3.224  18.382  0.00  0.00    +0.000 A 
ATOM      4  C   UNL     1       2.926   3.325  19.578  0.00  0.00    +0.000 A 
ATOM      5  C   UNL     1       4.221   3.798  19.717  0.00  0.00    +0.000 A 
ATOM      6  C   UNL     1       4.942   4.202  18.561  0.00  0.00    +0.000 A 
ATOM      7  O   UNL     1       2.086   2.914  20.531  0.00  0.00    +0.000 OA
ATOM      8  C   UNL     1       0.897   2.545  19.910  0.00  0.00    +0.000 C 
ATOM      9  O   UNL     1       1.090   2.748  18.546  0.00  0.00    +0.000 OA
ENDROOT
BRANCH   6  10
ATOM     10  N   UNL     1       6.295   4.659  18.753  0.00  0.00    +0.000 N 
ATOM     11  O   UNL     1       7.187   4.284  18.060  0.00  0.00    +0.000 OA
ATOM     12  O   UNL     1       6.587   5.434  19.774  0.00  0.00    +0.000 OA
ENDBRANCH   6  10
BRANCH   1  14
ATOM     13  N   UNL     1       5.679   3.697  15.324  0.00  0.00    +0.000 NA
ATOM     14  C   UNL     1       4.929   4.507  15.989  0.00  0.00    +0.000 C 
BRANCH  13  18
ATOM     15  N   UNL     1       7.631   5.667  15.193  0.00  0.00    +0.000 NA
ATOM     16  C   UNL     1       7.272   5.079  14.107  0.00  0.00    +0.000 C 
ATOM     17  N   UNL     1       7.865   5.439  12.869  0.00  0.00    +0.000 N 
ATOM     18  N   UNL     1       6.265   4.080  14.137  0.00  0.00    +0.000 N 
ATOM     19  H   UNL     1       8.353   6.405  15.192  0.00  0.00    +0.000 HD
ATOM     20  H   UNL     1       8.600   6.160  12.822  0.00  0.00    +0.000 HD
ATOM     21  H   UNL     1       7.585   4.959  12.001  0.00  0.00    +0.000 HD
ATOM     22  H   UNL     1       5.941   3.674  13.244  0.00  0.00    +0.000 HD
ENDBRANCH  13  18
ENDBRANCH   1  14
TORSDOF 3
ENDMDL
MODEL 6
REMARK VINA RESULT:      -6.7      4.027      5.482
REMARK  Name = 
REMARK  3 active torsions:
REMARK  status: ('A' for Active; 'I' for Inactive)
REMARK    1  A    between atoms: N_4  and  N_5
REMARK    2  A    between atoms: C_6  and  C_7
REMARK    3  A    between atoms: C_12  and  N_13
REMARK                            x       y       z     vdW  Elec       q    Type
REMARK                         _______ _______ _______ _____ _____    ______ ____
ROOT
ATOM      1  C   UNL     1       3.682   6.576  18.046  0.00  0.00    +0.000 A 
ATOM      2  C   UNL     1       2.923   5.815  18.976  0.00  0.00    +0.000 A 
ATOM      3  C   UNL     1       3.418   4.592  19.403  0.00  0.00    +0.000 A 
ATOM      4  C   UNL     1       4.581   4.098  18.956  0.00  0.00    +0.000 A 
ATOM      5  C   UNL     1       5.367   4.775  18.039  0.00  0.00    +0.000 A 
ATOM      6  C   UNL     1       4.939   6.043  17.559  0.00  0.00    +0.000 A 
ATOM      7  O   UNL     1       4.812   2.915  19.533  0.00  0.00    +0.000 OA
ATOM      8  C   UNL     1       3.749   2.653  20.392  0.00  0.00    +0.000 C 
ATOM      9  O   UNL     1       2.880   3.736  20.278  0.00  0.00    +0.000 OA
ENDROOT
BRANCH   6  10
ATOM     10  N   UNL     1       5.776   6.697  16.585  0.00  0.00    +0.000 N 
ATOM     11  O   UNL     1       6.692   7.386  16.907  0.00  0.00    +0.000 OA
ATOM     12  O   UNL     1       5.477   6.622  15.307  0.00  0.00    +0.000 OA
ENDBRANCH   6  10
BRANCH   1  14
ATOM     13  N   UNL     1       2.023   8.340  18.116  0.00  0.00    +0.000 NA
ATOM     14  C   UNL     1       3.137   7.902  17.640  0.00  0.00    +0.000 C 
BRANCH  13  18
ATOM     15  N   UNL     1       0.469   9.896  19.812  0.00  0.00    +0.000 NA
ATOM     16  C   UNL     1       0.747  10.346  18.640  0.00  0.00    +0.000 C 
ATOM     17  N   UNL     1       0.261  11.615  18.227  0.00  0.00    +0.000 N 
ATOM     18  N   UNL     1       1.524   9.569  17.742  0.00  0.00    +0.000 N 
ATOM     19  H   UNL     1      -0.104  10.439  20.476  0.00  0.00    +0.000 HD
ATOM     20  H   UNL     1      -0.304  12.199  18.863  0.00  0.00    +0.000 HD
ATOM     21  H   UNL     1       0.493  11.981  17.293  0.00  0.00    +0.000 HD
ATOM     22  H   UNL     1       1.672   9.919  16.782  0.00  0.00    +0.000 HD
ENDBRANCH  13  18
ENDBRANCH   1  14
TORSDOF 3
ENDMDL
MODEL 7
REMARK VINA RESULT:      -6.7      1.124      1.392
REMARK  Name = 
REMARK  3 active torsions:
REMARK  status: ('A' for Active; 'I' for Inactive)
REMARK    1  A    between atoms: N_4  and  N_5
REMARK    2  A    between atoms: C_6  and  C_7
REMARK    3  A    between atoms: C_12  and  N_13
REMARK                            x       y       z     vdW  Elec       q    Type
REMARK                         _______ _______ _______ _____ _____    ______ ____
ROOT
ATOM      1  C   UNL     1       5.347   4.671  17.686  0.00  0.00    +0.000 A 
ATOM      2  C   UNL     1       4.807   4.187  16.463  0.00  0.00    +0.000 A 
ATOM      3  C   UNL     1       5.578   4.262  15.314  0.00  0.00    +0.000 A 
ATOM      4  C   UNL     1       6.811   4.788  15.314  0.00  0.00    +0.000 A 
ATOM      5  C   UNL     1       7.397   5.293  16.464  0.00  0.00    +0.000 A 
ATOM      6  C   UNL     1       6.679   5.244  17.690  0.00  0.00    +0.000 A 
ATOM      7  O   UNL     1       7.321   4.729  14.081  0.00  0.00    +0.000 OA
ATOM      8  C   UNL     1       6.368   4.126  13.264  0.00  0.00    +0.000 C 
ATOM      9  O   UNL     1       5.273   3.850  14.079  0.00  0.00    +0.000 OA
ENDROOT
BRANCH   6  10
ATOM     10  N   UNL     1       7.318   5.807  18.851  0.00  0.00    +0.000 N 
ATOM     11  O   UNL     1       8.014   6.771  18.779  0.00  0.00    +0.000 OA
ATOM     12  O   UNL     1       7.223   5.199  20.013  0.00  0.00    +0.000 OA
ENDBRANCH   6  10
BRANCH   1  14
ATOM     13  N   UNL     1       3.900   3.436  19.186  0.00  0.00    +0.000 NA
ATOM     14  C   UNL     1       4.505   4.539  18.907  0.00  0.00    +0.000 C 
BRANCH  13  18
ATOM     15  N   UNL     1       1.224   2.701  19.090  0.00  0.00    +0.000 NA
ATOM     16  C   UNL     1       1.765   2.922  20.235  0.00  0.00    +0.000 C 
ATOM     17  N   UNL     1       1.000   2.792  21.424  0.00  0.00    +0.000 N 
ATOM     18  N   UNL     1       3.125   3.315  20.319  0.00  0.00    +0.000 N 
ATOM     19  H   UNL     1       0.233   2.426  19.006  0.00  0.00    +0.000 HD
ATOM     20  H   UNL     1       0.009   2.505  21.389  0.00  0.00    +0.000 HD
ATOM     21  H   UNL     1       1.435   2.956  22.343  0.00  0.00    +0.000 HD
ATOM     22  H   UNL     1       3.517   3.556  21.243  0.00  0.00    +0.000 HD
ENDBRANCH  13  18
ENDBRANCH   1  14
TORSDOF 3
ENDMDL
MODEL 8
REMARK VINA RESULT:      -6.7      3.171      6.009
REMARK  Name = 
REMARK  3 active torsions:
REMARK  status: ('A' for Active; 'I' for Inactive)
REMARK    1  A    between atoms: N_4  and  N_5
REMARK    2  A    between atoms: C_6  and  C_7
REMARK    3  A    between atoms: C_12  and  N_13
REMARK                            x       y       z     vdW  Elec       q    Type
REMARK                         _______ _______ _______ _____ _____    ______ ____
ROOT
ATOM      1  C   UNL     1       4.485   4.517  17.058  0.00  0.00    +0.000 A 
ATOM      2  C   UNL     1       3.154   4.149  17.391  0.00  0.00    +0.000 A 
ATOM      3  C   UNL     1       2.734   4.270  18.707  0.00  0.00    +0.000 A 
ATOM      4  C   UNL     1       3.548   4.709  19.678  0.00  0.00    +0.000 A 
ATOM      5  C   UNL     1       4.862   5.072  19.432  0.00  0.00    +0.000 A 
ATOM      6  C   UNL     1       5.369   4.990  18.106  0.00  0.00    +0.000 A 
ATOM      7  O   UNL     1       2.886   4.728  20.838  0.00  0.00    +0.000 OA
ATOM      8  C   UNL     1       1.589   4.289  20.587  0.00  0.00    +0.000 C 
ATOM      9  O   UNL     1       1.532   4.001  19.225  0.00  0.00    +0.000 OA
ENDROOT
BRANCH   6  10
ATOM     10  N   UNL     1       6.749   5.350  17.904  0.00  0.00    +0.000 N 
ATOM     11  O   UNL     1       7.061   6.303  17.261  0.00  0.00    +0.000 OA
ATOM     12  O   UNL     1       7.705   4.565  18.351  0.00  0.00    +0.000 OA
ENDBRANCH   6  10
BRANCH   1  14
ATOM     13  N   UNL     1       5.893   3.687  15.269  0.00  0.00    +0.000 NA
ATOM     14  C   UNL     1       4.888   4.411  15.628  0.00  0.00    +0.000 C 
BRANCH  13  18
ATOM     15  N   UNL     1       7.630   5.487  14.064  0.00  0.00    +0.000 NA
ATOM     16  C   UNL     1       7.164   4.513  13.364  0.00  0.00    +0.000 C 
ATOM     17  N   UNL     1       7.533   4.371  12.001  0.00  0.00    +0.000 N 
ATOM     18  N   UNL     1       6.261   3.586  13.945  0.00  0.00    +0.000 N 
ATOM     19  H   UNL     1       8.278   6.179  13.658  0.00  0.00    +0.000 HD
ATOM     20  H   UNL     1       8.190   5.031  11.558  0.00  0.00    +0.000 HD
ATOM     21  H   UNL     1       7.170   3.584  11.444  0.00  0.00    +0.000 HD
ATOM     22  H   UNL     1       5.843   2.856  13.345  0.00  0.00    +0.000 HD
ENDBRANCH  13  18
ENDBRANCH   1  14
TORSDOF 3
ENDMDL
MODEL 9
REMARK VINA RESULT:      -6.6      4.281      5.607
REMARK  Name = 
REMARK  3 active torsions:
REMARK  status: ('A' for Active; 'I' for Inactive)
REMARK    1  A    between atoms: N_4  and  N_5
REMARK    2  A    between atoms: C_6  and  C_7
REMARK    3  A    between atoms: C_12  and  N_13
REMARK                            x       y       z     vdW  Elec       q    Type
REMARK                         _______ _______ _______ _____ _____    ______ ____
ROOT
ATOM      1  C   UNL     1       3.194   6.511  17.745  0.00  0.00    +0.000 A 
ATOM      2  C   UNL     1       2.131   5.765  18.325  0.00  0.00    +0.000 A 
ATOM      3  C   UNL     1       2.219   4.382  18.350  0.00  0.00    +0.000 A 
ATOM      4  C   UNL     1       3.266   3.723  17.833  0.00  0.00    +0.000 A 
ATOM      5  C   UNL     1       4.331   4.381  17.239  0.00  0.00    +0.000 A 
ATOM      6  C   UNL     1       4.327   5.802  17.183  0.00  0.00    +0.000 A 
ATOM      7  O   UNL     1       3.091   2.409  17.998  0.00  0.00    +0.000 OA
ATOM      8  C   UNL     1       1.879   2.229  18.659  0.00  0.00    +0.000 C 
ATOM      9  O   UNL     1       1.351   3.502  18.860  0.00  0.00    +0.000 OA
ENDROOT
BRANCH   6  10
ATOM     10  N   UNL     1       5.441   6.439  16.530  0.00  0.00    +0.000 N 
ATOM     11  O   UNL     1       6.419   6.760  17.129  0.00  0.00    +0.000 OA
ATOM     12  O   UNL     1       5.356   6.772  15.261  0.00  0.00    +0.000 OA
ENDBRANCH   6  10
BRANCH   1  14
ATOM     13  N   UNL     1       1.937   8.581  17.690  0.00  0.00    +0.000 NA
ATOM     14  C   UNL     1       3.082   7.996  17.771  0.00  0.00    +0.000 C 
BRANCH  13  18
ATOM     15  N   UNL     1       0.143   9.910  19.341  0.00  0.00    +0.000 NA
ATOM     16  C   UNL     1       0.920  10.603  18.586  0.00  0.00    +0.000 C 
ATOM     17  N   UNL     1       0.853  12.021  18.601  0.00  0.00    +0.000 N 
ATOM     18  N   UNL     1       1.836   9.955  17.719  0.00  0.00    +0.000 N 
ATOM     19  H   UNL     1      -0.540  10.361  19.970  0.00  0.00    +0.000 HD
ATOM     20  H   UNL     1       0.196  12.515  19.225  0.00  0.00    +0.000 HD
ATOM     21  H   UNL     1       1.484  12.577  18.006  0.00  0.00    +0.000 HD
ATOM     22  H   UNL     1       2.399  10.530  17.070  0.00  0.00    +0.000 HD
ENDBRANCH  13  18
ENDBRANCH   1  14
TORSDOF 3
ENDMDL
