MODEL 1
REMARK VINA RESULT:      -7.7      0.000      0.000
REMARK  Name = 
REMARK  7 active torsions:
REMARK  status: ('A' for Active; 'I' for Inactive)
REMARK    1  A    between atoms: C_1  and  N_2
REMARK    2  A    between atoms: N_2  and  C_3
REMARK    3  A    between atoms: C_6  and  C_7
REMARK    4  A    between atoms: N_9  and  C_10
REMARK    5  A    between atoms: C_13  and  N_14
REMARK    6  A    between atoms: C_18  and  N_19
REMARK    7  A    between atoms: C_23  and  C_24
REMARK                            x       y       z     vdW  Elec       q    Type
REMARK                         _______ _______ _______ _____ _____    ______ ____
ROOT
ATOM      1  C   UNL     1      -0.216  12.195  18.878  0.00  0.00    +0.000 A 
ATOM      2  C   UNL     1       0.901  11.393  19.019  0.00  0.00    +0.000 A 
ATOM      3  N   UNL     1       0.497  10.098  18.898  0.00  0.00    +0.000 N 
ATOM      4  N   UNL     1      -0.781  10.020  18.468  0.00  0.00    +0.000 NA
ATOM      5  C   UNL     1      -1.258  11.278  18.538  0.00  0.00    +0.000 A 
ENDROOT
BRANCH   1  11
ATOM      6  C   UNL     1       3.510  15.225  17.800  0.00  0.00    +0.000 C 
ATOM      7  N   UNL     1       3.127  15.080  19.208  0.00  0.00    +0.000 N 
ATOM      8  C   UNL     1       4.232  14.861  20.132  0.00  0.00    +0.000 C 
ATOM      9  C   UNL     1       1.851  14.623  19.484  0.00  0.00    +0.000 C 
ATOM     10  N   UNL     1       1.028  14.250  18.559  0.00  0.00    +0.000 NA
ATOM     11  C   UNL     1      -0.258  13.696  19.000  0.00  0.00    +0.000 C 
ATOM     12  N   UNL     1      -0.738  14.052  20.351  0.00  0.00    +0.000 NA
ATOM     13  C   UNL     1       0.187  14.446  21.148  0.00  0.00    +0.000 C 
ATOM     14  N   UNL     1      -0.099  14.705  22.446  0.00  0.00    +0.000 N 
ATOM     15  N   UNL     1       1.468  14.627  20.782  0.00  0.00    +0.000 N 
ATOM     16  H   UNL     1      -1.107  14.679  22.579  0.00  0.00    +0.000 HD
ATOM     17  H   UNL     1       0.286  15.568  22.807  0.00  0.00    +0.000 HD
ATOM     18  H   UNL     1       2.093  15.013  21.461  0.00  0.00    +0.000 HD
ENDBRANCH   1  11
BRANCH   3  19
ATOM     19  C   UNL     1       1.265   8.918  19.096  0.00  0.00    +0.000 A 
ATOM     20  C   UNL     1       1.891   8.338  17.977  0.00  0.00    +0.000 A 
ATOM     21  C   UNL     1       2.710   7.210  18.117  0.00  0.00    +0.000 A 
ATOM     22  C   UNL     1       2.889   6.632  19.382  0.00  0.00    +0.000 A 
ATOM     23  C   UNL     1       2.252   7.169  20.505  0.00  0.00    +0.000 A 
ATOM     24  C   UNL     1       1.447   8.308  20.349  0.00  0.00    +0.000 A 
BRANCH  22  25
ATOM     25  N   UNL     1       3.738   5.443  19.527  0.00  0.00    +0.000 N 
ATOM     26  O   UNL     1       4.947   5.566  19.290  0.00  0.00    +0.000 OA
ATOM     27  O   UNL     1       3.191   4.391  19.883  0.00  0.00    +0.000 OA
ENDBRANCH  22  25
BRANCH  24  28
ATOM     28  N   UNL     1       0.710   8.721  21.529  0.00  0.00    +0.000 N 
ATOM     29  O   UNL     1       1.270   9.513  22.295  0.00  0.00    +0.000 OA
ATOM     30  O   UNL     1      -0.440   8.278  21.647  0.00  0.00    +0.000 OA
ENDBRANCH  24  28
ENDBRANCH   3  19
BRANCH   5  31
ATOM     31  C   UNL     1      -2.666  11.560  18.229  0.00  0.00    +0.000 A 
ATOM     32  C   UNL     1      -3.189  11.346  16.947  0.00  0.00    +0.000 A 
ATOM     33  C   UNL     1      -4.540  11.559  16.675  0.00  0.00    +0.000 A 
ATOM     34  C   UNL     1      -5.383  12.026  17.677  0.00  0.00    +0.000 A 
ATOM     35  C   UNL     1      -4.875  12.278  18.950  0.00  0.00    +0.000 A 
ATOM     36  C   UNL     1      -3.525  12.045  19.224  0.00  0.00    +0.000 A 
ENDBRANCH   5  31
TORSDOF 5
ENDMDL
MODEL 2
REMARK VINA RESULT:      -7.7      0.059      1.136
REMARK  Name = 
REMARK  7 active torsions:
REMARK  status: ('A' for Active; 'I' for Inactive)
REMARK    1  A    between atoms: C_1  and  N_2
REMARK    2  A    between atoms: N_2  and  C_3
REMARK    3  A    between atoms: C_6  and  C_7
REMARK    4  A    between atoms: N_9  and  C_10
REMARK    5  A    between atoms: C_13  and  N_14
REMARK    6  A    between atoms: C_18  and  N_19
REMARK    7  A    between atoms: C_23  and  C_24
REMARK                            x       y       z     vdW  Elec       q    Type
REMARK                         _______ _______ _______ _____ _____    ______ ____
ROOT
ATOM      1  C   UNL     1      -0.229  12.181  18.847  0.00  0.00    +0.000 A 
ATOM      2  C   UNL     1       0.892  11.384  18.982  0.00  0.00    +0.000 A 
ATOM      3  N   UNL     1       0.490  10.086  18.887  0.00  0.00    +0.000 N 
ATOM      4  N   UNL     1      -0.795   9.998  18.480  0.00  0.00    +0.000 NA
ATOM      5  C   UNL     1      -1.274  11.256  18.539  0.00  0.00    +0.000 A 
ENDROOT
BRANCH   1  11
ATOM      6  C   UNL     1       3.524  15.194  17.821  0.00  0.00    +0.000 C 
ATOM      7  N   UNL     1       3.106  15.069  19.221  0.00  0.00    +0.000 N 
ATOM      8  C   UNL     1       4.188  14.864  20.175  0.00  0.00    +0.000 C 
ATOM      9  C   UNL     1       1.823  14.617  19.471  0.00  0.00    +0.000 C 
ATOM     10  N   UNL     1       1.023  14.231  18.531  0.00  0.00    +0.000 NA
ATOM     11  C   UNL     1      -0.274  13.683  18.948  0.00  0.00    +0.000 C 
ATOM     12  N   UNL     1      -0.787  14.059  20.281  0.00  0.00    +0.000 NA
ATOM     13  C   UNL     1       0.117  14.463  21.095  0.00  0.00    +0.000 C 
ATOM     14  N   UNL     1      -0.200  14.741  22.381  0.00  0.00    +0.000 N 
ATOM     15  N   UNL     1       1.408  14.639  20.759  0.00  0.00    +0.000 N 
ATOM     16  H   UNL     1      -1.212  14.717  22.490  0.00  0.00    +0.000 HD
ATOM     17  H   UNL     1       0.176  15.608  22.740  0.00  0.00    +0.000 HD
ATOM     18  H   UNL     1       2.016  15.035  21.447  0.00  0.00    +0.000 HD
ENDBRANCH   1  11
BRANCH   3  19
ATOM     19  C   UNL     1       1.265   8.911  19.091  0.00  0.00    +0.000 A 
ATOM     20  C   UNL     1       1.896   8.332  17.974  0.00  0.00    +0.000 A 
ATOM     21  C   UNL     1       2.721   7.209  18.120  0.00  0.00    +0.000 A 
ATOM     22  C   UNL     1       2.901   6.636  19.387  0.00  0.00    +0.000 A 
ATOM     23  C   UNL     1       2.260   7.173  20.508  0.00  0.00    +0.000 A 
ATOM     24  C   UNL     1       1.447   8.307  20.346  0.00  0.00    +0.000 A 
BRANCH  22  25
ATOM     25  N   UNL     1       3.757   5.453  19.538  0.00  0.00    +0.000 N 
ATOM     26  O   UNL     1       3.244   4.425  20.000  0.00  0.00    +0.000 OA
ATOM     27  O   UNL     1       4.941   5.556  19.188  0.00  0.00    +0.000 OA
ENDBRANCH  22  25
BRANCH  24  28
ATOM     28  N   UNL     1       0.706   8.719  21.524  0.00  0.00    +0.000 N 
ATOM     29  O   UNL     1      -0.448   8.294  21.641  0.00  0.00    +0.000 OA
ATOM     30  O   UNL     1       1.311   9.427  22.338  0.00  0.00    +0.000 OA
ENDBRANCH  24  28
ENDBRANCH   3  19
BRANCH   5  31
ATOM     31  C   UNL     1      -2.688  11.529  18.249  0.00  0.00    +0.000 A 
ATOM     32  C   UNL     1      -3.551  12.028  19.234  0.00  0.00    +0.000 A 
ATOM     33  C   UNL     1      -4.877  12.341  18.939  0.00  0.00    +0.000 A 
ATOM     34  C   UNL     1      -5.371  12.124  17.657  0.00  0.00    +0.000 A 
ATOM     35  C   UNL     1      -4.538  11.596  16.673  0.00  0.00    +0.000 A 
ATOM     36  C   UNL     1      -3.204  11.301  16.967  0.00  0.00    +0.000 A 
ENDBRANCH   5  31
TORSDOF 5
ENDMDL
MODEL 3
REMARK VINA RESULT:      -7.4      0.939      1.381
REMARK  Name = 
REMARK  7 active torsions:
REMARK  status: ('A' for Active; 'I' for Inactive)
REMARK    1  A    between atoms: C_1  and  N_2
REMARK    2  A    between atoms: N_2  and  C_3
REMARK    3  A    between atoms: C_6  and  C_7
REMARK    4  A    between atoms: N_9  and  C_10
REMARK    5  A    between atoms: C_13  and  N_14
REMARK    6  A    between atoms: C_18  and  N_19
REMARK    7  A    between atoms: C_23  and  C_24
REMARK                            x       y       z     vdW  Elec       q    Type
REMARK                         _______ _______ _______ _____ _____    ______ ____
ROOT
ATOM      1  C   UNL     1      -0.928  12.497  19.484  0.00  0.00    +0.000 A 
ATOM      2  C   UNL     1       0.250  11.774  19.531  0.00  0.00    +0.000 A 
ATOM      3  N   UNL     1      -0.040  10.490  19.185  0.00  0.00    +0.000 N 
ATOM      4  N   UNL     1      -1.297  10.382  18.703  0.00  0.00    +0.000 NA
ATOM      5  C   UNL     1      -1.881  11.568  18.961  0.00  0.00    +0.000 A 
ENDROOT
BRANCH   1  11
ATOM      6  C   UNL     1       2.421  16.020  18.720  0.00  0.00    +0.000 C 
ATOM      7  N   UNL     1       2.149  15.620  20.104  0.00  0.00    +0.000 N 
ATOM      8  C   UNL     1       3.329  15.373  20.922  0.00  0.00    +0.000 C 
ATOM      9  C   UNL     1       0.942  14.998  20.367  0.00  0.00    +0.000 C 
ATOM     10  N   UNL     1       0.097  14.692  19.438  0.00  0.00    +0.000 NA
ATOM     11  C   UNL     1      -1.100  13.948  19.849  0.00  0.00    +0.000 C 
ATOM     12  N   UNL     1      -1.520  14.039  21.262  0.00  0.00    +0.000 NA
ATOM     13  C   UNL     1      -0.584  14.395  22.064  0.00  0.00    +0.000 C 
ATOM     14  N   UNL     1      -0.805  14.419  23.399  0.00  0.00    +0.000 N 
ATOM     15  N   UNL     1       0.648  14.761  21.667  0.00  0.00    +0.000 N 
ATOM     16  H   UNL     1      -1.795  14.270  23.578  0.00  0.00    +0.000 HD
ATOM     17  H   UNL     1      -0.478  15.250  23.875  0.00  0.00    +0.000 HD
ATOM     18  H   UNL     1       1.279  15.098  22.366  0.00  0.00    +0.000 HD
ENDBRANCH   1  11
BRANCH   3  19
ATOM     19  C   UNL     1       0.821   9.358  19.215  0.00  0.00    +0.000 A 
ATOM     20  C   UNL     1       1.449   8.972  18.016  0.00  0.00    +0.000 A 
ATOM     21  C   UNL     1       2.355   7.903  17.993  0.00  0.00    +0.000 A 
ATOM     22  C   UNL     1       2.620   7.190  19.170  0.00  0.00    +0.000 A 
ATOM     23  C   UNL     1       1.985   7.533  20.368  0.00  0.00    +0.000 A 
ATOM     24  C   UNL     1       1.091   8.615  20.376  0.00  0.00    +0.000 A 
BRANCH  22  25
ATOM     25  N   UNL     1       3.561   6.063  19.144  0.00  0.00    +0.000 N 
ATOM     26  O   UNL     1       4.432   6.060  18.263  0.00  0.00    +0.000 OA
ATOM     27  O   UNL     1       3.427   5.187  20.008  0.00  0.00    +0.000 OA
ENDBRANCH  22  25
BRANCH  24  28
ATOM     28  N   UNL     1       0.368   8.820  21.617  0.00  0.00    +0.000 N 
ATOM     29  O   UNL     1      -0.694   8.202  21.759  0.00  0.00    +0.000 OA
ATOM     30  O   UNL     1       0.899   9.563  22.451  0.00  0.00    +0.000 OA
ENDBRANCH  24  28
ENDBRANCH   3  19
BRANCH   5  31
ATOM     31  C   UNL     1      -3.301  11.783  18.654  0.00  0.00    +0.000 A 
ATOM     32  C   UNL     1      -4.193  12.262  19.622  0.00  0.00    +0.000 A 
ATOM     33  C   UNL     1      -5.527  12.521  19.309  0.00  0.00    +0.000 A 
ATOM     34  C   UNL     1      -5.998  12.267  18.025  0.00  0.00    +0.000 A 
ATOM     35  C   UNL     1      -5.135  11.758  17.057  0.00  0.00    +0.000 A 
ATOM     36  C   UNL     1      -3.794  11.518  17.370  0.00  0.00    +0.000 A 
ENDBRANCH   5  31
TORSDOF 5
ENDMDL
MODEL 4
REMARK VINA RESULT:      -7.3      1.976      2.578
REMARK  Name = 
REMARK  7 active torsions:
REMARK  status: ('A' for Active; 'I' for Inactive)
REMARK    1  A    between atoms: C_1  and  N_2
REMARK    2  A    between atoms: N_2  and  C_3
REMARK    3  A    between atoms: C_6  and  C_7
REMARK    4  A    between atoms: N_9  and  C_10
REMARK    5  A    between atoms: C_13  and  N_14
REMARK    6  A    between atoms: C_18  and  N_19
REMARK    7  A    between atoms: C_23  and  C_24
REMARK                            x       y       z     vdW  Elec       q    Type
REMARK                         _______ _______ _______ _____ _____    ______ ____
ROOT
ATOM      1  C   UNL     1      -0.163  13.136  20.923  0.00  0.00    +0.000 A 
ATOM      2  C   UNL     1       0.833  12.360  20.360  0.00  0.00    +0.000 A 
ATOM      3  N   UNL     1       0.294  11.144  20.067  0.00  0.00    +0.000 N 
ATOM      4  N   UNL     1      -1.050  11.157  20.205  0.00  0.00    +0.000 NA
ATOM      5  C   UNL     1      -1.335  12.327  20.810  0.00  0.00    +0.000 A 
ENDROOT
BRANCH   1  11
ATOM      6  C   UNL     1      -0.275  17.234  18.200  0.00  0.00    +0.000 C 
ATOM      7  N   UNL     1       1.005  16.843  18.800  0.00  0.00    +0.000 N 
ATOM      8  C   UNL     1       2.149  16.875  17.898  0.00  0.00    +0.000 C 
ATOM      9  C   UNL     1       0.970  15.999  19.896  0.00  0.00    +0.000 C 
ATOM     10  N   UNL     1      -0.129  15.491  20.350  0.00  0.00    +0.000 NA
ATOM     11  C   UNL     1      -0.008  14.535  21.459  0.00  0.00    +0.000 C 
ATOM     12  N   UNL     1       1.208  14.596  22.295  0.00  0.00    +0.000 NA
ATOM     13  C   UNL     1       2.206  15.167  21.726  0.00  0.00    +0.000 C 
ATOM     14  N   UNL     1       3.412  15.199  22.340  0.00  0.00    +0.000 N 
ATOM     15  N   UNL     1       2.146  15.759  20.520  0.00  0.00    +0.000 N 
ATOM     16  H   UNL     1       3.312  14.859  23.294  0.00  0.00    +0.000 HD
ATOM     17  H   UNL     1       3.877  16.097  22.330  0.00  0.00    +0.000 HD
ATOM     18  H   UNL     1       2.961  16.246  20.203  0.00  0.00    +0.000 HD
ENDBRANCH   1  11
BRANCH   3  19
ATOM     19  C   UNL     1       0.960   9.980  19.596  0.00  0.00    +0.000 A 
ATOM     20  C   UNL     1       1.331   9.932  18.239  0.00  0.00    +0.000 A 
ATOM     21  C   UNL     1       2.043   8.839  17.729  0.00  0.00    +0.000 A 
ATOM     22  C   UNL     1       2.366   7.765  18.569  0.00  0.00    +0.000 A 
ATOM     23  C   UNL     1       1.981   7.772  19.913  0.00  0.00    +0.000 A 
ATOM     24  C   UNL     1       1.281   8.882  20.412  0.00  0.00    +0.000 A 
BRANCH  22  25
ATOM     25  N   UNL     1       3.103   6.614  18.031  0.00  0.00    +0.000 N 
ATOM     26  O   UNL     1       4.154   6.838  17.417  0.00  0.00    +0.000 OA
ATOM     27  O   UNL     1       2.626   5.488  18.229  0.00  0.00    +0.000 OA
ENDBRANCH  22  25
BRANCH  24  28
ATOM     28  N   UNL     1       0.793   8.755  21.772  0.00  0.00    +0.000 N 
ATOM     29  O   UNL     1       1.499   9.227  22.671  0.00  0.00    +0.000 OA
ATOM     30  O   UNL     1      -0.314   8.222  21.916  0.00  0.00    +0.000 OA
ENDBRANCH  24  28
ENDBRANCH   3  19
BRANCH   5  31
ATOM     31  C   UNL     1      -2.713  12.645  21.205  0.00  0.00    +0.000 A 
ATOM     32  C   UNL     1      -3.695  12.946  20.252  0.00  0.00    +0.000 A 
ATOM     33  C   UNL     1      -5.016  13.190  20.629  0.00  0.00    +0.000 A 
ATOM     34  C   UNL     1      -5.366  13.171  21.975  0.00  0.00    +0.000 A 
ATOM     35  C   UNL     1      -4.397  12.908  22.941  0.00  0.00    +0.000 A 
ATOM     36  C   UNL     1      -3.079  12.646  22.558  0.00  0.00    +0.000 A 
ENDBRANCH   5  31
TORSDOF 5
ENDMDL
MODEL 5
REMARK VINA RESULT:      -7.2      2.012      2.789
REMARK  Name = 
REMARK  7 active torsions:
REMARK  status: ('A' for Active; 'I' for Inactive)
REMARK    1  A    between atoms: C_1  and  N_2
REMARK    2  A    between atoms: N_2  and  C_3
REMARK    3  A    between atoms: C_6  and  C_7
REMARK    4  A    between atoms: N_9  and  C_10
REMARK    5  A    between atoms: C_13  and  N_14
REMARK    6  A    between atoms: C_18  and  N_19
REMARK    7  A    between atoms: C_23  and  C_24
REMARK                            x       y       z     vdW  Elec       q    Type
REMARK                         _______ _______ _______ _____ _____    ______ ____
ROOT
ATOM      1  C   UNL     1      -0.230  13.163  20.964  0.00  0.00    +0.000 A 
ATOM      2  C   UNL     1       0.767  12.393  20.394  0.00  0.00    +0.000 A 
ATOM      3  N   UNL     1       0.233  11.174  20.104  0.00  0.00    +0.000 N 
ATOM      4  N   UNL     1      -1.110  11.179  20.250  0.00  0.00    +0.000 NA
ATOM      5  C   UNL     1      -1.398  12.347  20.857  0.00  0.00    +0.000 A 
ENDROOT
BRANCH   1  11
ATOM      6  C   UNL     1      -0.411  17.264  18.250  0.00  0.00    +0.000 C 
ATOM      7  N   UNL     1       0.879  16.882  18.832  0.00  0.00    +0.000 N 
ATOM      8  C   UNL     1       2.011  16.926  17.916  0.00  0.00    +0.000 C 
ATOM      9  C   UNL     1       0.865  16.037  19.927  0.00  0.00    +0.000 C 
ATOM     10  N   UNL     1      -0.223  15.518  20.395  0.00  0.00    +0.000 NA
ATOM     11  C   UNL     1      -0.080  14.562  21.500  0.00  0.00    +0.000 C 
ATOM     12  N   UNL     1       1.146  14.632  22.320  0.00  0.00    +0.000 NA
ATOM     13  C   UNL     1       2.132  15.212  21.740  0.00  0.00    +0.000 C 
ATOM     14  N   UNL     1       3.345  15.254  22.339  0.00  0.00    +0.000 N 
ATOM     15  N   UNL     1       2.052  15.806  20.536  0.00  0.00    +0.000 N 
ATOM     16  H   UNL     1       3.260  14.911  23.293  0.00  0.00    +0.000 HD
ATOM     17  H   UNL     1       3.802  16.155  22.324  0.00  0.00    +0.000 HD
ATOM     18  H   UNL     1       2.858  16.300  20.209  0.00  0.00    +0.000 HD
ENDBRANCH   1  11
BRANCH   3  19
ATOM     19  C   UNL     1       0.903  10.014  19.627  0.00  0.00    +0.000 A 
ATOM     20  C   UNL     1       1.264   9.969  18.268  0.00  0.00    +0.000 A 
ATOM     21  C   UNL     1       1.979   8.880  17.752  0.00  0.00    +0.000 A 
ATOM     22  C   UNL     1       2.316   7.808  18.590  0.00  0.00    +0.000 A 
ATOM     23  C   UNL     1       1.941   7.813  19.937  0.00  0.00    +0.000 A 
ATOM     24  C   UNL     1       1.237   8.919  20.441  0.00  0.00    +0.000 A 
BRANCH  22  25
ATOM     25  N   UNL     1       3.056   6.662  18.047  0.00  0.00    +0.000 N 
ATOM     26  O   UNL     1       2.517   5.549  18.103  0.00  0.00    +0.000 OA
ATOM     27  O   UNL     1       4.174   6.882  17.561  0.00  0.00    +0.000 OA
ENDBRANCH  22  25
BRANCH  24  28
ATOM     28  N   UNL     1       0.761   8.788  21.805  0.00  0.00    +0.000 N 
ATOM     29  O   UNL     1       1.481   9.246  22.700  0.00  0.00    +0.000 OA
ATOM     30  O   UNL     1      -0.352   8.269  21.956  0.00  0.00    +0.000 OA
ENDBRANCH  24  28
ENDBRANCH   3  19
BRANCH   5  31
ATOM     31  C   UNL     1      -2.776  12.656  21.261  0.00  0.00    +0.000 A 
ATOM     32  C   UNL     1      -3.162  12.642  22.609  0.00  0.00    +0.000 A 
ATOM     33  C   UNL     1      -4.456  12.994  22.992  0.00  0.00    +0.000 A 
ATOM     34  C   UNL     1      -5.396  13.332  22.025  0.00  0.00    +0.000 A 
ATOM     35  C   UNL     1      -5.042  13.319  20.677  0.00  0.00    +0.000 A 
ATOM     36  C   UNL     1      -3.739  12.984  20.298  0.00  0.00    +0.000 A 
ENDBRANCH   5  31
TORSDOF 5
ENDMDL
MODEL 6
REMARK VINA RESULT:      -7.2      1.323      1.775
REMARK  Name = 
REMARK  7 active torsions:
REMARK  status: ('A' for Active; 'I' for Inactive)
REMARK    1  A    between atoms: C_1  and  N_2
REMARK    2  A    between atoms: N_2  and  C_3
REMARK    3  A    between atoms: C_6  and  C_7
REMARK    4  A    between atoms: N_9  and  C_10
REMARK    5  A    between atoms: C_13  and  N_14
REMARK    6  A    between atoms: C_18  and  N_19
REMARK    7  A    between atoms: C_23  and  C_24
REMARK                            x       y       z     vdW  Elec       q    Type
REMARK                         _______ _______ _______ _____ _____    ______ ____
ROOT
ATOM      1  C   UNL     1      -0.280  12.934  19.583  0.00  0.00    +0.000 A 
ATOM      2  C   UNL     1       0.699  12.057  19.151  0.00  0.00    +0.000 A 
ATOM      3  N   UNL     1       0.279  10.795  19.440  0.00  0.00    +0.000 N 
ATOM      4  N   UNL     1      -1.013  10.785  19.835  0.00  0.00    +0.000 NA
ATOM      5  C   UNL     1      -1.341  12.079  20.015  0.00  0.00    +0.000 A 
ENDROOT
BRANCH   1  11
ATOM      6  C   UNL     1       3.385  15.540  17.584  0.00  0.00    +0.000 C 
ATOM      7  N   UNL     1       3.228  15.582  19.041  0.00  0.00    +0.000 N 
ATOM      8  C   UNL     1       4.454  15.386  19.803  0.00  0.00    +0.000 C 
ATOM      9  C   UNL     1       1.989  15.254  19.564  0.00  0.00    +0.000 C 
ATOM     10  N   UNL     1       1.008  14.843  18.829  0.00  0.00    +0.000 NA
ATOM     11  C   UNL     1      -0.218  14.438  19.527  0.00  0.00    +0.000 C 
ATOM     12  N   UNL     1      -0.453  14.977  20.882  0.00  0.00    +0.000 NA
ATOM     13  C   UNL     1       0.608  15.387  21.473  0.00  0.00    +0.000 C 
ATOM     14  N   UNL     1       0.551  15.810  22.758  0.00  0.00    +0.000 N 
ATOM     15  N   UNL     1       1.822  15.431  20.895  0.00  0.00    +0.000 N 
ATOM     16  H   UNL     1      -0.422  15.873  23.047  0.00  0.00    +0.000 HD
ATOM     17  H   UNL     1       1.036  16.676  22.948  0.00  0.00    +0.000 HD
ATOM     18  H   UNL     1       2.569  15.843  21.417  0.00  0.00    +0.000 HD
ENDBRANCH   1  11
BRANCH   3  19
ATOM     19  C   UNL     1       1.000   9.577  19.301  0.00  0.00    +0.000 A 
ATOM     20  C   UNL     1       1.485   9.236  18.024  0.00  0.00    +0.000 A 
ATOM     21  C   UNL     1       2.254   8.081  17.835  0.00  0.00    +0.000 A 
ATOM     22  C   UNL     1       2.523   7.237  18.921  0.00  0.00    +0.000 A 
ATOM     23  C   UNL     1       2.026   7.535  20.193  0.00  0.00    +0.000 A 
ATOM     24  C   UNL     1       1.269   8.705  20.368  0.00  0.00    +0.000 A 
BRANCH  22  25
ATOM     25  N   UNL     1       3.320   6.020  18.720  0.00  0.00    +0.000 N 
ATOM     26  O   UNL     1       3.529   5.654  17.556  0.00  0.00    +0.000 OA
ATOM     27  O   UNL     1       3.737   5.437  19.730  0.00  0.00    +0.000 OA
ENDBRANCH  22  25
BRANCH  24  28
ATOM     28  N   UNL     1       0.671   8.873  21.680  0.00  0.00    +0.000 N 
ATOM     29  O   UNL     1      -0.405   8.301  21.886  0.00  0.00    +0.000 OA
ATOM     30  O   UNL     1       1.313   9.540  22.500  0.00  0.00    +0.000 OA
ENDBRANCH  24  28
ENDBRANCH   3  19
BRANCH   5  31
ATOM     31  C   UNL     1      -2.662  12.448  20.540  0.00  0.00    +0.000 A 
ATOM     32  C   UNL     1      -3.768  12.594  19.693  0.00  0.00    +0.000 A 
ATOM     33  C   UNL     1      -5.033  12.886  20.203  0.00  0.00    +0.000 A 
ATOM     34  C   UNL     1      -5.202  13.073  21.571  0.00  0.00    +0.000 A 
ATOM     35  C   UNL     1      -4.107  12.966  22.426  0.00  0.00    +0.000 A 
ATOM     36  C   UNL     1      -2.845  12.654  21.913  0.00  0.00    +0.000 A 
ENDBRANCH   5  31
TORSDOF 5
ENDMDL
MODEL 7
REMARK VINA RESULT:      -7.1      1.539      2.113
REMARK  Name = 
REMARK  7 active torsions:
REMARK  status: ('A' for Active; 'I' for Inactive)
REMARK    1  A    between atoms: C_1  and  N_2
REMARK    2  A    between atoms: N_2  and  C_3
REMARK    3  A    between atoms: C_6  and  C_7
REMARK    4  A    between atoms: N_9  and  C_10
REMARK    5  A    between atoms: C_13  and  N_14
REMARK    6  A    between atoms: C_18  and  N_19
REMARK    7  A    between atoms: C_23  and  C_24
REMARK                            x       y       z     vdW  Elec       q    Type
REMARK                         _______ _______ _______ _____ _____    ______ ____
ROOT
ATOM      1  C   UNL     1      -0.213  12.764  20.522  0.00  0.00    +0.000 A 
ATOM      2  C   UNL     1       0.866  11.953  20.225  0.00  0.00    +0.000 A 
ATOM      3  N   UNL     1       0.380  10.796  19.697  0.00  0.00    +0.000 N 
ATOM      4  N   UNL     1      -0.941  10.894  19.430  0.00  0.00    +0.000 NA
ATOM      5  C   UNL     1      -1.336  12.046  20.007  0.00  0.00    +0.000 A 
ENDROOT
BRANCH   1  11
ATOM      6  C   UNL     1      -0.595  17.071  18.172  0.00  0.00    +0.000 C 
ATOM      7  N   UNL     1       0.705  16.716  18.748  0.00  0.00    +0.000 N 
ATOM      8  C   UNL     1       1.848  16.907  17.865  0.00  0.00    +0.000 C 
ATOM      9  C   UNL     1       0.724  15.778  19.765  0.00  0.00    +0.000 C 
ATOM     10  N   UNL     1      -0.339  15.157  20.161  0.00  0.00    +0.000 NA
ATOM     11  C   UNL     1      -0.157  14.117  21.181  0.00  0.00    +0.000 C 
ATOM     12  N   UNL     1       1.048  14.186  22.032  0.00  0.00    +0.000 NA
ATOM     13  C   UNL     1       2.006  14.873  21.527  0.00  0.00    +0.000 C 
ATOM     14  N   UNL     1       3.204  14.932  22.154  0.00  0.00    +0.000 N 
ATOM     15  N   UNL     1       1.911  15.564  20.378  0.00  0.00    +0.000 N 
ATOM     16  H   UNL     1       3.124  14.502  23.073  0.00  0.00    +0.000 HD
ATOM     17  H   UNL     1       3.606  15.857  22.228  0.00  0.00    +0.000 HD
ATOM     18  H   UNL     1       2.691  16.132  20.113  0.00  0.00    +0.000 HD
ENDBRANCH   1  11
BRANCH   3  19
ATOM     19  C   UNL     1       1.098   9.616  19.360  0.00  0.00    +0.000 A 
ATOM     20  C   UNL     1       1.590   9.491  18.047  0.00  0.00    +0.000 A 
ATOM     21  C   UNL     1       2.357   8.381  17.671  0.00  0.00    +0.000 A 
ATOM     22  C   UNL     1       2.616   7.366  18.602  0.00  0.00    +0.000 A 
ATOM     23  C   UNL     1       2.112   7.449  19.904  0.00  0.00    +0.000 A 
ATOM     24  C   UNL     1       1.358   8.576  20.268  0.00  0.00    +0.000 A 
BRANCH  22  25
ATOM     25  N   UNL     1       3.410   6.196  18.204  0.00  0.00    +0.000 N 
ATOM     26  O   UNL     1       4.080   6.280  17.166  0.00  0.00    +0.000 OA
ATOM     27  O   UNL     1       3.363   5.199  18.937  0.00  0.00    +0.000 OA
ENDBRANCH  22  25
BRANCH  24  28
ATOM     28  N   UNL     1       0.752   8.525  21.586  0.00  0.00    +0.000 N 
ATOM     29  O   UNL     1      -0.374   8.023  21.670  0.00  0.00    +0.000 OA
ATOM     30  O   UNL     1       1.436   8.948  22.526  0.00  0.00    +0.000 OA
ENDBRANCH  24  28
ENDBRANCH   3  19
BRANCH   5  31
ATOM     31  C   UNL     1      -2.752  12.436  19.998  0.00  0.00    +0.000 A 
ATOM     32  C   UNL     1      -3.619  12.012  18.983  0.00  0.00    +0.000 A 
ATOM     33  C   UNL     1      -4.975  12.337  19.011  0.00  0.00    +0.000 A 
ATOM     34  C   UNL     1      -5.477  13.125  20.041  0.00  0.00    +0.000 A 
ATOM     35  C   UNL     1      -4.624  13.586  21.041  0.00  0.00    +0.000 A 
ATOM     36  C   UNL     1      -3.270  13.242  21.021  0.00  0.00    +0.000 A 
ENDBRANCH   5  31
TORSDOF 5
ENDMDL
MODEL 8
REMARK VINA RESULT:      -7.0      1.674      4.666
REMARK  Name = 
REMARK  7 active torsions:
REMARK  status: ('A' for Active; 'I' for Inactive)
REMARK    1  A    between atoms: C_1  and  N_2
REMARK    2  A    between atoms: N_2  and  C_3
REMARK    3  A    between atoms: C_6  and  C_7
REMARK    4  A    between atoms: N_9  and  C_10
REMARK    5  A    between atoms: C_13  and  N_14
REMARK    6  A    between atoms: C_18  and  N_19
REMARK    7  A    between atoms: C_23  and  C_24
REMARK                            x       y       z     vdW  Elec       q    Type
REMARK                         _______ _______ _______ _____ _____    ______ ____
ROOT
ATOM      1  C   UNL     1      -0.111  11.818  18.667  0.00  0.00    +0.000 A 
ATOM      2  C   UNL     1      -0.137  10.448  18.852  0.00  0.00    +0.000 A 
ATOM      3  N   UNL     1       1.142  10.039  19.081  0.00  0.00    +0.000 N 
ATOM      4  N   UNL     1       1.968  11.090  19.274  0.00  0.00    +0.000 NA
ATOM      5  C   UNL     1       1.246  12.177  18.936  0.00  0.00    +0.000 A 
ENDROOT
BRANCH   1  11
ATOM      6  C   UNL     1      -2.525  14.686  21.855  0.00  0.00    +0.000 C 
ATOM      7  N   UNL     1      -3.222  13.510  21.324  0.00  0.00    +0.000 N 
ATOM      8  C   UNL     1      -3.901  12.690  22.319  0.00  0.00    +0.000 C 
ATOM      9  C   UNL     1      -2.765  12.975  20.134  0.00  0.00    +0.000 C 
ATOM     10  N   UNL     1      -1.713  13.420  19.527  0.00  0.00    +0.000 NA
ATOM     11  C   UNL     1      -1.287  12.694  18.323  0.00  0.00    +0.000 C 
ATOM     12  N   UNL     1      -2.295  11.885  17.610  0.00  0.00    +0.000 NA
ATOM     13  C   UNL     1      -3.304  11.553  18.329  0.00  0.00    +0.000 C 
ATOM     14  N   UNL     1      -4.252  10.725  17.830  0.00  0.00    +0.000 N 
ATOM     15  N   UNL     1      -3.502  11.979  19.589  0.00  0.00    +0.000 N 
ATOM     16  H   UNL     1      -4.084  10.583  16.836  0.00  0.00    +0.000 HD
ATOM     17  H   UNL     1      -5.206  11.017  17.992  0.00  0.00    +0.000 HD
ATOM     18  H   UNL     1      -4.362  11.726  20.033  0.00  0.00    +0.000 HD
ENDBRANCH   1  11
BRANCH   3  19
ATOM     19  C   UNL     1       1.628   8.708  19.200  0.00  0.00    +0.000 A 
ATOM     20  C   UNL     1       2.205   8.109  18.065  0.00  0.00    +0.000 A 
ATOM     21  C   UNL     1       2.757   6.823  18.135  0.00  0.00    +0.000 A 
ATOM     22  C   UNL     1       2.710   6.110  19.341  0.00  0.00    +0.000 A 
ATOM     23  C   UNL     1       2.114   6.669  20.475  0.00  0.00    +0.000 A 
ATOM     24  C   UNL     1       1.579   7.965  20.392  0.00  0.00    +0.000 A 
BRANCH  22  25
ATOM     25  N   UNL     1       3.279   4.758  19.411  0.00  0.00    +0.000 N 
ATOM     26  O   UNL     1       4.171   4.465  18.605  0.00  0.00    +0.000 OA
ATOM     27  O   UNL     1       2.831   3.994  20.278  0.00  0.00    +0.000 OA
ENDBRANCH  22  25
BRANCH  24  28
ATOM     28  N   UNL     1       0.855   8.419  21.564  0.00  0.00    +0.000 N 
ATOM     29  O   UNL     1       1.492   9.059  22.408  0.00  0.00    +0.000 OA
ATOM     30  O   UNL     1      -0.356   8.167  21.599  0.00  0.00    +0.000 OA
ENDBRANCH  24  28
ENDBRANCH   3  19
BRANCH   5  31
ATOM     31  C   UNL     1       1.862  13.510  18.935  0.00  0.00    +0.000 A 
ATOM     32  C   UNL     1       1.581  14.445  19.940  0.00  0.00    +0.000 A 
ATOM     33  C   UNL     1       2.214  15.687  19.967  0.00  0.00    +0.000 A 
ATOM     34  C   UNL     1       3.114  16.027  18.963  0.00  0.00    +0.000 A 
ATOM     35  C   UNL     1       3.381  15.125  17.935  0.00  0.00    +0.000 A 
ATOM     36  C   UNL     1       2.759  13.873  17.922  0.00  0.00    +0.000 A 
ENDBRANCH   5  31
TORSDOF 5
ENDMDL
MODEL 9
REMARK VINA RESULT:      -6.9      1.418      1.712
REMARK  Name = 
REMARK  7 active torsions:
REMARK  status: ('A' for Active; 'I' for Inactive)
REMARK    1  A    between atoms: C_1  and  N_2
REMARK    2  A    between atoms: N_2  and  C_3
REMARK    3  A    between atoms: C_6  and  C_7
REMARK    4  A    between atoms: N_9  and  C_10
REMARK    5  A    between atoms: C_13  and  N_14
REMARK    6  A    between atoms: C_18  and  N_19
REMARK    7  A    between atoms: C_23  and  C_24
REMARK                            x       y       z     vdW  Elec       q    Type
REMARK                         _______ _______ _______ _____ _____    ______ ____
ROOT
ATOM      1  C   UNL     1      -1.078  13.134  19.815  0.00  0.00    +0.000 A 
ATOM      2  C   UNL     1       0.054  12.398  19.518  0.00  0.00    +0.000 A 
ATOM      3  N   UNL     1      -0.308  11.086  19.467  0.00  0.00    +0.000 N 
ATOM      4  N   UNL     1      -1.651  10.946  19.497  0.00  0.00    +0.000 NA
ATOM      5  C   UNL     1      -2.131  12.168  19.799  0.00  0.00    +0.000 A 
ENDROOT
BRANCH   1  11
ATOM      6  C   UNL     1       2.307  16.363  18.287  0.00  0.00    +0.000 C 
ATOM      7  N   UNL     1       2.183  16.128  19.729  0.00  0.00    +0.000 N 
ATOM      8  C   UNL     1       3.439  15.905  20.432  0.00  0.00    +0.000 C 
ATOM      9  C   UNL     1       0.989  15.607  20.195  0.00  0.00    +0.000 C 
ATOM     10  N   UNL     1       0.028  15.251  19.407  0.00  0.00    +0.000 NA
ATOM     11  C   UNL     1      -1.143  14.623  20.032  0.00  0.00    +0.000 C 
ATOM     12  N   UNL     1      -1.388  14.888  21.464  0.00  0.00    +0.000 NA
ATOM     13  C   UNL     1      -0.350  15.275  22.110  0.00  0.00    +0.000 C 
ATOM     14  N   UNL     1      -0.410  15.454  23.450  0.00  0.00    +0.000 N 
ATOM     15  N   UNL     1       0.841  15.526  21.538  0.00  0.00    +0.000 N 
ATOM     16  H   UNL     1      -1.378  15.380  23.755  0.00  0.00    +0.000 HD
ATOM     17  H   UNL     1       0.006  16.310  23.790  0.00  0.00    +0.000 HD
ATOM     18  H   UNL     1       1.564  15.901  22.119  0.00  0.00    +0.000 HD
ENDBRANCH   1  11
BRANCH   3  19
ATOM     19  C   UNL     1       0.534   9.949  19.322  0.00  0.00    +0.000 A 
ATOM     20  C   UNL     1       1.001   9.631  18.033  0.00  0.00    +0.000 A 
ATOM     21  C   UNL     1       1.881   8.560  17.834  0.00  0.00    +0.000 A 
ATOM     22  C   UNL     1       2.283   7.776  18.924  0.00  0.00    +0.000 A 
ATOM     23  C   UNL     1       1.809   8.051  20.211  0.00  0.00    +0.000 A 
ATOM     24  C   UNL     1       0.938   9.138  20.395  0.00  0.00    +0.000 A 
BRANCH  22  25
ATOM     25  N   UNL     1       3.197   6.646  18.714  0.00  0.00    +0.000 N 
ATOM     26  O   UNL     1       3.845   6.618  17.659  0.00  0.00    +0.000 OA
ATOM     27  O   UNL     1       3.265   5.793  19.609  0.00  0.00    +0.000 OA
ENDBRANCH  22  25
BRANCH  24  28
ATOM     28  N   UNL     1       0.380   9.273  21.727  0.00  0.00    +0.000 N 
ATOM     29  O   UNL     1       0.884  10.126  22.466  0.00  0.00    +0.000 OA
ATOM     30  O   UNL     1      -0.589   8.552  21.997  0.00  0.00    +0.000 OA
ENDBRANCH  24  28
ENDBRANCH   3  19
BRANCH   5  31
ATOM     31  C   UNL     1      -3.570  12.373  20.008  0.00  0.00    +0.000 A 
ATOM     32  C   UNL     1      -4.488  12.224  18.960  0.00  0.00    +0.000 A 
ATOM     33  C   UNL     1      -5.859  12.362  19.177  0.00  0.00    +0.000 A 
ATOM     34  C   UNL     1      -6.330  12.688  20.444  0.00  0.00    +0.000 A 
ATOM     35  C   UNL     1      -5.430  12.874  21.492  0.00  0.00    +0.000 A 
ATOM     36  C   UNL     1      -4.059  12.716  21.275  0.00  0.00    +0.000 A 
ENDBRANCH   5  31
TORSDOF 5
ENDMDL
