MODEL 1
REMARK VINA RESULT:      -6.7      0.000      0.000
REMARK  Name = 
REMARK  3 active torsions:
REMARK  status: ('A' for Active; 'I' for Inactive)
REMARK    1  A    between atoms: C_2  and  C_3
REMARK    2  A    between atoms: C_8  and  C_9
REMARK    3  A    between atoms: C_23  and  C_24
REMARK                            x       y       z     vdW  Elec       q    Type
REMARK                         _______ _______ _______ _____ _____    ______ ____
ROOT
ATOM      1  O   UNL     1      -1.084   9.883  19.879  0.00  0.00    +0.000 OA
ATOM      2  C   UNL     1      -1.198  10.826  19.101  0.00  0.00    +0.000 C 
ATOM      3  N   UNL     1      -0.354  11.946  19.187  0.00  0.00    +0.000 N 
ATOM      4  C   UNL     1      -0.265  13.061  18.263  0.00  0.00    +0.000 C 
ATOM      5  C   UNL     1       0.691  14.080  18.847  0.00  0.00    +0.000 C 
ATOM      6  C   UNL     1      -0.029  15.376  19.188  0.00  0.00    +0.000 C 
ATOM      7  N   UNL     1      -0.248  15.292  20.611  0.00  0.00    +0.000 N 
ATOM      8  C   UNL     1      -1.427  15.667  21.183  0.00  0.00    +0.000 A 
ATOM      9  N   UNL     1      -1.515  15.625  22.532  0.00  0.00    +0.000 NA
ATOM     10  C   UNL     1      -2.662  16.014  23.091  0.00  0.00    +0.000 A 
ATOM     11  C   UNL     1      -3.750  16.436  22.376  0.00  0.00    +0.000 A 
ATOM     12  C   UNL     1      -3.591  16.444  21.010  0.00  0.00    +0.000 A 
ATOM     13  N   UNL     1      -2.441  16.069  20.407  0.00  0.00    +0.000 NA
ATOM     14  C   UNL     1       0.599  14.318  21.274  0.00  0.00    +0.000 C 
ATOM     15  C   UNL     1       1.205  13.468  20.155  0.00  0.00    +0.000 C 
ATOM     16  C   UNL     1       0.727  12.010  20.151  0.00  0.00    +0.000 C 
ENDROOT
BRANCH   2  17
ATOM     17  C   UNL     1      -2.253  10.790  18.020  0.00  0.00    +0.000 A 
ATOM     18  C   UNL     1      -1.915  10.088  16.844  0.00  0.00    +0.000 A 
ATOM     19  C   UNL     1      -2.667  10.171  15.680  0.00  0.00    +0.000 A 
ATOM     20  C   UNL     1      -3.879  10.822  15.717  0.00  0.00    +0.000 A 
ATOM     21  C   UNL     1      -4.326  11.374  16.922  0.00  0.00    +0.000 A 
ATOM     22  C   UNL     1      -3.536  11.379  18.104  0.00  0.00    +0.000 A 
BRANCH  22  23
ATOM     23  C   UNL     1      -4.124  11.977  19.333  0.00  0.00    +0.000 A 
ATOM     24  C   UNL     1      -3.526  12.631  20.398  0.00  0.00    +0.000 A 
ATOM     25  C   UNL     1      -4.445  12.992  21.431  0.00  0.00    +0.000 A 
ATOM     26  C   UNL     1      -5.740  12.670  21.106  0.00  0.00    +0.000 A 
ATOM     27  S   UNL     1      -5.836  11.881  19.600  0.00  0.00    +0.000 S 
ENDBRANCH  22  23
ENDBRANCH   2  17
BRANCH  12  28
ATOM     28  C   UNL     1      -4.661  16.831  20.077  0.00  0.00    +0.000 A 
ATOM     29  C   UNL     1      -5.847  16.168  19.803  0.00  0.00    +0.000 A 
ATOM     30  C   UNL     1      -6.648  16.835  18.832  0.00  0.00    +0.000 A 
ATOM     31  C   UNL     1      -6.047  17.987  18.377  0.00  0.00    +0.000 A 
ATOM     32  S   UNL     1      -4.534  18.256  19.120  0.00  0.00    +0.000 S 
ENDBRANCH  12  28
TORSDOF 3
ENDMDL
MODEL 2
REMARK VINA RESULT:      -6.5      2.876      5.460
REMARK  Name = 
REMARK  3 active torsions:
REMARK  status: ('A' for Active; 'I' for Inactive)
REMARK    1  A    between atoms: C_2  and  C_3
REMARK    2  A    between atoms: C_8  and  C_9
REMARK    3  A    between atoms: C_23  and  C_24
REMARK                            x       y       z     vdW  Elec       q    Type
REMARK                         _______ _______ _______ _____ _____    ______ ____
ROOT
ATOM      1  O   UNL     1      -0.302  12.419  18.325  0.00  0.00    +0.000 OA
ATOM      2  C   UNL     1      -1.104  11.693  18.907  0.00  0.00    +0.000 C 
ATOM      3  N   UNL     1      -2.201  11.134  18.233  0.00  0.00    +0.000 N 
ATOM      4  C   UNL     1      -3.142  10.151  18.735  0.00  0.00    +0.000 C 
ATOM      5  C   UNL     1      -4.222   9.957  17.692  0.00  0.00    +0.000 C 
ATOM      6  C   UNL     1      -5.573  10.430  18.205  0.00  0.00    +0.000 C 
ATOM      7  N   UNL     1      -5.736  11.736  17.615  0.00  0.00    +0.000 N 
ATOM      8  C   UNL     1      -6.230  12.791  18.324  0.00  0.00    +0.000 A 
ATOM      9  N   UNL     1      -6.417  13.959  17.668  0.00  0.00    +0.000 NA
ATOM     10  C   UNL     1      -6.921  14.984  18.357  0.00  0.00    +0.000 A 
ATOM     11  C   UNL     1      -7.243  14.918  19.686  0.00  0.00    +0.000 A 
ATOM     12  C   UNL     1      -7.018  13.704  20.288  0.00  0.00    +0.000 A 
ATOM     13  N   UNL     1      -6.520  12.640  19.622  0.00  0.00    +0.000 NA
ATOM     14  C   UNL     1      -4.867  11.974  16.478  0.00  0.00    +0.000 C 
ATOM     15  C   UNL     1      -3.826  10.851  16.512  0.00  0.00    +0.000 C 
ATOM     16  C   UNL     1      -2.401  11.333  16.810  0.00  0.00    +0.000 C 
ENDROOT
BRANCH   2  17
ATOM     17  C   UNL     1      -0.911  11.379  20.373  0.00  0.00    +0.000 A 
ATOM     18  C   UNL     1      -0.111  10.257  20.669  0.00  0.00    +0.000 A 
ATOM     19  C   UNL     1      -0.043   9.699  21.938  0.00  0.00    +0.000 A 
ATOM     20  C   UNL     1      -0.639  10.361  22.988  0.00  0.00    +0.000 A 
ATOM     21  C   UNL     1      -1.288  11.578  22.753  0.00  0.00    +0.000 A 
ATOM     22  C   UNL     1      -1.446  12.124  21.449  0.00  0.00    +0.000 A 
BRANCH  22  23
ATOM     23  C   UNL     1      -2.137  13.436  21.323  0.00  0.00    +0.000 A 
ATOM     24  C   UNL     1      -3.483  13.760  21.375  0.00  0.00    +0.000 A 
ATOM     25  C   UNL     1      -3.744  15.143  21.128  0.00  0.00    +0.000 A 
ATOM     26  C   UNL     1      -2.588  15.865  20.962  0.00  0.00    +0.000 A 
ATOM     27  S   UNL     1      -1.206  14.872  21.036  0.00  0.00    +0.000 S 
ENDBRANCH  22  23
ENDBRANCH   2  17
BRANCH  12  28
ATOM     28  C   UNL     1      -7.268  13.455  21.717  0.00  0.00    +0.000 A 
ATOM     29  C   UNL     1      -7.428  12.240  22.366  0.00  0.00    +0.000 A 
ATOM     30  C   UNL     1      -7.663  12.381  23.764  0.00  0.00    +0.000 A 
ATOM     31  C   UNL     1      -7.689  13.702  24.148  0.00  0.00    +0.000 A 
ATOM     32  S   UNL     1      -7.430  14.757  22.831  0.00  0.00    +0.000 S 
ENDBRANCH  12  28
TORSDOF 3
ENDMDL
MODEL 3
REMARK VINA RESULT:      -6.5      2.534      4.938
REMARK  Name = 
REMARK  3 active torsions:
REMARK  status: ('A' for Active; 'I' for Inactive)
REMARK    1  A    between atoms: C_2  and  C_3
REMARK    2  A    between atoms: C_8  and  C_9
REMARK    3  A    between atoms: C_23  and  C_24
REMARK                            x       y       z     vdW  Elec       q    Type
REMARK                         _______ _______ _______ _____ _____    ______ ____
ROOT
ATOM      1  O   UNL     1      -0.666  10.865  21.795  0.00  0.00    +0.000 OA
ATOM      2  C   UNL     1      -1.043  12.021  21.625  0.00  0.00    +0.000 C 
ATOM      3  N   UNL     1      -1.932  12.635  22.522  0.00  0.00    +0.000 N 
ATOM      4  C   UNL     1      -2.351  14.024  22.541  0.00  0.00    +0.000 C 
ATOM      5  C   UNL     1      -3.413  14.180  23.608  0.00  0.00    +0.000 C 
ATOM      6  C   UNL     1      -4.756  14.550  22.997  0.00  0.00    +0.000 C 
ATOM      7  N   UNL     1      -5.481  13.304  22.959  0.00  0.00    +0.000 N 
ATOM      8  C   UNL     1      -6.231  12.938  21.881  0.00  0.00    +0.000 A 
ATOM      9  N   UNL     1      -6.936  11.787  21.966  0.00  0.00    +0.000 NA
ATOM     10  C   UNL     1      -7.687  11.441  20.919  0.00  0.00    +0.000 A 
ATOM     11  C   UNL     1      -7.768  12.178  19.768  0.00  0.00    +0.000 A 
ATOM     12  C   UNL     1      -7.018  13.330  19.751  0.00  0.00    +0.000 A 
ATOM     13  N   UNL     1      -6.255  13.719  20.795  0.00  0.00    +0.000 NA
ATOM     14  C   UNL     1      -4.937  12.288  23.840  0.00  0.00    +0.000 C 
ATOM     15  C   UNL     1      -3.556  12.800  24.258  0.00  0.00    +0.000 C 
ATOM     16  C   UNL     1      -2.391  11.960  23.719  0.00  0.00    +0.000 C 
ENDROOT
BRANCH   2  17
ATOM     17  C   UNL     1      -0.541  12.811  20.439  0.00  0.00    +0.000 A 
ATOM     18  C   UNL     1       0.503  13.724  20.696  0.00  0.00    +0.000 A 
ATOM     19  C   UNL     1       0.899  14.687  19.779  0.00  0.00    +0.000 A 
ATOM     20  C   UNL     1       0.377  14.647  18.505  0.00  0.00    +0.000 A 
ATOM     21  C   UNL     1      -0.528  13.637  18.166  0.00  0.00    +0.000 A 
ATOM     22  C   UNL     1      -1.016  12.693  19.112  0.00  0.00    +0.000 A 
BRANCH  22  23
ATOM     23  C   UNL     1      -1.962  11.650  18.632  0.00  0.00    +0.000 A 
ATOM     24  C   UNL     1      -1.729  10.406  18.068  0.00  0.00    +0.000 A 
ATOM     25  C   UNL     1      -2.924   9.732  17.666  0.00  0.00    +0.000 A 
ATOM     26  C   UNL     1      -4.053  10.442  17.995  0.00  0.00    +0.000 A 
ATOM     27  S   UNL     1      -3.671  11.936  18.719  0.00  0.00    +0.000 S 
ENDBRANCH  22  23
ENDBRANCH   2  17
BRANCH  12  28
ATOM     28  C   UNL     1      -6.950  14.229  18.587  0.00  0.00    +0.000 A 
ATOM     29  C   UNL     1      -6.881  15.613  18.571  0.00  0.00    +0.000 A 
ATOM     30  C   UNL     1      -6.834  16.154  17.254  0.00  0.00    +0.000 A 
ATOM     31  C   UNL     1      -6.883  15.169  16.295  0.00  0.00    +0.000 A 
ATOM     32  S   UNL     1      -6.981  13.610  16.982  0.00  0.00    +0.000 S 
ENDBRANCH  12  28
TORSDOF 3
ENDMDL
MODEL 4
REMARK VINA RESULT:      -6.5      2.723      4.921
REMARK  Name = 
REMARK  3 active torsions:
REMARK  status: ('A' for Active; 'I' for Inactive)
REMARK    1  A    between atoms: C_2  and  C_3
REMARK    2  A    between atoms: C_8  and  C_9
REMARK    3  A    between atoms: C_23  and  C_24
REMARK                            x       y       z     vdW  Elec       q    Type
REMARK                         _______ _______ _______ _____ _____    ______ ____
ROOT
ATOM      1  O   UNL     1      -0.641  10.838  21.794  0.00  0.00    +0.000 OA
ATOM      2  C   UNL     1      -1.031  11.988  21.618  0.00  0.00    +0.000 C 
ATOM      3  N   UNL     1      -1.936  12.592  22.506  0.00  0.00    +0.000 N 
ATOM      4  C   UNL     1      -2.374  13.975  22.520  0.00  0.00    +0.000 C 
ATOM      5  C   UNL     1      -3.448  14.118  23.577  0.00  0.00    +0.000 C 
ATOM      6  C   UNL     1      -4.790  14.470  22.954  0.00  0.00    +0.000 C 
ATOM      7  N   UNL     1      -5.498  13.214  22.912  0.00  0.00    +0.000 N 
ATOM      8  C   UNL     1      -6.233  12.836  21.828  0.00  0.00    +0.000 A 
ATOM      9  N   UNL     1      -6.923  11.676  21.908  0.00  0.00    +0.000 NA
ATOM     10  C   UNL     1      -7.661  11.319  20.854  0.00  0.00    +0.000 A 
ATOM     11  C   UNL     1      -7.742  12.053  19.702  0.00  0.00    +0.000 A 
ATOM     12  C   UNL     1      -7.007  13.214  19.690  0.00  0.00    +0.000 A 
ATOM     13  N   UNL     1      -6.258  13.616  20.740  0.00  0.00    +0.000 NA
ATOM     14  C   UNL     1      -4.948  12.206  23.799  0.00  0.00    +0.000 C 
ATOM     15  C   UNL     1      -3.578  12.737  24.228  0.00  0.00    +0.000 C 
ATOM     16  C   UNL     1      -2.397  11.912  23.701  0.00  0.00    +0.000 C 
ENDROOT
BRANCH   2  17
ATOM     17  C   UNL     1      -0.530  12.784  20.436  0.00  0.00    +0.000 A 
ATOM     18  C   UNL     1       0.615  13.578  20.660  0.00  0.00    +0.000 A 
ATOM     19  C   UNL     1       1.045  14.543  19.760  0.00  0.00    +0.000 A 
ATOM     20  C   UNL     1       0.441  14.615  18.524  0.00  0.00    +0.000 A 
ATOM     21  C   UNL     1      -0.580  13.715  18.205  0.00  0.00    +0.000 A 
ATOM     22  C   UNL     1      -1.097  12.777  19.141  0.00  0.00    +0.000 A 
BRANCH  22  23
ATOM     23  C   UNL     1      -2.171  11.856  18.682  0.00  0.00    +0.000 A 
ATOM     24  C   UNL     1      -3.549  11.947  18.786  0.00  0.00    +0.000 A 
ATOM     25  C   UNL     1      -4.235  10.799  18.279  0.00  0.00    +0.000 A 
ATOM     26  C   UNL     1      -3.371   9.882  17.733  0.00  0.00    +0.000 A 
ATOM     27  S   UNL     1      -1.747  10.371  17.890  0.00  0.00    +0.000 S 
ENDBRANCH  22  23
ENDBRANCH   2  17
BRANCH  12  28
ATOM     28  C   UNL     1      -6.941  14.113  18.526  0.00  0.00    +0.000 A 
ATOM     29  C   UNL     1      -6.957  13.783  17.180  0.00  0.00    +0.000 A 
ATOM     30  C   UNL     1      -6.870  14.920  16.325  0.00  0.00    +0.000 A 
ATOM     31  C   UNL     1      -6.775  16.091  17.041  0.00  0.00    +0.000 A 
ATOM     32  S   UNL     1      -6.795  15.817  18.725  0.00  0.00    +0.000 S 
ENDBRANCH  12  28
TORSDOF 3
ENDMDL
MODEL 5
REMARK VINA RESULT:      -6.2      2.772      6.121
REMARK  Name = 
REMARK  3 active torsions:
REMARK  status: ('A' for Active; 'I' for Inactive)
REMARK    1  A    between atoms: C_2  and  C_3
REMARK    2  A    between atoms: C_8  and  C_9
REMARK    3  A    between atoms: C_23  and  C_24
REMARK                            x       y       z     vdW  Elec       q    Type
REMARK                         _______ _______ _______ _____ _____    ______ ____
ROOT
ATOM      1  O   UNL     1      -6.592  13.924  18.162  0.00  0.00    +0.000 OA
ATOM      2  C   UNL     1      -6.302  13.366  19.216  0.00  0.00    +0.000 C 
ATOM      3  N   UNL     1      -5.754  14.084  20.292  0.00  0.00    +0.000 N 
ATOM      4  C   UNL     1      -5.498  13.606  21.637  0.00  0.00    +0.000 C 
ATOM      5  C   UNL     1      -4.783  14.702  22.398  0.00  0.00    +0.000 C 
ATOM      6  C   UNL     1      -3.370  14.280  22.771  0.00  0.00    +0.000 C 
ATOM      7  N   UNL     1      -2.539  14.917  21.779  0.00  0.00    +0.000 N 
ATOM      8  C   UNL     1      -1.494  14.269  21.189  0.00  0.00    +0.000 A 
ATOM      9  N   UNL     1      -0.726  14.970  20.325  0.00  0.00    +0.000 NA
ATOM     10  C   UNL     1       0.310  14.342  19.766  0.00  0.00    +0.000 A 
ATOM     11  C   UNL     1       0.623  13.032  20.010  0.00  0.00    +0.000 A 
ATOM     12  C   UNL     1      -0.207  12.381  20.892  0.00  0.00    +0.000 A 
ATOM     13  N   UNL     1      -1.258  12.986  21.486  0.00  0.00    +0.000 NA
ATOM     14  C   UNL     1      -3.195  16.010  21.086  0.00  0.00    +0.000 C 
ATOM     15  C   UNL     1      -4.681  15.884  21.429  0.00  0.00    +0.000 C 
ATOM     16  C   UNL     1      -5.568  15.521  20.231  0.00  0.00    +0.000 C 
ENDROOT
BRANCH   2  17
ATOM     17  C   UNL     1      -6.544  11.884  19.377  0.00  0.00    +0.000 A 
ATOM     18  C   UNL     1      -7.692  11.516  20.110  0.00  0.00    +0.000 A 
ATOM     19  C   UNL     1      -7.916  10.219  20.551  0.00  0.00    +0.000 A 
ATOM     20  C   UNL     1      -7.079   9.215  20.116  0.00  0.00    +0.000 A 
ATOM     21  C   UNL     1      -6.035   9.524  19.238  0.00  0.00    +0.000 A 
ATOM     22  C   UNL     1      -5.733  10.856  18.843  0.00  0.00    +0.000 A 
BRANCH  22  23
ATOM     23  C   UNL     1      -4.610  11.061  17.888  0.00  0.00    +0.000 A 
ATOM     24  C   UNL     1      -4.562  10.951  16.508  0.00  0.00    +0.000 A 
ATOM     25  C   UNL     1      -3.256  11.158  15.966  0.00  0.00    +0.000 A 
ATOM     26  C   UNL     1      -2.342  11.494  16.935  0.00  0.00    +0.000 A 
ATOM     27  S   UNL     1      -3.040  11.492  18.490  0.00  0.00    +0.000 S 
ENDBRANCH  22  23
ENDBRANCH   2  17
BRANCH  12  28
ATOM     28  C   UNL     1      -0.050  10.961  21.247  0.00  0.00    +0.000 A 
ATOM     29  C   UNL     1      -0.441  10.316  22.409  0.00  0.00    +0.000 A 
ATOM     30  C   UNL     1      -0.121   8.927  22.412  0.00  0.00    +0.000 A 
ATOM     31  C   UNL     1       0.521   8.549  21.255  0.00  0.00    +0.000 A 
ATOM     32  S   UNL     1       0.729   9.858  20.180  0.00  0.00    +0.000 S 
ENDBRANCH  12  28
TORSDOF 3
ENDMDL
MODEL 6
REMARK VINA RESULT:      -6.2      2.652      5.303
REMARK  Name = 
REMARK  3 active torsions:
REMARK  status: ('A' for Active; 'I' for Inactive)
REMARK    1  A    between atoms: C_2  and  C_3
REMARK    2  A    between atoms: C_8  and  C_9
REMARK    3  A    between atoms: C_23  and  C_24
REMARK                            x       y       z     vdW  Elec       q    Type
REMARK                         _______ _______ _______ _____ _____    ______ ____
ROOT
ATOM      1  O   UNL     1      -0.452  11.948  22.175  0.00  0.00    +0.000 OA
ATOM      2  C   UNL     1      -1.019  13.017  21.968  0.00  0.00    +0.000 C 
ATOM      3  N   UNL     1      -2.072  13.451  22.790  0.00  0.00    +0.000 N 
ATOM      4  C   UNL     1      -2.739  14.740  22.767  0.00  0.00    +0.000 C 
ATOM      5  C   UNL     1      -3.891  14.690  23.748  0.00  0.00    +0.000 C 
ATOM      6  C   UNL     1      -5.227  14.813  23.032  0.00  0.00    +0.000 C 
ATOM      7  N   UNL     1      -5.707  13.455  22.948  0.00  0.00    +0.000 N 
ATOM      8  C   UNL     1      -6.291  12.966  21.817  0.00  0.00    +0.000 A 
ATOM      9  N   UNL     1      -6.778  11.705  21.855  0.00  0.00    +0.000 NA
ATOM     10  C   UNL     1      -7.370  11.236  20.755  0.00  0.00    +0.000 A 
ATOM     11  C   UNL     1      -7.496  11.954  19.597  0.00  0.00    +0.000 A 
ATOM     12  C   UNL     1      -6.970  13.224  19.629  0.00  0.00    +0.000 A 
ATOM     13  N   UNL     1      -6.374  13.738  20.727  0.00  0.00    +0.000 NA
ATOM     14  C   UNL     1      -5.055  12.549  23.874  0.00  0.00    +0.000 C 
ATOM     15  C   UNL     1      -3.829  13.302  24.395  0.00  0.00    +0.000 C 
ATOM     16  C   UNL     1      -2.491  12.694  23.953  0.00  0.00    +0.000 C 
ENDROOT
BRANCH   2  17
ATOM     17  C   UNL     1      -0.580  13.895  20.820  0.00  0.00    +0.000 A 
ATOM     18  C   UNL     1      -0.028  15.145  21.167  0.00  0.00    +0.000 A 
ATOM     19  C   UNL     1       0.190  16.152  20.238  0.00  0.00    +0.000 A 
ATOM     20  C   UNL     1       0.026  15.869  18.900  0.00  0.00    +0.000 A 
ATOM     21  C   UNL     1      -0.347  14.578  18.512  0.00  0.00    +0.000 A 
ATOM     22  C   UNL     1      -0.661  13.556  19.449  0.00  0.00    +0.000 A 
BRANCH  22  23
ATOM     23  C   UNL     1      -1.026  12.214  18.920  0.00  0.00    +0.000 A 
ATOM     24  C   UNL     1      -0.239  11.116  18.615  0.00  0.00    +0.000 A 
ATOM     25  C   UNL     1      -0.975  10.029  18.049  0.00  0.00    +0.000 A 
ATOM     26  C   UNL     1      -2.322  10.290  17.996  0.00  0.00    +0.000 A 
ATOM     27  S   UNL     1      -2.686  11.855  18.562  0.00  0.00    +0.000 S 
ENDBRANCH  22  23
ENDBRANCH   2  17
BRANCH  12  28
ATOM     28  C   UNL     1      -6.979  14.129  18.469  0.00  0.00    +0.000 A 
ATOM     29  C   UNL     1      -6.993  13.804  17.122  0.00  0.00    +0.000 A 
ATOM     30  C   UNL     1      -6.992  14.947  16.271  0.00  0.00    +0.000 A 
ATOM     31  C   UNL     1      -6.961  16.119  16.991  0.00  0.00    +0.000 A 
ATOM     32  S   UNL     1      -6.939  15.838  18.674  0.00  0.00    +0.000 S 
ENDBRANCH  12  28
TORSDOF 3
ENDMDL
MODEL 7
REMARK VINA RESULT:      -6.2      2.744      5.092
REMARK  Name = 
REMARK  3 active torsions:
REMARK  status: ('A' for Active; 'I' for Inactive)
REMARK    1  A    between atoms: C_2  and  C_3
REMARK    2  A    between atoms: C_8  and  C_9
REMARK    3  A    between atoms: C_23  and  C_24
REMARK                            x       y       z     vdW  Elec       q    Type
REMARK                         _______ _______ _______ _____ _____    ______ ____
ROOT
ATOM      1  O   UNL     1       2.515  14.847  22.635  0.00  0.00    +0.000 OA
ATOM      2  C   UNL     1       1.869  14.988  21.601  0.00  0.00    +0.000 C 
ATOM      3  N   UNL     1       0.904  16.000  21.479  0.00  0.00    +0.000 N 
ATOM      4  C   UNL     1       0.170  16.386  20.288  0.00  0.00    +0.000 C 
ATOM      5  C   UNL     1      -0.848  17.435  20.682  0.00  0.00    +0.000 C 
ATOM      6  C   UNL     1      -2.267  16.920  20.494  0.00  0.00    +0.000 C 
ATOM      7  N   UNL     1      -2.679  16.533  21.821  0.00  0.00    +0.000 N 
ATOM      8  C   UNL     1      -3.371  15.381  22.054  0.00  0.00    +0.000 A 
ATOM      9  N   UNL     1      -3.780  15.138  23.319  0.00  0.00    +0.000 NA
ATOM     10  C   UNL     1      -4.477  14.022  23.542  0.00  0.00    +0.000 A 
ATOM     11  C   UNL     1      -4.783  13.112  22.566  0.00  0.00    +0.000 A 
ATOM     12  C   UNL     1      -4.326  13.421  21.307  0.00  0.00    +0.000 A 
ATOM     13  N   UNL     1      -3.629  14.547  21.040  0.00  0.00    +0.000 NA
ATOM     14  C   UNL     1      -1.871  17.116  22.875  0.00  0.00    +0.000 C 
ATOM     15  C   UNL     1      -0.632  17.684  22.178  0.00  0.00    +0.000 C 
ATOM     16  C   UNL     1       0.672  16.961  22.539  0.00  0.00    +0.000 C 
ENDROOT
BRANCH   2  17
ATOM     17  C   UNL     1       2.116  14.070  20.426  0.00  0.00    +0.000 A 
ATOM     18  C   UNL     1       3.140  14.458  19.537  0.00  0.00    +0.000 A 
ATOM     19  C   UNL     1       3.319  13.864  18.295  0.00  0.00    +0.000 A 
ATOM     20  C   UNL     1       2.586  12.740  17.984  0.00  0.00    +0.000 A 
ATOM     21  C   UNL     1       1.689  12.224  18.924  0.00  0.00    +0.000 A 
ATOM     22  C   UNL     1       1.424  12.865  20.166  0.00  0.00    +0.000 A 
BRANCH  22  23
ATOM     23  C   UNL     1       0.464  12.211  21.096  0.00  0.00    +0.000 A 
ATOM     24  C   UNL     1      -0.597  12.733  21.817  0.00  0.00    +0.000 A 
ATOM     25  C   UNL     1      -1.233  11.776  22.667  0.00  0.00    +0.000 A 
ATOM     26  C   UNL     1      -0.691  10.522  22.527  0.00  0.00    +0.000 A 
ATOM     27  S   UNL     1       0.614  10.515  21.433  0.00  0.00    +0.000 S 
ENDBRANCH  22  23
ENDBRANCH   2  17
BRANCH  12  28
ATOM     28  C   UNL     1      -4.526  12.546  20.140  0.00  0.00    +0.000 A 
ATOM     29  C   UNL     1      -3.590  12.123  19.210  0.00  0.00    +0.000 A 
ATOM     30  C   UNL     1      -4.145  11.281  18.203  0.00  0.00    +0.000 A 
ATOM     31  C   UNL     1      -5.496  11.092  18.383  0.00  0.00    +0.000 A 
ATOM     32  S   UNL     1      -6.083  11.922  19.754  0.00  0.00    +0.000 S 
ENDBRANCH  12  28
TORSDOF 3
ENDMDL
MODEL 8
REMARK VINA RESULT:      -6.1      2.406      4.514
REMARK  Name = 
REMARK  3 active torsions:
REMARK  status: ('A' for Active; 'I' for Inactive)
REMARK    1  A    between atoms: C_2  and  C_3
REMARK    2  A    between atoms: C_8  and  C_9
REMARK    3  A    between atoms: C_23  and  C_24
REMARK                            x       y       z     vdW  Elec       q    Type
REMARK                         _______ _______ _______ _____ _____    ______ ____
ROOT
ATOM      1  O   UNL     1      -6.485  10.288  18.659  0.00  0.00    +0.000 OA
ATOM      2  C   UNL     1      -5.786  11.208  18.246  0.00  0.00    +0.000 C 
ATOM      3  N   UNL     1      -4.448  10.995  17.877  0.00  0.00    +0.000 N 
ATOM      4  C   UNL     1      -3.544  11.934  17.240  0.00  0.00    +0.000 C 
ATOM      5  C   UNL     1      -2.175  11.291  17.163  0.00  0.00    +0.000 C 
ATOM      6  C   UNL     1      -1.167  12.039  18.022  0.00  0.00    +0.000 C 
ATOM      7  N   UNL     1      -1.078  11.249  19.226  0.00  0.00    +0.000 N 
ATOM      8  C   UNL     1      -1.039  11.821  20.463  0.00  0.00    +0.000 A 
ATOM      9  N   UNL     1      -0.879  11.005  21.529  0.00  0.00    +0.000 NA
ATOM     10  C   UNL     1      -0.818  11.568  22.737  0.00  0.00    +0.000 A 
ATOM     11  C   UNL     1      -0.923  12.915  22.951  0.00  0.00    +0.000 A 
ATOM     12  C   UNL     1      -1.093  13.681  21.822  0.00  0.00    +0.000 A 
ATOM     13  N   UNL     1      -1.147  13.149  20.582  0.00  0.00    +0.000 NA
ATOM     14  C   UNL     1      -1.574   9.894  19.071  0.00  0.00    +0.000 C 
ATOM     15  C   UNL     1      -2.342   9.885  17.747  0.00  0.00    +0.000 C 
ATOM     16  C   UNL     1      -3.853   9.673  17.904  0.00  0.00    +0.000 C 
ENDROOT
BRANCH   2  17
ATOM     17  C   UNL     1      -6.365  12.597  18.117  0.00  0.00    +0.000 A 
ATOM     18  C   UNL     1      -6.977  12.905  16.884  0.00  0.00    +0.000 A 
ATOM     19  C   UNL     1      -7.330  14.198  16.524  0.00  0.00    +0.000 A 
ATOM     20  C   UNL     1      -7.242  15.198  17.468  0.00  0.00    +0.000 A 
ATOM     21  C   UNL     1      -6.808  14.886  18.760  0.00  0.00    +0.000 A 
ATOM     22  C   UNL     1      -6.358  13.588  19.126  0.00  0.00    +0.000 A 
BRANCH  22  23
ATOM     23  C   UNL     1      -5.938  13.368  20.537  0.00  0.00    +0.000 A 
ATOM     24  C   UNL     1      -4.677  13.279  21.104  0.00  0.00    +0.000 A 
ATOM     25  C   UNL     1      -4.702  12.982  22.502  0.00  0.00    +0.000 A 
ATOM     26  C   UNL     1      -5.983  12.919  22.993  0.00  0.00    +0.000 A 
ATOM     27  S   UNL     1      -7.143  13.150  21.767  0.00  0.00    +0.000 S 
ENDBRANCH  22  23
ENDBRANCH   2  17
BRANCH  12  28
ATOM     28  C   UNL     1      -1.262  15.143  21.858  0.00  0.00    +0.000 A 
ATOM     29  C   UNL     1      -2.031  15.900  22.727  0.00  0.00    +0.000 A 
ATOM     30  C   UNL     1      -1.960  17.299  22.461  0.00  0.00    +0.000 A 
ATOM     31  C   UNL     1      -1.147  17.573  21.385  0.00  0.00    +0.000 A 
ATOM     32  S   UNL     1      -0.478  16.156  20.709  0.00  0.00    +0.000 S 
ENDBRANCH  12  28
TORSDOF 3
ENDMDL
MODEL 9
REMARK VINA RESULT:      -6.1      2.950      6.579
REMARK  Name = 
REMARK  3 active torsions:
REMARK  status: ('A' for Active; 'I' for Inactive)
REMARK    1  A    between atoms: C_2  and  C_3
REMARK    2  A    between atoms: C_8  and  C_9
REMARK    3  A    between atoms: C_23  and  C_24
REMARK                            x       y       z     vdW  Elec       q    Type
REMARK                         _______ _______ _______ _____ _____    ______ ____
ROOT
ATOM      1  O   UNL     1       2.446  14.390  17.624  0.00  0.00    +0.000 OA
ATOM      2  C   UNL     1       1.667  14.193  18.552  0.00  0.00    +0.000 C 
ATOM      3  N   UNL     1       1.429  12.897  19.038  0.00  0.00    +0.000 N 
ATOM      4  C   UNL     1       0.660  12.517  20.208  0.00  0.00    +0.000 C 
ATOM      5  C   UNL     1       0.581  11.006  20.249  0.00  0.00    +0.000 C 
ATOM      6  C   UNL     1      -0.851  10.526  20.063  0.00  0.00    +0.000 C 
ATOM      7  N   UNL     1      -0.913  10.136  18.676  0.00  0.00    +0.000 N 
ATOM      8  C   UNL     1      -1.983  10.443  17.889  0.00  0.00    +0.000 A 
ATOM      9  N   UNL     1      -1.988   9.973  16.621  0.00  0.00    +0.000 NA
ATOM     10  C   UNL     1      -3.046  10.254  15.859  0.00  0.00    +0.000 A 
ATOM     11  C   UNL     1      -4.111  11.001  16.286  0.00  0.00    +0.000 A 
ATOM     12  C   UNL     1      -4.032  11.453  17.582  0.00  0.00    +0.000 A 
ATOM     13  N   UNL     1      -2.984  11.179  18.388  0.00  0.00    +0.000 NA
ATOM     14  C   UNL     1       0.388   9.918  18.073  0.00  0.00    +0.000 C 
ATOM     15  C   UNL     1       1.402  10.513  19.053  0.00  0.00    +0.000 C 
ATOM     16  C   UNL     1       2.138  11.747  18.514  0.00  0.00    +0.000 C 
ENDROOT
BRANCH   2  17
ATOM     17  C   UNL     1       0.952  15.357  19.198  0.00  0.00    +0.000 A 
ATOM     18  C   UNL     1      -0.345  15.635  18.719  0.00  0.00    +0.000 A 
ATOM     19  C   UNL     1      -1.024  16.805  19.030  0.00  0.00    +0.000 A 
ATOM     20  C   UNL     1      -0.491  17.650  19.978  0.00  0.00    +0.000 A 
ATOM     21  C   UNL     1       0.710  17.307  20.606  0.00  0.00    +0.000 A 
ATOM     22  C   UNL     1       1.467  16.160  20.241  0.00  0.00    +0.000 A 
BRANCH  22  23
ATOM     23  C   UNL     1       2.721  15.885  20.994  0.00  0.00    +0.000 A 
ATOM     24  C   UNL     1       2.963  15.064  22.082  0.00  0.00    +0.000 A 
ATOM     25  C   UNL     1       4.307  15.138  22.564  0.00  0.00    +0.000 A 
ATOM     26  C   UNL     1       5.087  15.963  21.790  0.00  0.00    +0.000 A 
ATOM     27  S   UNL     1       4.190  16.690  20.538  0.00  0.00    +0.000 S 
ENDBRANCH  22  23
ENDBRANCH   2  17
BRANCH  12  28
ATOM     28  C   UNL     1      -5.063  12.300  18.203  0.00  0.00    +0.000 A 
ATOM     29  C   UNL     1      -6.182  12.867  17.614  0.00  0.00    +0.000 A 
ATOM     30  C   UNL     1      -6.962  13.638  18.525  0.00  0.00    +0.000 A 
ATOM     31  C   UNL     1      -6.410  13.652  19.785  0.00  0.00    +0.000 A 
ATOM     32  S   UNL     1      -4.969  12.741  19.864  0.00  0.00    +0.000 S 
ENDBRANCH  12  28
TORSDOF 3
ENDMDL
