MODEL 1
REMARK VINA RESULT:      -7.8      0.000      0.000
REMARK  Name = 
REMARK  10 active torsions:
REMARK  status: ('A' for Active; 'I' for Inactive)
REMARK    1  A    between atoms: C_1  and  O_2
REMARK    2  A    between atoms: O_2  and  C_3
REMARK    3  A    between atoms: C_6  and  C_7
REMARK    4  A    between atoms: C_7  and  C_8
REMARK    5  A    between atoms: C_8  and  N_9
REMARK    6  A    between atoms: C_10  and  C_12
REMARK    7  A    between atoms: C_12  and  C_13
REMARK    8  A    between atoms: C_16  and  N_17
REMARK    9  A    between atoms: C_30  and  O_31
REMARK   10  A    between atoms: O_31  and  C_32
REMARK                            x       y       z     vdW  Elec       q    Type
REMARK                         _______ _______ _______ _____ _____    ______ ____
ROOT
ATOM      1  C   UNL     1       1.986   8.731  18.616  0.00  0.00    +0.000 A 
ATOM      2  C   UNL     1       1.467   8.383  19.868  0.00  0.00    +0.000 A 
ATOM      3  C   UNL     1       0.774   9.325  20.634  0.00  0.00    +0.000 A 
ATOM      4  C   UNL     1       0.598  10.634  20.170  0.00  0.00    +0.000 A 
ATOM      5  C   UNL     1       1.062  10.942  18.885  0.00  0.00    +0.000 A 
ATOM      6  C   UNL     1       1.760  10.013  18.119  0.00  0.00    +0.000 A 
ENDROOT
BRANCH   4   7
ATOM      7  N   UNL     1       0.016  11.597  21.016  0.00  0.00    +0.000 N 
ATOM      8  C   UNL     1      -1.197  12.177  20.797  0.00  0.00    +0.000 C 
ATOM      9  N   UNL     1      -2.158  11.783  20.017  0.00  0.00    +0.000 NA
ATOM     10  C   UNL     1      -3.177  12.826  20.001  0.00  0.00    +0.000 C 
ATOM     11  C   UNL     1      -4.569  12.367  19.620  0.00  0.00    +0.000 C 
ATOM     12  S   UNL     1      -5.622  13.573  20.445  0.00  0.00    +0.000 S 
ATOM     13  O   UNL     1      -6.235  14.437  19.458  0.00  0.00    +0.000 OA
ATOM     14  O   UNL     1      -6.393  12.884  21.459  0.00  0.00    +0.000 OA
ATOM     15  C   UNL     1      -4.302  14.488  21.277  0.00  0.00    +0.000 C 
ATOM     16  C   UNL     1      -3.271  13.398  21.408  0.00  0.00    +0.000 C 
ATOM     17  S   UNL     1      -1.521  13.664  21.723  0.00  0.00    +0.000 S 
ATOM     18  H   UNL     1       0.668  12.154  21.554  0.00  0.00    +0.000 HD
ENDBRANCH   4   7
BRANCH   1  19
ATOM     19  C   UNL     1       2.731   7.728  17.782  0.00  0.00    +0.000 C 
BRANCH  19  21
ATOM     20  N   UNL     1       3.744   5.937  19.166  0.00  0.00    +0.000 N 
ATOM     21  C   UNL     1       2.716   6.310  18.312  0.00  0.00    +0.000 C 
ATOM     22  O   UNL     1       1.855   5.514  17.931  0.00  0.00    +0.000 OA
ATOM     23  H   UNL     1       4.203   6.660  19.707  0.00  0.00    +0.000 HD
BRANCH  20  24
ATOM     24  C   UNL     1       3.699   4.593  19.692  0.00  0.00    +0.000 C 
BRANCH  24  25
ATOM     25  C   UNL     1       4.829   3.644  19.273  0.00  0.00    +0.000 C 
BRANCH  25  29
ATOM     26  C   UNL     1       6.456   4.521  15.327  0.00  0.00    +0.000 A 
ATOM     27  C   UNL     1       5.178   4.004  15.462  0.00  0.00    +0.000 A 
ATOM     28  C   UNL     1       4.665   3.718  16.724  0.00  0.00    +0.000 A 
ATOM     29  C   UNL     1       5.405   3.965  17.896  0.00  0.00    +0.000 A 
ATOM     30  C   UNL     1       6.696   4.515  17.757  0.00  0.00    +0.000 A 
ATOM     31  C   UNL     1       7.209   4.783  16.474  0.00  0.00    +0.000 A 
BRANCH  26  33
ATOM     32  C   UNL     1       6.348   3.837  13.056  0.00  0.00    +0.000 C 
ATOM     33  O   UNL     1       6.837   4.742  14.034  0.00  0.00    +0.000 OA
ENDBRANCH  26  33
BRANCH  30  34
ATOM     34  O   UNL     1       7.382   4.764  18.923  0.00  0.00    +0.000 OA
ATOM     35  C   UNL     1       7.885   6.085  19.103  0.00  0.00    +0.000 C 
ENDBRANCH  30  34
ENDBRANCH  25  29
ENDBRANCH  24  25
ENDBRANCH  20  24
ENDBRANCH  19  21
ENDBRANCH   1  19
TORSDOF 8
ENDMDL
MODEL 2
REMARK VINA RESULT:      -7.6      3.793     10.772
REMARK  Name = 
REMARK  10 active torsions:
REMARK  status: ('A' for Active; 'I' for Inactive)
REMARK    1  A    between atoms: C_1  and  O_2
REMARK    2  A    between atoms: O_2  and  C_3
REMARK    3  A    between atoms: C_6  and  C_7
REMARK    4  A    between atoms: C_7  and  C_8
REMARK    5  A    between atoms: C_8  and  N_9
REMARK    6  A    between atoms: C_10  and  C_12
REMARK    7  A    between atoms: C_12  and  C_13
REMARK    8  A    between atoms: C_16  and  N_17
REMARK    9  A    between atoms: C_30  and  O_31
REMARK   10  A    between atoms: O_31  and  C_32
REMARK                            x       y       z     vdW  Elec       q    Type
REMARK                         _______ _______ _______ _____ _____    ______ ____
ROOT
ATOM      1  C   UNL     1      -0.150  10.007  22.072  0.00  0.00    +0.000 A 
ATOM      2  C   UNL     1       0.702   8.930  22.341  0.00  0.00    +0.000 A 
ATOM      3  C   UNL     1       1.452   8.348  21.315  0.00  0.00    +0.000 A 
ATOM      4  C   UNL     1       1.356   8.822  20.002  0.00  0.00    +0.000 A 
ATOM      5  C   UNL     1       0.554   9.946  19.766  0.00  0.00    +0.000 A 
ATOM      6  C   UNL     1      -0.203  10.526  20.780  0.00  0.00    +0.000 A 
ENDROOT
BRANCH   4   7
ATOM      7  N   UNL     1       2.018   8.134  18.967  0.00  0.00    +0.000 N 
ATOM      8  C   UNL     1       2.582   6.901  19.104  0.00  0.00    +0.000 C 
ATOM      9  N   UNL     1       2.379   6.012  20.029  0.00  0.00    +0.000 NA
ATOM     10  C   UNL     1       3.340   4.932  19.830  0.00  0.00    +0.000 C 
ATOM     11  C   UNL     1       2.945   3.596  20.421  0.00  0.00    +0.000 C 
ATOM     12  S   UNL     1       3.825   2.425  19.373  0.00  0.00    +0.000 S 
ATOM     13  O   UNL     1       4.902   1.817  20.126  0.00  0.00    +0.000 OA
ATOM     14  O   UNL     1       2.847   1.642  18.646  0.00  0.00    +0.000 OA
ATOM     15  C   UNL     1       4.529   3.636  18.230  0.00  0.00    +0.000 C 
ATOM     16  C   UNL     1       3.492   4.724  18.330  0.00  0.00    +0.000 C 
ATOM     17  S   UNL     1       3.736   6.434  17.830  0.00  0.00    +0.000 S 
ATOM     18  H   UNL     1       2.431   8.718  18.252  0.00  0.00    +0.000 HD
ENDBRANCH   4   7
BRANCH   1  19
ATOM     19  C   UNL     1      -0.961  10.643  23.165  0.00  0.00    +0.000 C 
BRANCH  19  21
ATOM     20  N   UNL     1      -2.914  11.895  22.289  0.00  0.00    +0.000 N 
ATOM     21  C   UNL     1      -1.624  11.954  22.797  0.00  0.00    +0.000 C 
ATOM     22  O   UNL     1      -0.998  13.012  22.886  0.00  0.00    +0.000 OA
ATOM     23  H   UNL     1      -3.494  11.104  22.545  0.00  0.00    +0.000 HD
BRANCH  20  24
ATOM     24  C   UNL     1      -3.548  13.153  21.974  0.00  0.00    +0.000 C 
BRANCH  24  25
ATOM     25  C   UNL     1      -4.527  13.162  20.793  0.00  0.00    +0.000 C 
BRANCH  25  29
ATOM     26  C   UNL     1      -2.960  11.152  17.259  0.00  0.00    +0.000 A 
ATOM     27  C   UNL     1      -2.122  11.893  18.076  0.00  0.00    +0.000 A 
ATOM     28  C   UNL     1      -2.628  12.539  19.200  0.00  0.00    +0.000 A 
ATOM     29  C   UNL     1      -3.987  12.445  19.558  0.00  0.00    +0.000 A 
ATOM     30  C   UNL     1      -4.832  11.670  18.739  0.00  0.00    +0.000 A 
ATOM     31  C   UNL     1      -4.311  11.036  17.596  0.00  0.00    +0.000 A 
BRANCH  26  33
ATOM     32  C   UNL     1      -3.120  10.375  15.021  0.00  0.00    +0.000 C 
ATOM     33  O   UNL     1      -2.336  10.582  16.185  0.00  0.00    +0.000 OA
ENDBRANCH  26  33
BRANCH  30  34
ATOM     34  O   UNL     1      -6.148  11.581  19.130  0.00  0.00    +0.000 OA
ATOM     35  C   UNL     1      -7.129  12.012  18.190  0.00  0.00    +0.000 C 
ENDBRANCH  30  34
ENDBRANCH  25  29
ENDBRANCH  24  25
ENDBRANCH  20  24
ENDBRANCH  19  21
ENDBRANCH   1  19
TORSDOF 8
ENDMDL
MODEL 3
REMARK VINA RESULT:      -7.6      3.504      4.185
REMARK  Name = 
REMARK  10 active torsions:
REMARK  status: ('A' for Active; 'I' for Inactive)
REMARK    1  A    between atoms: C_1  and  O_2
REMARK    2  A    between atoms: O_2  and  C_3
REMARK    3  A    between atoms: C_6  and  C_7
REMARK    4  A    between atoms: C_7  and  C_8
REMARK    5  A    between atoms: C_8  and  N_9
REMARK    6  A    between atoms: C_10  and  C_12
REMARK    7  A    between atoms: C_12  and  C_13
REMARK    8  A    between atoms: C_16  and  N_17
REMARK    9  A    between atoms: C_30  and  O_31
REMARK   10  A    between atoms: O_31  and  C_32
REMARK                            x       y       z     vdW  Elec       q    Type
REMARK                         _______ _______ _______ _____ _____    ______ ____
ROOT
ATOM      1  C   UNL     1       1.879   7.673  19.885  0.00  0.00    +0.000 A 
ATOM      2  C   UNL     1       2.229   8.133  18.610  0.00  0.00    +0.000 A 
ATOM      3  C   UNL     1       1.802   9.388  18.168  0.00  0.00    +0.000 A 
ATOM      4  C   UNL     1       1.007  10.201  18.985  0.00  0.00    +0.000 A 
ATOM      5  C   UNL     1       0.728   9.755  20.284  0.00  0.00    +0.000 A 
ATOM      6  C   UNL     1       1.143   8.503  20.729  0.00  0.00    +0.000 A 
ENDROOT
BRANCH   4   7
ATOM      7  N   UNL     1       0.480  11.399  18.467  0.00  0.00    +0.000 N 
ATOM      8  C   UNL     1       0.862  12.644  18.870  0.00  0.00    +0.000 C 
ATOM      9  N   UNL     1       1.930  12.995  19.522  0.00  0.00    +0.000 NA
ATOM     10  C   UNL     1       1.801  14.408  19.860  0.00  0.00    +0.000 C 
ATOM     11  C   UNL     1       3.105  15.133  20.121  0.00  0.00    +0.000 C 
ATOM     12  S   UNL     1       2.699  16.837  19.702  0.00  0.00    +0.000 S 
ATOM     13  O   UNL     1       2.653  17.634  20.910  0.00  0.00    +0.000 OA
ATOM     14  O   UNL     1       3.485  17.221  18.548  0.00  0.00    +0.000 OA
ATOM     15  C   UNL     1       1.007  16.531  19.145  0.00  0.00    +0.000 C 
ATOM     16  C   UNL     1       1.137  15.104  18.682  0.00  0.00    +0.000 C 
ATOM     17  S   UNL     1      -0.236  13.972  18.421  0.00  0.00    +0.000 S 
ATOM     18  H   UNL     1      -0.462  11.337  18.101  0.00  0.00    +0.000 HD
ENDBRANCH   4   7
BRANCH   1  19
ATOM     19  C   UNL     1       2.333   6.327  20.374  0.00  0.00    +0.000 C 
BRANCH  19  21
ATOM     20  N   UNL     1       3.214   4.994  18.477  0.00  0.00    +0.000 N 
ATOM     21  C   UNL     1       2.179   5.195  19.380  0.00  0.00    +0.000 C 
ATOM     22  O   UNL     1       1.138   4.537  19.344  0.00  0.00    +0.000 OA
ATOM     23  H   UNL     1       4.145   5.295  18.742  0.00  0.00    +0.000 HD
BRANCH  20  24
ATOM     24  C   UNL     1       3.072   3.891  17.557  0.00  0.00    +0.000 C 
BRANCH  24  25
ATOM     25  C   UNL     1       4.324   3.050  17.281  0.00  0.00    +0.000 C 
BRANCH  25  29
ATOM     26  C   UNL     1       7.299   5.095  14.841  0.00  0.00    +0.000 A 
ATOM     27  C   UNL     1       6.351   4.275  14.253  0.00  0.00    +0.000 A 
ATOM     28  C   UNL     1       5.407   3.617  15.036  0.00  0.00    +0.000 A 
ATOM     29  C   UNL     1       5.365   3.780  16.435  0.00  0.00    +0.000 A 
ATOM     30  C   UNL     1       6.315   4.635  17.028  0.00  0.00    +0.000 A 
ATOM     31  C   UNL     1       7.275   5.280  16.225  0.00  0.00    +0.000 A 
BRANCH  26  33
ATOM     32  C   UNL     1       7.926   5.443  12.578  0.00  0.00    +0.000 C 
ATOM     33  O   UNL     1       8.171   5.667  13.957  0.00  0.00    +0.000 OA
ENDBRANCH  26  33
BRANCH  30  34
ATOM     34  O   UNL     1       6.232   4.788  18.392  0.00  0.00    +0.000 OA
ATOM     35  C   UNL     1       7.245   5.574  19.015  0.00  0.00    +0.000 C 
ENDBRANCH  30  34
ENDBRANCH  25  29
ENDBRANCH  24  25
ENDBRANCH  20  24
ENDBRANCH  19  21
ENDBRANCH   1  19
TORSDOF 8
ENDMDL
MODEL 4
REMARK VINA RESULT:      -7.5      3.701     11.034
REMARK  Name = 
REMARK  10 active torsions:
REMARK  status: ('A' for Active; 'I' for Inactive)
REMARK    1  A    between atoms: C_1  and  O_2
REMARK    2  A    between atoms: O_2  and  C_3
REMARK    3  A    between atoms: C_6  and  C_7
REMARK    4  A    between atoms: C_7  and  C_8
REMARK    5  A    between atoms: C_8  and  N_9
REMARK    6  A    between atoms: C_10  and  C_12
REMARK    7  A    between atoms: C_12  and  C_13
REMARK    8  A    between atoms: C_16  and  N_17
REMARK    9  A    between atoms: C_30  and  O_31
REMARK   10  A    between atoms: O_31  and  C_32
REMARK                            x       y       z     vdW  Elec       q    Type
REMARK                         _______ _______ _______ _____ _____    ______ ____
ROOT
ATOM      1  C   UNL     1      -0.316  10.047  22.167  0.00  0.00    +0.000 A 
ATOM      2  C   UNL     1      -0.616  10.211  20.810  0.00  0.00    +0.000 A 
ATOM      3  C   UNL     1       0.122   9.532  19.836  0.00  0.00    +0.000 A 
ATOM      4  C   UNL     1       1.180   8.690  20.197  0.00  0.00    +0.000 A 
ATOM      5  C   UNL     1       1.417   8.484  21.563  0.00  0.00    +0.000 A 
ATOM      6  C   UNL     1       0.693   9.162  22.539  0.00  0.00    +0.000 A 
ENDROOT
BRANCH   4   7
ATOM      7  N   UNL     1       1.990   8.126  19.194  0.00  0.00    +0.000 N 
ATOM      8  C   UNL     1       2.573   6.897  19.279  0.00  0.00    +0.000 C 
ATOM      9  N   UNL     1       2.283   5.913  20.077  0.00  0.00    +0.000 NA
ATOM     10  C   UNL     1       3.297   4.880  19.897  0.00  0.00    +0.000 C 
ATOM     11  C   UNL     1       2.874   3.481  20.296  0.00  0.00    +0.000 C 
ATOM     12  S   UNL     1       3.918   2.442  19.259  0.00  0.00    +0.000 S 
ATOM     13  O   UNL     1       4.910   1.782  20.081  0.00  0.00    +0.000 OA
ATOM     14  O   UNL     1       3.067   1.720  18.337  0.00  0.00    +0.000 OA
ATOM     15  C   UNL     1       4.721   3.779  18.344  0.00  0.00    +0.000 C 
ATOM     16  C   UNL     1       3.645   4.830  18.417  0.00  0.00    +0.000 C 
ATOM     17  S   UNL     1       3.894   6.587  18.125  0.00  0.00    +0.000 S 
ATOM     18  H   UNL     1       2.471   8.789  18.600  0.00  0.00    +0.000 HD
ENDBRANCH   4   7
BRANCH   1  19
ATOM     19  C   UNL     1      -1.102  10.769  23.225  0.00  0.00    +0.000 C 
BRANCH  19  21
ATOM     20  N   UNL     1      -2.747  12.548  22.700  0.00  0.00    +0.000 N 
ATOM     21  C   UNL     1      -1.417  12.218  22.919  0.00  0.00    +0.000 C 
ATOM     22  O   UNL     1      -0.507  13.040  22.803  0.00  0.00    +0.000 OA
ATOM     23  H   UNL     1      -3.461  11.967  23.124  0.00  0.00    +0.000 HD
BRANCH  20  24
ATOM     24  C   UNL     1      -3.040  13.938  22.442  0.00  0.00    +0.000 C 
BRANCH  24  25
ATOM     25  C   UNL     1      -3.917  14.250  21.224  0.00  0.00    +0.000 C 
BRANCH  25  29
ATOM     26  C   UNL     1      -3.777  11.156  18.159  0.00  0.00    +0.000 A 
ATOM     27  C   UNL     1      -2.618  11.798  18.564  0.00  0.00    +0.000 A 
ATOM     28  C   UNL     1      -2.668  12.791  19.538  0.00  0.00    +0.000 A 
ATOM     29  C   UNL     1      -3.878  13.157  20.158  0.00  0.00    +0.000 A 
ATOM     30  C   UNL     1      -5.052  12.485  19.763  0.00  0.00    +0.000 A 
ATOM     31  C   UNL     1      -4.990  11.495  18.764  0.00  0.00    +0.000 A 
BRANCH  26  33
ATOM     32  C   UNL     1      -2.247   9.963  16.791  0.00  0.00    +0.000 C 
ATOM     33  O   UNL     1      -3.586  10.213  17.189  0.00  0.00    +0.000 OA
ENDBRANCH  26  33
BRANCH  30  34
ATOM     34  O   UNL     1      -6.212  12.852  20.405  0.00  0.00    +0.000 OA
ATOM     35  C   UNL     1      -6.956  11.812  21.033  0.00  0.00    +0.000 C 
ENDBRANCH  30  34
ENDBRANCH  25  29
ENDBRANCH  24  25
ENDBRANCH  20  24
ENDBRANCH  19  21
ENDBRANCH   1  19
TORSDOF 8
ENDMDL
MODEL 5
REMARK VINA RESULT:      -7.4      5.930      9.293
REMARK  Name = 
REMARK  10 active torsions:
REMARK  status: ('A' for Active; 'I' for Inactive)
REMARK    1  A    between atoms: C_1  and  O_2
REMARK    2  A    between atoms: O_2  and  C_3
REMARK    3  A    between atoms: C_6  and  C_7
REMARK    4  A    between atoms: C_7  and  C_8
REMARK    5  A    between atoms: C_8  and  N_9
REMARK    6  A    between atoms: C_10  and  C_12
REMARK    7  A    between atoms: C_12  and  C_13
REMARK    8  A    between atoms: C_16  and  N_17
REMARK    9  A    between atoms: C_30  and  O_31
REMARK   10  A    between atoms: O_31  and  C_32
REMARK                            x       y       z     vdW  Elec       q    Type
REMARK                         _______ _______ _______ _____ _____    ______ ____
ROOT
ATOM      1  C   UNL     1       2.470  13.953  18.781  0.00  0.00    +0.000 A 
ATOM      2  C   UNL     1       3.124  14.062  20.014  0.00  0.00    +0.000 A 
ATOM      3  C   UNL     1       4.344  14.738  20.110  0.00  0.00    +0.000 A 
ATOM      4  C   UNL     1       4.940  15.304  18.977  0.00  0.00    +0.000 A 
ATOM      5  C   UNL     1       4.235  15.246  17.767  0.00  0.00    +0.000 A 
ATOM      6  C   UNL     1       3.024  14.568  17.661  0.00  0.00    +0.000 A 
ENDROOT
BRANCH   4   7
ATOM      7  N   UNL     1       6.229  15.859  19.076  0.00  0.00    +0.000 N 
ATOM      8  C   UNL     1       7.384  15.154  18.909  0.00  0.00    +0.000 C 
ATOM      9  N   UNL     1       7.554  13.995  18.348  0.00  0.00    +0.000 NA
ATOM     10  C   UNL     1       8.939  13.593  18.565  0.00  0.00    +0.000 C 
ATOM     11  C   UNL     1       9.485  12.586  17.574  0.00  0.00    +0.000 C 
ATOM     12  S   UNL     1      11.253  12.926  17.600  0.00  0.00    +0.000 S 
ATOM     13  O   UNL     1      11.947  11.834  18.251  0.00  0.00    +0.000 OA
ATOM     14  O   UNL     1      11.639  13.423  16.295  0.00  0.00    +0.000 OA
ATOM     15  C   UNL     1      11.192  14.332  18.734  0.00  0.00    +0.000 C 
ATOM     16  C   UNL     1       9.803  14.840  18.448  0.00  0.00    +0.000 C 
ATOM     17  S   UNL     1       8.862  15.937  19.518  0.00  0.00    +0.000 S 
ATOM     18  H   UNL     1       6.307  16.674  19.671  0.00  0.00    +0.000 HD
ENDBRANCH   4   7
BRANCH   1  19
ATOM     19  C   UNL     1       1.158  13.231  18.664  0.00  0.00    +0.000 C 
BRANCH  19  21
ATOM     20  N   UNL     1       1.288  10.859  17.954  0.00  0.00    +0.000 N 
ATOM     21  C   UNL     1       1.199  11.757  19.008  0.00  0.00    +0.000 C 
ATOM     22  O   UNL     1       1.086  11.389  20.178  0.00  0.00    +0.000 OA
ATOM     23  H   UNL     1       1.711  11.176  17.089  0.00  0.00    +0.000 HD
BRANCH  20  24
ATOM     24  C   UNL     1       1.361   9.458  18.295  0.00  0.00    +0.000 C 
BRANCH  24  25
ATOM     25  C   UNL     1       2.689   8.744  18.016  0.00  0.00    +0.000 C 
BRANCH  25  29
ATOM     26  C   UNL     1       2.846   4.726  19.696  0.00  0.00    +0.000 A 
ATOM     27  C   UNL     1       2.017   5.688  20.250  0.00  0.00    +0.000 A 
ATOM     28  C   UNL     1       1.975   6.972  19.715  0.00  0.00    +0.000 A 
ATOM     29  C   UNL     1       2.744   7.330  18.590  0.00  0.00    +0.000 A 
ATOM     30  C   UNL     1       3.568   6.342  18.014  0.00  0.00    +0.000 A 
ATOM     31  C   UNL     1       3.613   5.052  18.576  0.00  0.00    +0.000 A 
BRANCH  26  33
ATOM     32  C   UNL     1       2.223   3.488  21.624  0.00  0.00    +0.000 C 
ATOM     33  O   UNL     1       2.797   3.515  20.327  0.00  0.00    +0.000 OA
ENDBRANCH  26  33
BRANCH  30  34
ATOM     34  O   UNL     1       4.287   6.718  16.904  0.00  0.00    +0.000 OA
ATOM     35  C   UNL     1       5.702   6.805  17.054  0.00  0.00    +0.000 C 
ENDBRANCH  30  34
ENDBRANCH  25  29
ENDBRANCH  24  25
ENDBRANCH  20  24
ENDBRANCH  19  21
ENDBRANCH   1  19
TORSDOF 8
ENDMDL
MODEL 6
REMARK VINA RESULT:      -7.3      1.877      2.360
REMARK  Name = 
REMARK  10 active torsions:
REMARK  status: ('A' for Active; 'I' for Inactive)
REMARK    1  A    between atoms: C_1  and  O_2
REMARK    2  A    between atoms: O_2  and  C_3
REMARK    3  A    between atoms: C_6  and  C_7
REMARK    4  A    between atoms: C_7  and  C_8
REMARK    5  A    between atoms: C_8  and  N_9
REMARK    6  A    between atoms: C_10  and  C_12
REMARK    7  A    between atoms: C_12  and  C_13
REMARK    8  A    between atoms: C_16  and  N_17
REMARK    9  A    between atoms: C_30  and  O_31
REMARK   10  A    between atoms: O_31  and  C_32
REMARK                            x       y       z     vdW  Elec       q    Type
REMARK                         _______ _______ _______ _____ _____    ______ ____
ROOT
ATOM      1  C   UNL     1       1.516   9.713  18.166  0.00  0.00    +0.000 A 
ATOM      2  C   UNL     1       0.200   9.388  17.820  0.00  0.00    +0.000 A 
ATOM      3  C   UNL     1      -0.831  10.312  18.012  0.00  0.00    +0.000 A 
ATOM      4  C   UNL     1      -0.569  11.571  18.565  0.00  0.00    +0.000 A 
ATOM      5  C   UNL     1       0.764  11.903  18.838  0.00  0.00    +0.000 A 
ATOM      6  C   UNL     1       1.795  10.986  18.658  0.00  0.00    +0.000 A 
ENDROOT
BRANCH   4   7
ATOM      7  N   UNL     1      -1.642  12.429  18.872  0.00  0.00    +0.000 N 
ATOM      8  C   UNL     1      -2.297  12.442  20.067  0.00  0.00    +0.000 C 
ATOM      9  N   UNL     1      -1.917  11.950  21.208  0.00  0.00    +0.000 NA
ATOM     10  C   UNL     1      -3.033  12.068  22.139  0.00  0.00    +0.000 C 
ATOM     11  C   UNL     1      -2.657  12.068  23.606  0.00  0.00    +0.000 C 
ATOM     12  S   UNL     1      -4.007  12.992  24.360  0.00  0.00    +0.000 S 
ATOM     13  O   UNL     1      -4.831  12.094  25.140  0.00  0.00    +0.000 OA
ATOM     14  O   UNL     1      -3.467  14.221  24.904  0.00  0.00    +0.000 OA
ATOM     15  C   UNL     1      -4.879  13.399  22.829  0.00  0.00    +0.000 C 
ATOM     16  C   UNL     1      -3.725  13.394  21.861  0.00  0.00    +0.000 C 
ATOM     17  S   UNL     1      -3.876  13.266  20.073  0.00  0.00    +0.000 S 
ATOM     18  H   UNL     1      -2.188  12.742  18.079  0.00  0.00    +0.000 HD
ENDBRANCH   4   7
BRANCH   1  19
ATOM     19  C   UNL     1       2.634   8.730  17.964  0.00  0.00    +0.000 C 
BRANCH  19  21
ATOM     20  N   UNL     1       2.847   6.911  19.636  0.00  0.00    +0.000 N 
ATOM     21  C   UNL     1       2.337   7.314  18.410  0.00  0.00    +0.000 C 
ATOM     22  O   UNL     1       1.725   6.544  17.667  0.00  0.00    +0.000 OA
ATOM     23  H   UNL     1       3.027   7.622  20.337  0.00  0.00    +0.000 HD
BRANCH  20  24
ATOM     24  C   UNL     1       2.528   5.571  20.066  0.00  0.00    +0.000 C 
BRANCH  24  25
ATOM     25  C   UNL     1       3.681   4.561  20.109  0.00  0.00    +0.000 C 
BRANCH  25  29
ATOM     26  C   UNL     1       5.641   4.013  16.256  0.00  0.00    +0.000 A 
ATOM     27  C   UNL     1       4.298   3.711  16.411  0.00  0.00    +0.000 A 
ATOM     28  C   UNL     1       3.678   3.881  17.645  0.00  0.00    +0.000 A 
ATOM     29  C   UNL     1       4.376   4.383  18.761  0.00  0.00    +0.000 A 
ATOM     30  C   UNL     1       5.736   4.712  18.594  0.00  0.00    +0.000 A 
ATOM     31  C   UNL     1       6.355   4.520  17.344  0.00  0.00    +0.000 A 
BRANCH  26  33
ATOM     32  C   UNL     1       6.969   4.786  14.446  0.00  0.00    +0.000 C 
ATOM     33  O   UNL     1       6.124   3.788  14.998  0.00  0.00    +0.000 OA
ENDBRANCH  26  33
BRANCH  30  34
ATOM     34  O   UNL     1       6.381   5.220  19.697  0.00  0.00    +0.000 OA
ATOM     35  C   UNL     1       7.665   5.801  19.481  0.00  0.00    +0.000 C 
ENDBRANCH  30  34
ENDBRANCH  25  29
ENDBRANCH  24  25
ENDBRANCH  20  24
ENDBRANCH  19  21
ENDBRANCH   1  19
TORSDOF 8
ENDMDL
MODEL 7
REMARK VINA RESULT:      -7.3      5.835     10.722
REMARK  Name = 
REMARK  10 active torsions:
REMARK  status: ('A' for Active; 'I' for Inactive)
REMARK    1  A    between atoms: C_1  and  O_2
REMARK    2  A    between atoms: O_2  and  C_3
REMARK    3  A    between atoms: C_6  and  C_7
REMARK    4  A    between atoms: C_7  and  C_8
REMARK    5  A    between atoms: C_8  and  N_9
REMARK    6  A    between atoms: C_10  and  C_12
REMARK    7  A    between atoms: C_12  and  C_13
REMARK    8  A    between atoms: C_16  and  N_17
REMARK    9  A    between atoms: C_30  and  O_31
REMARK   10  A    between atoms: O_31  and  C_32
REMARK                            x       y       z     vdW  Elec       q    Type
REMARK                         _______ _______ _______ _____ _____    ______ ____
ROOT
ATOM      1  C   UNL     1       0.905  10.325  20.200  0.00  0.00    +0.000 A 
ATOM      2  C   UNL     1       1.138   9.342  21.168  0.00  0.00    +0.000 A 
ATOM      3  C   UNL     1       1.589   8.073  20.794  0.00  0.00    +0.000 A 
ATOM      4  C   UNL     1       1.803   7.758  19.447  0.00  0.00    +0.000 A 
ATOM      5  C   UNL     1       1.633   8.777  18.500  0.00  0.00    +0.000 A 
ATOM      6  C   UNL     1       1.176  10.041  18.863  0.00  0.00    +0.000 A 
ENDROOT
BRANCH   4   7
ATOM      7  N   UNL     1       2.127   6.436  19.088  0.00  0.00    +0.000 N 
ATOM      8  C   UNL     1       3.164   6.096  18.272  0.00  0.00    +0.000 C 
ATOM      9  N   UNL     1       4.197   6.805  17.931  0.00  0.00    +0.000 NA
ATOM     10  C   UNL     1       4.932   6.063  16.912  0.00  0.00    +0.000 C 
ATOM     11  C   UNL     1       6.396   6.425  16.777  0.00  0.00    +0.000 C 
ATOM     12  S   UNL     1       7.118   4.908  16.125  0.00  0.00    +0.000 S 
ATOM     13  O   UNL     1       7.508   5.113  14.746  0.00  0.00    +0.000 OA
ATOM     14  O   UNL     1       8.025   4.374  17.118  0.00  0.00    +0.000 OA
ATOM     15  C   UNL     1       5.609   3.913  16.158  0.00  0.00    +0.000 C 
ATOM     16  C   UNL     1       4.873   4.590  17.285  0.00  0.00    +0.000 C 
ATOM     17  S   UNL     1       3.108   4.447  17.600  0.00  0.00    +0.000 S 
ATOM     18  H   UNL     1       1.355   5.782  19.097  0.00  0.00    +0.000 HD
ENDBRANCH   4   7
BRANCH   1  19
ATOM     19  C   UNL     1       0.421  11.694  20.588  0.00  0.00    +0.000 C 
BRANCH  19  21
ATOM     20  N   UNL     1       1.965  13.336  19.554  0.00  0.00    +0.000 N 
ATOM     21  C   UNL     1       0.692  12.785  19.573  0.00  0.00    +0.000 C 
ATOM     22  O   UNL     1      -0.217  13.201  18.852  0.00  0.00    +0.000 OA
ATOM     23  H   UNL     1       2.737  12.769  19.886  0.00  0.00    +0.000 HD
BRANCH  20  24
ATOM     24  C   UNL     1       2.221  14.350  18.559  0.00  0.00    +0.000 C 
BRANCH  24  25
ATOM     25  C   UNL     1       2.883  15.647  19.042  0.00  0.00    +0.000 C 
BRANCH  25  29
ATOM     26  C   UNL     1       7.148  15.792  18.164  0.00  0.00    +0.000 A 
ATOM     27  C   UNL     1       6.386  14.704  17.771  0.00  0.00    +0.000 A 
ATOM     28  C   UNL     1       5.025  14.658  18.060  0.00  0.00    +0.000 A 
ATOM     29  C   UNL     1       4.376  15.713  18.730  0.00  0.00    +0.000 A 
ATOM     30  C   UNL     1       5.149  16.830  19.107  0.00  0.00    +0.000 A 
ATOM     31  C   UNL     1       6.528  16.855  18.823  0.00  0.00    +0.000 A 
BRANCH  26  33
ATOM     32  C   UNL     1       9.411  16.100  18.810  0.00  0.00    +0.000 C 
ATOM     33  O   UNL     1       8.469  15.701  17.827  0.00  0.00    +0.000 OA
ENDBRANCH  26  33
BRANCH  30  34
ATOM     34  O   UNL     1       4.479  17.851  19.739  0.00  0.00    +0.000 OA
ATOM     35  C   UNL     1       4.955  18.231  21.028  0.00  0.00    +0.000 C 
ENDBRANCH  30  34
ENDBRANCH  25  29
ENDBRANCH  24  25
ENDBRANCH  20  24
ENDBRANCH  19  21
ENDBRANCH   1  19
TORSDOF 8
ENDMDL
MODEL 8
REMARK VINA RESULT:      -7.2      3.772     10.579
REMARK  Name = 
REMARK  10 active torsions:
REMARK  status: ('A' for Active; 'I' for Inactive)
REMARK    1  A    between atoms: C_1  and  O_2
REMARK    2  A    between atoms: O_2  and  C_3
REMARK    3  A    between atoms: C_6  and  C_7
REMARK    4  A    between atoms: C_7  and  C_8
REMARK    5  A    between atoms: C_8  and  N_9
REMARK    6  A    between atoms: C_10  and  C_12
REMARK    7  A    between atoms: C_12  and  C_13
REMARK    8  A    between atoms: C_16  and  N_17
REMARK    9  A    between atoms: C_30  and  O_31
REMARK   10  A    between atoms: O_31  and  C_32
REMARK                            x       y       z     vdW  Elec       q    Type
REMARK                         _______ _______ _______ _____ _____    ______ ____
ROOT
ATOM      1  C   UNL     1      -0.336  10.111  22.145  0.00  0.00    +0.000 A 
ATOM      2  C   UNL     1      -0.697  10.179  20.795  0.00  0.00    +0.000 A 
ATOM      3  C   UNL     1       0.035   9.480  19.830  0.00  0.00    +0.000 A 
ATOM      4  C   UNL     1       1.147   8.712  20.194  0.00  0.00    +0.000 A 
ATOM      5  C   UNL     1       1.449   8.598  21.558  0.00  0.00    +0.000 A 
ATOM      6  C   UNL     1       0.730   9.297  22.523  0.00  0.00    +0.000 A 
ENDROOT
BRANCH   4   7
ATOM      7  N   UNL     1       1.944   8.128  19.191  0.00  0.00    +0.000 N 
ATOM      8  C   UNL     1       2.533   6.904  19.295  0.00  0.00    +0.000 C 
ATOM      9  N   UNL     1       2.260   5.937  20.119  0.00  0.00    +0.000 NA
ATOM     10  C   UNL     1       3.275   4.904  19.946  0.00  0.00    +0.000 C 
ATOM     11  C   UNL     1       2.864   3.513  20.383  0.00  0.00    +0.000 C 
ATOM     12  S   UNL     1       3.897   2.455  19.354  0.00  0.00    +0.000 S 
ATOM     13  O   UNL     1       4.904   1.817  20.174  0.00  0.00    +0.000 OA
ATOM     14  O   UNL     1       3.035   1.709  18.461  0.00  0.00    +0.000 OA
ATOM     15  C   UNL     1       4.680   3.774  18.396  0.00  0.00    +0.000 C 
ATOM     16  C   UNL     1       3.600   4.822  18.462  0.00  0.00    +0.000 C 
ATOM     17  S   UNL     1       3.838   6.573  18.128  0.00  0.00    +0.000 S 
ATOM     18  H   UNL     1       2.413   8.780  18.575  0.00  0.00    +0.000 HD
ENDBRANCH   4   7
BRANCH   1  19
ATOM     19  C   UNL     1      -1.114  10.855  23.192  0.00  0.00    +0.000 C 
BRANCH  19  21
ATOM     20  N   UNL     1      -0.223  12.930  22.168  0.00  0.00    +0.000 N 
ATOM     21  C   UNL     1      -1.165  12.358  23.011  0.00  0.00    +0.000 C 
ATOM     22  O   UNL     1      -1.973  13.033  23.651  0.00  0.00    +0.000 OA
ATOM     23  H   UNL     1       0.170  12.357  21.429  0.00  0.00    +0.000 HD
BRANCH  20  24
ATOM     24  C   UNL     1      -0.303  14.359  21.975  0.00  0.00    +0.000 C 
BRANCH  24  25
ATOM     25  C   UNL     1      -1.173  14.857  20.814  0.00  0.00    +0.000 C 
BRANCH  25  29
ATOM     26  C   UNL     1      -2.091  11.770  17.880  0.00  0.00    +0.000 A 
ATOM     27  C   UNL     1      -0.869  12.422  17.855  0.00  0.00    +0.000 A 
ATOM     28  C   UNL     1      -0.583  13.412  18.790  0.00  0.00    +0.000 A 
ATOM     29  C   UNL     1      -1.501  13.766  19.798  0.00  0.00    +0.000 A 
ATOM     30  C   UNL     1      -2.733  13.083  19.835  0.00  0.00    +0.000 A 
ATOM     31  C   UNL     1      -3.017  12.095  18.873  0.00  0.00    +0.000 A 
BRANCH  26  33
ATOM     32  C   UNL     1      -3.559  10.619  16.412  0.00  0.00    +0.000 C 
ATOM     33  O   UNL     1      -2.244  10.830  16.899  0.00  0.00    +0.000 OA
ENDBRANCH  26  33
BRANCH  30  34
ATOM     34  O   UNL     1      -3.597  13.437  20.845  0.00  0.00    +0.000 OA
ATOM     35  C   UNL     1      -4.747  12.615  21.027  0.00  0.00    +0.000 C 
ENDBRANCH  30  34
ENDBRANCH  25  29
ENDBRANCH  24  25
ENDBRANCH  20  24
ENDBRANCH  19  21
ENDBRANCH   1  19
TORSDOF 8
ENDMDL
MODEL 9
REMARK VINA RESULT:      -7.2      6.337      8.907
REMARK  Name = 
REMARK  10 active torsions:
REMARK  status: ('A' for Active; 'I' for Inactive)
REMARK    1  A    between atoms: C_1  and  O_2
REMARK    2  A    between atoms: O_2  and  C_3
REMARK    3  A    between atoms: C_6  and  C_7
REMARK    4  A    between atoms: C_7  and  C_8
REMARK    5  A    between atoms: C_8  and  N_9
REMARK    6  A    between atoms: C_10  and  C_12
REMARK    7  A    between atoms: C_12  and  C_13
REMARK    8  A    between atoms: C_16  and  N_17
REMARK    9  A    between atoms: C_30  and  O_31
REMARK   10  A    between atoms: O_31  and  C_32
REMARK                            x       y       z     vdW  Elec       q    Type
REMARK                         _______ _______ _______ _____ _____    ______ ____
ROOT
ATOM      1  C   UNL     1       8.598   9.144  18.506  0.00  0.00    +0.000 A 
ATOM      2  C   UNL     1       9.426   9.731  19.469  0.00  0.00    +0.000 A 
ATOM      3  C   UNL     1       9.735  11.093  19.402  0.00  0.00    +0.000 A 
ATOM      4  C   UNL     1       9.235  11.889  18.365  0.00  0.00    +0.000 A 
ATOM      5  C   UNL     1       8.351  11.299  17.452  0.00  0.00    +0.000 A 
ATOM      6  C   UNL     1       8.044   9.943  17.508  0.00  0.00    +0.000 A 
ENDROOT
BRANCH   4   7
ATOM      7  N   UNL     1       9.669  13.223  18.244  0.00  0.00    +0.000 N 
ATOM      8  C   UNL     1       8.929  14.307  18.611  0.00  0.00    +0.000 C 
ATOM      9  N   UNL     1       7.888  14.356  19.387  0.00  0.00    +0.000 NA
ATOM     10  C   UNL     1       7.356  15.713  19.335  0.00  0.00    +0.000 C 
ATOM     11  C   UNL     1       6.519  16.127  20.527  0.00  0.00    +0.000 C 
ATOM     12  S   UNL     1       6.723  17.917  20.549  0.00  0.00    +0.000 S 
ATOM     13  O   UNL     1       5.481  18.550  20.156  0.00  0.00    +0.000 OA
ATOM     14  O   UNL     1       7.430  18.278  21.760  0.00  0.00    +0.000 OA
ATOM     15  C   UNL     1       7.889  18.024  19.172  0.00  0.00    +0.000 C 
ATOM     16  C   UNL     1       8.538  16.668  19.272  0.00  0.00    +0.000 C 
ATOM     17  S   UNL     1       9.476  15.872  17.960  0.00  0.00    +0.000 S 
ATOM     18  H   UNL     1      10.349  13.394  17.514  0.00  0.00    +0.000 HD
ENDBRANCH   4   7
BRANCH   1  19
ATOM     19  C   UNL     1       8.256   7.682  18.567  0.00  0.00    +0.000 C 
BRANCH  19  21
ATOM     20  N   UNL     1       5.932   7.137  17.897  0.00  0.00    +0.000 N 
ATOM     21  C   UNL     1       7.266   7.208  17.524  0.00  0.00    +0.000 C 
ATOM     22  O   UNL     1       7.661   6.836  16.417  0.00  0.00    +0.000 OA
ATOM     23  H   UNL     1       5.610   7.744  18.642  0.00  0.00    +0.000 HD
BRANCH  20  24
ATOM     24  C   UNL     1       4.993   6.716  16.884  0.00  0.00    +0.000 C 
BRANCH  24  25
ATOM     25  C   UNL     1       3.662   6.130  17.370  0.00  0.00    +0.000 C 
BRANCH  25  29
ATOM     26  C   UNL     1       1.342   8.966  19.728  0.00  0.00    +0.000 A 
ATOM     27  C   UNL     1       1.642   9.233  18.403  0.00  0.00    +0.000 A 
ATOM     28  C   UNL     1       2.389   8.328  17.655  0.00  0.00    +0.000 A 
ATOM     29  C   UNL     1       2.840   7.112  18.203  0.00  0.00    +0.000 A 
ATOM     30  C   UNL     1       2.512   6.831  19.545  0.00  0.00    +0.000 A 
ATOM     31  C   UNL     1       1.770   7.763  20.294  0.00  0.00    +0.000 A 
BRANCH  26  33
ATOM     32  C   UNL     1      -0.592  10.343  19.713  0.00  0.00    +0.000 C 
ATOM     33  O   UNL     1       0.614   9.944  20.346  0.00  0.00    +0.000 OA
ENDBRANCH  26  33
BRANCH  30  34
ATOM     34  O   UNL     1       2.949   5.625  20.041  0.00  0.00    +0.000 OA
ATOM     35  C   UNL     1       1.947   4.687  20.427  0.00  0.00    +0.000 C 
ENDBRANCH  30  34
ENDBRANCH  25  29
ENDBRANCH  24  25
ENDBRANCH  20  24
ENDBRANCH  19  21
ENDBRANCH   1  19
TORSDOF 8
ENDMDL
