MODEL 1
REMARK VINA RESULT:      -8.3      0.000      0.000
REMARK  Name = 
REMARK  7 active torsions:
REMARK  status: ('A' for Active; 'I' for Inactive)
REMARK    1  A    between atoms: C_1  and  C_2
REMARK    2  A    between atoms: C_5  and  C_7
REMARK    3  A    between atoms: C_12  and  S_13
REMARK    4  A    between atoms: S_13  and  N_16
REMARK    5  A    between atoms: N_16  and  C_17
REMARK    6  A    between atoms: C_17  and  C_18
REMARK    7  A    between atoms: C_25  and  C_26
REMARK                            x       y       z     vdW  Elec       q    Type
REMARK                         _______ _______ _______ _____ _____    ______ ____
ROOT
ATOM      1  C   UNL     1       3.058   6.408  18.356  0.00  0.00    +0.000 A 
ATOM      2  C   UNL     1       2.859   5.854  19.622  0.00  0.00    +0.000 A 
ATOM      3  C   UNL     1       2.130   6.568  20.575  0.00  0.00    +0.000 A 
ATOM      4  C   UNL     1       1.617   7.848  20.292  0.00  0.00    +0.000 A 
ATOM      5 CL   UNL     1       0.745   8.605  21.570  0.00  0.00    +0.000 Cl
ATOM      6  C   UNL     1       1.801   8.398  19.026  0.00  0.00    +0.000 A 
ATOM      7  C   UNL     1       2.484   7.649  18.059  0.00  0.00    +0.000 A 
ENDROOT
BRANCH   1  12
ATOM      8  C   UNL     1       7.160   4.237  17.176  0.00  0.00    +0.000 C 
ATOM      9  C   UNL     1       7.050   5.274  16.059  0.00  0.00    +0.000 C 
ATOM     10  C   UNL     1       5.591   5.504  15.616  0.00  0.00    +0.000 C 
ATOM     11  N   UNL     1       4.858   6.264  16.632  0.00  0.00    +0.000 N 
ATOM     12  C   UNL     1       3.837   5.628  17.345  0.00  0.00    +0.000 C 
ATOM     13  O   UNL     1       3.534   4.458  17.175  0.00  0.00    +0.000 OA
ATOM     14  C   UNL     1       5.545   7.507  16.992  0.00  0.00    +0.000 C 
ATOM     15  C   UNL     1       6.981   7.239  17.435  0.00  0.00    +0.000 C 
ATOM     16  C   UNL     1       7.678   8.567  17.700  0.00  0.00    +0.000 C 
ATOM     17  O   UNL     1       7.697   6.511  16.429  0.00  0.00    +0.000 OA
ENDBRANCH   1  12
BRANCH   6  18
ATOM     18  S   UNL     1       1.372  10.068  18.570  0.00  0.00    +0.000 S 
ATOM     19  O   UNL     1       1.253  10.895  19.748  0.00  0.00    +0.000 OA
ATOM     20  O   UNL     1       2.290  10.437  17.513  0.00  0.00    +0.000 OA
BRANCH  18  21
ATOM     21  N   UNL     1      -0.143   9.912  17.850  0.00  0.00    +0.000 NA
ATOM     22  H   UNL     1      -0.429   8.943  17.678  0.00  0.00    +0.000 HD
BRANCH  21  23
ATOM     23  C   UNL     1      -1.220  10.706  18.451  0.00  0.00    +0.000 C 
BRANCH  23  24
ATOM     24  C   UNL     1      -2.333  10.826  17.470  0.00  0.00    +0.000 A 
ATOM     25  C   UNL     1      -3.613  11.338  17.544  0.00  0.00    +0.000 A 
ATOM     26  C   UNL     1      -4.199  11.143  16.270  0.00  0.00    +0.000 A 
ATOM     27  C   UNL     1      -3.242  10.522  15.501  0.00  0.00    +0.000 A 
ATOM     28  O   UNL     1      -2.107  10.321  16.221  0.00  0.00    +0.000 OA
ENDBRANCH  23  24
ENDBRANCH  21  23
ENDBRANCH  18  21
ENDBRANCH   6  18
TORSDOF 5
ENDMDL
MODEL 2
REMARK VINA RESULT:      -7.8      2.925      8.215
REMARK  Name = 
REMARK  7 active torsions:
REMARK  status: ('A' for Active; 'I' for Inactive)
REMARK    1  A    between atoms: C_1  and  C_2
REMARK    2  A    between atoms: C_5  and  C_7
REMARK    3  A    between atoms: C_12  and  S_13
REMARK    4  A    between atoms: S_13  and  N_16
REMARK    5  A    between atoms: N_16  and  C_17
REMARK    6  A    between atoms: C_17  and  C_18
REMARK    7  A    between atoms: C_25  and  C_26
REMARK                            x       y       z     vdW  Elec       q    Type
REMARK                         _______ _______ _______ _____ _____    ______ ____
ROOT
ATOM      1  C   UNL     1       2.366   8.045  18.507  0.00  0.00    +0.000 A 
ATOM      2  C   UNL     1       2.045   7.166  19.543  0.00  0.00    +0.000 A 
ATOM      3  C   UNL     1       2.786   5.993  19.700  0.00  0.00    +0.000 A 
ATOM      4  C   UNL     1       3.832   5.667  18.816  0.00  0.00    +0.000 A 
ATOM      5 CL   UNL     1       4.648   4.184  19.136  0.00  0.00    +0.000 Cl
ATOM      6  C   UNL     1       4.165   6.548  17.790  0.00  0.00    +0.000 A 
ATOM      7  C   UNL     1       3.453   7.750  17.677  0.00  0.00    +0.000 A 
ENDROOT
BRANCH   1  12
ATOM      8  C   UNL     1       1.407  12.472  20.065  0.00  0.00    +0.000 C 
ATOM      9  C   UNL     1       0.042  11.806  20.225  0.00  0.00    +0.000 C 
ATOM     10  C   UNL     1      -0.251  10.791  19.101  0.00  0.00    +0.000 C 
ATOM     11  N   UNL     1       0.555   9.580  19.279  0.00  0.00    +0.000 N 
ATOM     12  C   UNL     1       1.566   9.299  18.355  0.00  0.00    +0.000 C 
ATOM     13  O   UNL     1       1.826  10.027  17.410  0.00  0.00    +0.000 OA
ATOM     14  C   UNL     1       0.398   9.005  20.618  0.00  0.00    +0.000 C 
ATOM     15  C   UNL     1       0.705  10.034  21.702  0.00  0.00    +0.000 C 
ATOM     16  C   UNL     1       0.430   9.419  23.068  0.00  0.00    +0.000 C 
ATOM     17  O   UNL     1      -0.099  11.209  21.533  0.00  0.00    +0.000 OA
ENDBRANCH   1  12
BRANCH   6  18
ATOM     18  S   UNL     1       5.335   6.200  16.490  0.00  0.00    +0.000 S 
ATOM     19  O   UNL     1       5.122   7.091  15.373  0.00  0.00    +0.000 OA
ATOM     20  O   UNL     1       6.631   6.136  17.132  0.00  0.00    +0.000 OA
BRANCH  18  21
ATOM     21  N   UNL     1       4.959   4.626  16.021  0.00  0.00    +0.000 NA
ATOM     22  H   UNL     1       4.210   4.563  15.324  0.00  0.00    +0.000 HD
BRANCH  21  23
ATOM     23  C   UNL     1       6.103   3.771  15.682  0.00  0.00    +0.000 C 
BRANCH  23  24
ATOM     24  C   UNL     1       6.546   4.091  14.298  0.00  0.00    +0.000 A 
ATOM     25  C   UNL     1       6.178   3.624  13.052  0.00  0.00    +0.000 A 
ATOM     26  C   UNL     1       6.984   4.310  12.111  0.00  0.00    +0.000 A 
ATOM     27  C   UNL     1       7.794   5.147  12.842  0.00  0.00    +0.000 A 
ATOM     28  O   UNL     1       7.540   5.020  14.171  0.00  0.00    +0.000 OA
ENDBRANCH  23  24
ENDBRANCH  21  23
ENDBRANCH  18  21
ENDBRANCH   6  18
TORSDOF 5
ENDMDL
MODEL 3
REMARK VINA RESULT:      -7.7      3.445      4.828
REMARK  Name = 
REMARK  7 active torsions:
REMARK  status: ('A' for Active; 'I' for Inactive)
REMARK    1  A    between atoms: C_1  and  C_2
REMARK    2  A    between atoms: C_5  and  C_7
REMARK    3  A    between atoms: C_12  and  S_13
REMARK    4  A    between atoms: S_13  and  N_16
REMARK    5  A    between atoms: N_16  and  C_17
REMARK    6  A    between atoms: C_17  and  C_18
REMARK    7  A    between atoms: C_25  and  C_26
REMARK                            x       y       z     vdW  Elec       q    Type
REMARK                         _______ _______ _______ _____ _____    ______ ____
ROOT
ATOM      1  C   UNL     1       2.450   7.796  18.764  0.00  0.00    +0.000 A 
ATOM      2  C   UNL     1       1.942   8.458  17.644  0.00  0.00    +0.000 A 
ATOM      3  C   UNL     1       0.946   9.422  17.811  0.00  0.00    +0.000 A 
ATOM      4  C   UNL     1       0.423   9.717  19.085  0.00  0.00    +0.000 A 
ATOM      5 CL   UNL     1      -0.805  10.924  19.128  0.00  0.00    +0.000 Cl
ATOM      6  C   UNL     1       0.936   9.070  20.205  0.00  0.00    +0.000 A 
ATOM      7  C   UNL     1       1.976   8.147  20.033  0.00  0.00    +0.000 A 
ENDROOT
BRANCH   1  12
ATOM      8  C   UNL     1       3.657   3.418  17.245  0.00  0.00    +0.000 C 
ATOM      9  C   UNL     1       4.067   3.338  18.714  0.00  0.00    +0.000 C 
ATOM     10  C   UNL     1       4.632   4.674  19.238  0.00  0.00    +0.000 C 
ATOM     11  N   UNL     1       3.558   5.655  19.411  0.00  0.00    +0.000 N 
ATOM     12  C   UNL     1       3.520   6.770  18.569  0.00  0.00    +0.000 C 
ATOM     13  O   UNL     1       4.333   6.961  17.678  0.00  0.00    +0.000 OA
ATOM     14  C   UNL     1       2.466   5.137  20.239  0.00  0.00    +0.000 C 
ATOM     15  C   UNL     1       1.926   3.821  19.685  0.00  0.00    +0.000 C 
ATOM     16  C   UNL     1       0.867   3.276  20.634  0.00  0.00    +0.000 C 
ATOM     17  O   UNL     1       2.979   2.860  19.536  0.00  0.00    +0.000 OA
ENDBRANCH   1  12
BRANCH   6  18
ATOM     18  S   UNL     1       0.264   9.201  21.853  0.00  0.00    +0.000 S 
ATOM     19  O   UNL     1      -0.743   8.189  22.064  0.00  0.00    +0.000 OA
ATOM     20  O   UNL     1       1.406   9.288  22.739  0.00  0.00    +0.000 OA
BRANCH  18  21
ATOM     21  N   UNL     1      -0.466  10.719  21.869  0.00  0.00    +0.000 NA
ATOM     22  H   UNL     1      -1.017  10.930  21.032  0.00  0.00    +0.000 HD
BRANCH  21  23
ATOM     23  C   UNL     1      -1.180  11.070  23.103  0.00  0.00    +0.000 C 
BRANCH  23  24
ATOM     24  C   UNL     1      -2.359  11.908  22.752  0.00  0.00    +0.000 A 
ATOM     25  C   UNL     1      -2.670  12.701  21.666  0.00  0.00    +0.000 A 
ATOM     26  C   UNL     1      -3.945  13.261  21.929  0.00  0.00    +0.000 A 
ATOM     27  C   UNL     1      -4.327  12.777  23.158  0.00  0.00    +0.000 A 
ATOM     28  O   UNL     1      -3.371  11.958  23.669  0.00  0.00    +0.000 OA
ENDBRANCH  23  24
ENDBRANCH  21  23
ENDBRANCH  18  21
ENDBRANCH   6  18
TORSDOF 5
ENDMDL
MODEL 4
REMARK VINA RESULT:      -7.6      2.386      3.555
REMARK  Name = 
REMARK  7 active torsions:
REMARK  status: ('A' for Active; 'I' for Inactive)
REMARK    1  A    between atoms: C_1  and  C_2
REMARK    2  A    between atoms: C_5  and  C_7
REMARK    3  A    between atoms: C_12  and  S_13
REMARK    4  A    between atoms: S_13  and  N_16
REMARK    5  A    between atoms: N_16  and  C_17
REMARK    6  A    between atoms: C_17  and  C_18
REMARK    7  A    between atoms: C_25  and  C_26
REMARK                            x       y       z     vdW  Elec       q    Type
REMARK                         _______ _______ _______ _____ _____    ______ ____
ROOT
ATOM      1  C   UNL     1       2.321   7.250  19.435  0.00  0.00    +0.000 A 
ATOM      2  C   UNL     1       1.728   6.965  20.667  0.00  0.00    +0.000 A 
ATOM      3  C   UNL     1       0.925   7.930  21.280  0.00  0.00    +0.000 A 
ATOM      4  C   UNL     1       0.728   9.194  20.692  0.00  0.00    +0.000 A 
ATOM      5 CL   UNL     1      -0.282  10.278  21.571  0.00  0.00    +0.000 Cl
ATOM      6  C   UNL     1       1.306   9.476  19.458  0.00  0.00    +0.000 A 
ATOM      7  C   UNL     1       2.062   8.481  18.824  0.00  0.00    +0.000 A 
ENDROOT
BRANCH   1  12
ATOM      8  C   UNL     1       2.604   2.940  17.365  0.00  0.00    +0.000 C 
ATOM      9  C   UNL     1       3.547   2.754  18.552  0.00  0.00    +0.000 C 
ATOM     10  C   UNL     1       4.343   4.034  18.874  0.00  0.00    +0.000 C 
ATOM     11  N   UNL     1       3.475   5.037  19.498  0.00  0.00    +0.000 N 
ATOM     12  C   UNL     1       3.174   6.204  18.790  0.00  0.00    +0.000 C 
ATOM     13  O   UNL     1       3.586   6.425  17.663  0.00  0.00    +0.000 OA
ATOM     14  C   UNL     1       2.764   4.502  20.663  0.00  0.00    +0.000 C 
ATOM     15  C   UNL     1       1.981   3.243  20.304  0.00  0.00    +0.000 C 
ATOM     16  C   UNL     1       1.345   2.672  21.565  0.00  0.00    +0.000 C 
ATOM     17  O   UNL     1       2.839   2.259  19.710  0.00  0.00    +0.000 OA
ENDBRANCH   1  12
BRANCH   6  18
ATOM     18  S   UNL     1       1.299  11.078  18.673  0.00  0.00    +0.000 S 
ATOM     19  O   UNL     1       1.610  12.109  19.635  0.00  0.00    +0.000 OA
ATOM     20  O   UNL     1       2.099  10.935  17.476  0.00  0.00    +0.000 OA
BRANCH  18  21
ATOM     21  N   UNL     1      -0.295  11.266  18.159  0.00  0.00    +0.000 NA
ATOM     22  H   UNL     1      -0.428  12.008  17.464  0.00  0.00    +0.000 HD
BRANCH  21  23
ATOM     23  C   UNL     1      -0.995  10.030  17.789  0.00  0.00    +0.000 C 
BRANCH  23  24
ATOM     24  C   UNL     1      -2.217  10.385  17.015  0.00  0.00    +0.000 A 
ATOM     25  C   UNL     1      -2.601  10.184  15.704  0.00  0.00    +0.000 A 
ATOM     26  C   UNL     1      -3.881  10.775  15.566  0.00  0.00    +0.000 A 
ATOM     27  C   UNL     1      -4.193  11.302  16.798  0.00  0.00    +0.000 A 
ATOM     28  O   UNL     1      -3.188  11.074  17.684  0.00  0.00    +0.000 OA
ENDBRANCH  23  24
ENDBRANCH  21  23
ENDBRANCH  18  21
ENDBRANCH   6  18
TORSDOF 5
ENDMDL
MODEL 5
REMARK VINA RESULT:      -7.6      3.457      5.118
REMARK  Name = 
REMARK  7 active torsions:
REMARK  status: ('A' for Active; 'I' for Inactive)
REMARK    1  A    between atoms: C_1  and  C_2
REMARK    2  A    between atoms: C_5  and  C_7
REMARK    3  A    between atoms: C_12  and  S_13
REMARK    4  A    between atoms: S_13  and  N_16
REMARK    5  A    between atoms: N_16  and  C_17
REMARK    6  A    between atoms: C_17  and  C_18
REMARK    7  A    between atoms: C_25  and  C_26
REMARK                            x       y       z     vdW  Elec       q    Type
REMARK                         _______ _______ _______ _____ _____    ______ ____
ROOT
ATOM      1  C   UNL     1       2.339   7.952  18.749  0.00  0.00    +0.000 A 
ATOM      2  C   UNL     1       1.668   8.514  17.661  0.00  0.00    +0.000 A 
ATOM      3  C   UNL     1       0.653   9.446  17.889  0.00  0.00    +0.000 A 
ATOM      4  C   UNL     1       0.275   9.807  19.197  0.00  0.00    +0.000 A 
ATOM      5 CL   UNL     1      -0.995  10.964  19.316  0.00  0.00    +0.000 Cl
ATOM      6  C   UNL     1       0.952   9.260  20.284  0.00  0.00    +0.000 A 
ATOM      7  C   UNL     1       2.007   8.370  20.042  0.00  0.00    +0.000 A 
ENDROOT
BRANCH   1  12
ATOM      8  C   UNL     1       3.602   3.660  17.041  0.00  0.00    +0.000 C 
ATOM      9  C   UNL     1       4.055   3.538  18.495  0.00  0.00    +0.000 C 
ATOM     10  C   UNL     1       4.604   4.867  19.050  0.00  0.00    +0.000 C 
ATOM     11  N   UNL     1       3.513   5.816  19.287  0.00  0.00    +0.000 N 
ATOM     12  C   UNL     1       3.426   6.959  18.487  0.00  0.00    +0.000 C 
ATOM     13  O   UNL     1       4.209   7.200  17.582  0.00  0.00    +0.000 OA
ATOM     14  C   UNL     1       2.458   5.243  20.127  0.00  0.00    +0.000 C 
ATOM     15  C   UNL     1       1.932   3.936  19.541  0.00  0.00    +0.000 C 
ATOM     16  C   UNL     1       0.913   3.333  20.499  0.00  0.00    +0.000 C 
ATOM     17  O   UNL     1       3.002   3.005  19.328  0.00  0.00    +0.000 OA
ENDBRANCH   1  12
BRANCH   6  18
ATOM     18  S   UNL     1       0.480   9.477  21.990  0.00  0.00    +0.000 S 
ATOM     19  O   UNL     1      -0.741   8.756  22.267  0.00  0.00    +0.000 OA
ATOM     20  O   UNL     1       1.672   9.212  22.766  0.00  0.00    +0.000 OA
BRANCH  18  21
ATOM     21  N   UNL     1       0.186  11.131  22.119  0.00  0.00    +0.000 NA
ATOM     22  H   UNL     1       0.289  11.646  21.239  0.00  0.00    +0.000 HD
BRANCH  21  23
ATOM     23  C   UNL     1      -1.036  11.507  22.839  0.00  0.00    +0.000 C 
BRANCH  23  24
ATOM     24  C   UNL     1      -1.054  12.985  23.013  0.00  0.00    +0.000 A 
ATOM     25  C   UNL     1      -1.980  13.869  23.530  0.00  0.00    +0.000 A 
ATOM     26  C   UNL     1      -1.418  15.163  23.400  0.00  0.00    +0.000 A 
ATOM     27  C   UNL     1      -0.189  14.987  22.808  0.00  0.00    +0.000 A 
ATOM     28  O   UNL     1       0.041  13.669  22.565  0.00  0.00    +0.000 OA
ENDBRANCH  23  24
ENDBRANCH  21  23
ENDBRANCH  18  21
ENDBRANCH   6  18
TORSDOF 5
ENDMDL
MODEL 6
REMARK VINA RESULT:      -7.6      2.626      7.884
REMARK  Name = 
REMARK  7 active torsions:
REMARK  status: ('A' for Active; 'I' for Inactive)
REMARK    1  A    between atoms: C_1  and  C_2
REMARK    2  A    between atoms: C_5  and  C_7
REMARK    3  A    between atoms: C_12  and  S_13
REMARK    4  A    between atoms: S_13  and  N_16
REMARK    5  A    between atoms: N_16  and  C_17
REMARK    6  A    between atoms: C_17  and  C_18
REMARK    7  A    between atoms: C_25  and  C_26
REMARK                            x       y       z     vdW  Elec       q    Type
REMARK                         _______ _______ _______ _____ _____    ______ ____
ROOT
ATOM      1  C   UNL     1       1.950   7.842  19.121  0.00  0.00    +0.000 A 
ATOM      2  C   UNL     1       1.479   7.485  20.387  0.00  0.00    +0.000 A 
ATOM      3  C   UNL     1       1.781   6.221  20.898  0.00  0.00    +0.000 A 
ATOM      4  C   UNL     1       2.525   5.290  20.149  0.00  0.00    +0.000 A 
ATOM      5 CL   UNL     1       2.810   3.772  20.912  0.00  0.00    +0.000 Cl
ATOM      6  C   UNL     1       3.008   5.647  18.893  0.00  0.00    +0.000 A 
ATOM      7  C   UNL     1       2.750   6.938  18.413  0.00  0.00    +0.000 A 
ENDROOT
BRANCH   1  12
ATOM      8  C   UNL     1       1.995  12.586  19.780  0.00  0.00    +0.000 C 
ATOM      9  C   UNL     1       0.498  12.331  19.611  0.00  0.00    +0.000 C 
ATOM     10  C   UNL     1       0.206  11.220  18.582  0.00  0.00    +0.000 C 
ATOM     11  N   UNL     1       0.545   9.905  19.135  0.00  0.00    +0.000 N 
ATOM     12  C   UNL     1       1.622   9.201  18.590  0.00  0.00    +0.000 C 
ATOM     13  O   UNL     1       2.313   9.636  17.682  0.00  0.00    +0.000 OA
ATOM     14  C   UNL     1      -0.103   9.667  20.427  0.00  0.00    +0.000 C 
ATOM     15  C   UNL     1       0.217  10.780  21.421  0.00  0.00    +0.000 C 
ATOM     16  C   UNL     1      -0.558  10.539  22.709  0.00  0.00    +0.000 C 
ATOM     17  O   UNL     1      -0.134  12.062  20.882  0.00  0.00    +0.000 OA
ENDBRANCH   1  12
BRANCH   6  18
ATOM     18  S   UNL     1       3.807   4.530  17.755  0.00  0.00    +0.000 S 
ATOM     19  O   UNL     1       4.823   3.762  18.436  0.00  0.00    +0.000 OA
ATOM     20  O   UNL     1       2.739   3.856  17.047  0.00  0.00    +0.000 OA
BRANCH  18  21
ATOM     21  N   UNL     1       4.544   5.554  16.638  0.00  0.00    +0.000 NA
ATOM     22  H   UNL     1       4.391   6.551  16.817  0.00  0.00    +0.000 HD
BRANCH  21  23
ATOM     23  C   UNL     1       5.949   5.257  16.331  0.00  0.00    +0.000 C 
BRANCH  23  24
ATOM     24  C   UNL     1       6.816   6.165  17.130  0.00  0.00    +0.000 A 
ATOM     25  C   UNL     1       7.568   5.994  18.276  0.00  0.00    +0.000 A 
ATOM     26  C   UNL     1       8.161   7.249  18.558  0.00  0.00    +0.000 A 
ATOM     27  C   UNL     1       7.731   8.105  17.571  0.00  0.00    +0.000 A 
ATOM     28  O   UNL     1       6.910   7.459  16.701  0.00  0.00    +0.000 OA
ENDBRANCH  23  24
ENDBRANCH  21  23
ENDBRANCH  18  21
ENDBRANCH   6  18
TORSDOF 5
ENDMDL
MODEL 7
REMARK VINA RESULT:      -7.5      2.155      2.764
REMARK  Name = 
REMARK  7 active torsions:
REMARK  status: ('A' for Active; 'I' for Inactive)
REMARK    1  A    between atoms: C_1  and  C_2
REMARK    2  A    between atoms: C_5  and  C_7
REMARK    3  A    between atoms: C_12  and  S_13
REMARK    4  A    between atoms: S_13  and  N_16
REMARK    5  A    between atoms: N_16  and  C_17
REMARK    6  A    between atoms: C_17  and  C_18
REMARK    7  A    between atoms: C_25  and  C_26
REMARK                            x       y       z     vdW  Elec       q    Type
REMARK                         _______ _______ _______ _____ _____    ______ ____
ROOT
ATOM      1  C   UNL     1       3.088   6.346  18.339  0.00  0.00    +0.000 A 
ATOM      2  C   UNL     1       2.912   5.804  19.614  0.00  0.00    +0.000 A 
ATOM      3  C   UNL     1       2.163   6.507  20.560  0.00  0.00    +0.000 A 
ATOM      4  C   UNL     1       1.607   7.765  20.261  0.00  0.00    +0.000 A 
ATOM      5 CL   UNL     1       0.715   8.511  21.532  0.00  0.00    +0.000 Cl
ATOM      6  C   UNL     1       1.767   8.303  18.986  0.00  0.00    +0.000 A 
ATOM      7  C   UNL     1       2.471   7.563  18.026  0.00  0.00    +0.000 A 
ENDROOT
BRANCH   1  12
ATOM      8  C   UNL     1       7.244   4.262  17.188  0.00  0.00    +0.000 C 
ATOM      9  C   UNL     1       7.114   5.290  16.065  0.00  0.00    +0.000 C 
ATOM     10  C   UNL     1       5.652   5.484  15.614  0.00  0.00    +0.000 C 
ATOM     11  N   UNL     1       4.898   6.233  16.623  0.00  0.00    +0.000 N 
ATOM     12  C   UNL     1       3.888   5.578  17.336  0.00  0.00    +0.000 C 
ATOM     13  O   UNL     1       3.613   4.400  17.172  0.00  0.00    +0.000 OA
ATOM     14  C   UNL     1       5.554   7.494  16.978  0.00  0.00    +0.000 C 
ATOM     15  C   UNL     1       6.994   7.262  17.428  0.00  0.00    +0.000 C 
ATOM     16  C   UNL     1       7.659   8.607  17.687  0.00  0.00    +0.000 C 
ATOM     17  O   UNL     1       7.731   6.544  16.429  0.00  0.00    +0.000 OA
ENDBRANCH   1  12
BRANCH   6  18
ATOM     18  S   UNL     1       1.281   9.951  18.508  0.00  0.00    +0.000 S 
ATOM     19  O   UNL     1       2.211  10.487  17.542  0.00  0.00    +0.000 OA
ATOM     20  O   UNL     1      -0.129   9.871  18.193  0.00  0.00    +0.000 OA
BRANCH  18  21
ATOM     21  N   UNL     1       1.399  10.835  19.937  0.00  0.00    +0.000 NA
ATOM     22  H   UNL     1       2.348  10.891  20.320  0.00  0.00    +0.000 HD
BRANCH  21  23
ATOM     23  C   UNL     1       0.726  12.139  19.938  0.00  0.00    +0.000 C 
BRANCH  23  24
ATOM     24  C   UNL     1      -0.365  12.115  20.951  0.00  0.00    +0.000 A 
ATOM     25  C   UNL     1      -1.701  12.462  20.916  0.00  0.00    +0.000 A 
ATOM     26  C   UNL     1      -2.211  12.228  22.216  0.00  0.00    +0.000 A 
ATOM     27  C   UNL     1      -1.155  11.757  22.961  0.00  0.00    +0.000 A 
ATOM     28  O   UNL     1      -0.028  11.689  22.205  0.00  0.00    +0.000 OA
ENDBRANCH  23  24
ENDBRANCH  21  23
ENDBRANCH  18  21
ENDBRANCH   6  18
TORSDOF 5
ENDMDL
MODEL 8
REMARK VINA RESULT:      -7.4      3.176      7.980
REMARK  Name = 
REMARK  7 active torsions:
REMARK  status: ('A' for Active; 'I' for Inactive)
REMARK    1  A    between atoms: C_1  and  C_2
REMARK    2  A    between atoms: C_5  and  C_7
REMARK    3  A    between atoms: C_12  and  S_13
REMARK    4  A    between atoms: S_13  and  N_16
REMARK    5  A    between atoms: N_16  and  C_17
REMARK    6  A    between atoms: C_17  and  C_18
REMARK    7  A    between atoms: C_25  and  C_26
REMARK                            x       y       z     vdW  Elec       q    Type
REMARK                         _______ _______ _______ _____ _____    ______ ____
ROOT
ATOM      1  C   UNL     1       2.770   7.175  18.401  0.00  0.00    +0.000 A 
ATOM      2  C   UNL     1       2.091   6.186  19.116  0.00  0.00    +0.000 A 
ATOM      3  C   UNL     1       2.756   5.005  19.451  0.00  0.00    +0.000 A 
ATOM      4  C   UNL     1       4.089   4.780  19.054  0.00  0.00    +0.000 A 
ATOM      5 CL   UNL     1       4.770   3.274  19.536  0.00  0.00    +0.000 Cl
ATOM      6  C   UNL     1       4.773   5.770  18.353  0.00  0.00    +0.000 A 
ATOM      7  C   UNL     1       4.115   6.975  18.074  0.00  0.00    +0.000 A 
ENDROOT
BRANCH   1  12
ATOM      8  C   UNL     1       2.064  11.831  19.273  0.00  0.00    +0.000 C 
ATOM      9  C   UNL     1       0.662  11.275  19.513  0.00  0.00    +0.000 C 
ATOM     10  C   UNL     1       0.315  10.124  18.549  0.00  0.00    +0.000 C 
ATOM     11  N   UNL     1       1.048   8.909  18.914  0.00  0.00    +0.000 N 
ATOM     12  C   UNL     1       2.045   8.436  18.055  0.00  0.00    +0.000 C 
ATOM     13  O   UNL     1       2.350   8.999  17.016  0.00  0.00    +0.000 OA
ATOM     14  C   UNL     1       0.852   8.549  20.321  0.00  0.00    +0.000 C 
ATOM     15  C   UNL     1       1.214   9.708  21.245  0.00  0.00    +0.000 C 
ATOM     16  C   UNL     1       0.898   9.320  22.683  0.00  0.00    +0.000 C 
ATOM     17  O   UNL     1       0.481  10.889  20.893  0.00  0.00    +0.000 OA
ENDBRANCH   1  12
BRANCH   6  18
ATOM     18  S   UNL     1       6.392   5.571  17.631  0.00  0.00    +0.000 S 
ATOM     19  O   UNL     1       6.738   6.734  16.849  0.00  0.00    +0.000 OA
ATOM     20  O   UNL     1       7.254   5.136  18.709  0.00  0.00    +0.000 OA
BRANCH  18  21
ATOM     21  N   UNL     1       6.212   4.248  16.603  0.00  0.00    +0.000 NA
ATOM     22  H   UNL     1       6.044   3.360  17.086  0.00  0.00    +0.000 HD
BRANCH  21  23
ATOM     23  C   UNL     1       5.302   4.441  15.468  0.00  0.00    +0.000 C 
BRANCH  23  24
ATOM     24  C   UNL     1       6.090   4.382  14.207  0.00  0.00    +0.000 A 
ATOM     25  C   UNL     1       6.033   3.574  13.088  0.00  0.00    +0.000 A 
ATOM     26  C   UNL     1       7.071   4.005  12.227  0.00  0.00    +0.000 A 
ATOM     27  C   UNL     1       7.697   5.044  12.875  0.00  0.00    +0.000 A 
ATOM     28  O   UNL     1       7.112   5.280  14.079  0.00  0.00    +0.000 OA
ENDBRANCH  23  24
ENDBRANCH  21  23
ENDBRANCH  18  21
ENDBRANCH   6  18
TORSDOF 5
ENDMDL
MODEL 9
REMARK VINA RESULT:      -7.3      2.757      8.040
REMARK  Name = 
REMARK  7 active torsions:
REMARK  status: ('A' for Active; 'I' for Inactive)
REMARK    1  A    between atoms: C_1  and  C_2
REMARK    2  A    between atoms: C_5  and  C_7
REMARK    3  A    between atoms: C_12  and  S_13
REMARK    4  A    between atoms: S_13  and  N_16
REMARK    5  A    between atoms: N_16  and  C_17
REMARK    6  A    between atoms: C_17  and  C_18
REMARK    7  A    between atoms: C_25  and  C_26
REMARK                            x       y       z     vdW  Elec       q    Type
REMARK                         _______ _______ _______ _____ _____    ______ ____
ROOT
ATOM      1  C   UNL     1       2.008   7.855  19.062  0.00  0.00    +0.000 A 
ATOM      2  C   UNL     1       1.550   7.468  20.324  0.00  0.00    +0.000 A 
ATOM      3  C   UNL     1       1.889   6.207  20.818  0.00  0.00    +0.000 A 
ATOM      4  C   UNL     1       2.659   5.307  20.056  0.00  0.00    +0.000 A 
ATOM      5 CL   UNL     1       2.989   3.789  20.799  0.00  0.00    +0.000 Cl
ATOM      6  C   UNL     1       3.129   5.695  18.804  0.00  0.00    +0.000 A 
ATOM      7  C   UNL     1       2.833   6.984  18.342  0.00  0.00    +0.000 A 
ENDROOT
BRANCH   1  12
ATOM      8  C   UNL     1       1.933  12.590  19.775  0.00  0.00    +0.000 C 
ATOM      9  C   UNL     1       0.442  12.298  19.615  0.00  0.00    +0.000 C 
ATOM     10  C   UNL     1       0.171  11.191  18.576  0.00  0.00    +0.000 C 
ATOM     11  N   UNL     1       0.549   9.880  19.110  0.00  0.00    +0.000 N 
ATOM     12  C   UNL     1       1.640   9.211  18.549  0.00  0.00    +0.000 C 
ATOM     13  O   UNL     1       2.312   9.675  17.641  0.00  0.00    +0.000 OA
ATOM     14  C   UNL     1      -0.082   9.610  20.405  0.00  0.00    +0.000 C 
ATOM     15  C   UNL     1       0.216  10.720  21.409  0.00  0.00    +0.000 C 
ATOM     16  C   UNL     1      -0.542  10.443  22.700  0.00  0.00    +0.000 C 
ATOM     17  O   UNL     1      -0.172  11.998  20.887  0.00  0.00    +0.000 OA
ENDBRANCH   1  12
BRANCH   6  18
ATOM     18  S   UNL     1       3.958   4.616  17.650  0.00  0.00    +0.000 S 
ATOM     19  O   UNL     1       4.990   3.862  18.322  0.00  0.00    +0.000 OA
ATOM     20  O   UNL     1       2.909   3.930  16.928  0.00  0.00    +0.000 OA
BRANCH  18  21
ATOM     21  N   UNL     1       4.675   5.676  16.554  0.00  0.00    +0.000 NA
ATOM     22  H   UNL     1       4.379   6.652  16.657  0.00  0.00    +0.000 HD
BRANCH  21  23
ATOM     23  C   UNL     1       6.130   5.554  16.406  0.00  0.00    +0.000 C 
BRANCH  23  24
ATOM     24  C   UNL     1       6.430   5.008  15.054  0.00  0.00    +0.000 A 
ATOM     25  C   UNL     1       5.869   4.004  14.290  0.00  0.00    +0.000 A 
ATOM     26  C   UNL     1       6.617   3.947  13.089  0.00  0.00    +0.000 A 
ATOM     27  C   UNL     1       7.587   4.916  13.198  0.00  0.00    +0.000 A 
ATOM     28  O   UNL     1       7.486   5.563  14.388  0.00  0.00    +0.000 OA
ENDBRANCH  23  24
ENDBRANCH  21  23
ENDBRANCH  18  21
ENDBRANCH   6  18
TORSDOF 5
ENDMDL
