MODEL 1
REMARK VINA RESULT:      -9.4      0.000      0.000
REMARK  Name = 
REMARK  6 active torsions:
REMARK  status: ('A' for Active; 'I' for Inactive)
REMARK    1  A    between atoms: C_1  and  S_2
REMARK    2  A    between atoms: S_2  and  C_3
REMARK    3  A    between atoms: C_6  and  C_7
REMARK    4  A    between atoms: C_9  and  C_10
REMARK    5  A    between atoms: C_10  and  N_11
REMARK    6  A    between atoms: N_11  and  C_12
REMARK                            x       y       z     vdW  Elec       q    Type
REMARK                         _______ _______ _______ _____ _____    ______ ____
ROOT
ATOM      1  C   UNL     1       7.031   4.590  17.664  0.00  0.00    +0.000 C 
ENDROOT
BRANCH   1   4
ATOM      2  C   UNL     1       7.886   8.156  17.942  0.00  0.00    +0.000 A 
ATOM      3  C   UNL     1       7.968   6.891  18.481  0.00  0.00    +0.000 A 
ATOM      4  C   UNL     1       7.225   6.074  17.598  0.00  0.00    +0.000 A 
ATOM      5  N   UNL     1       6.685   6.801  16.610  0.00  0.00    +0.000 NA
ATOM      6  O   UNL     1       7.109   8.096  16.822  0.00  0.00    +0.000 OA
BRANCH   2  10
ATOM      7  C   UNL     1       9.624  11.955  18.859  0.00  0.00    +0.000 A 
ATOM      8  C   UNL     1       9.878  10.847  19.673  0.00  0.00    +0.000 A 
ATOM      9  C   UNL     1       9.296   9.611  19.380  0.00  0.00    +0.000 A 
ATOM     10  C   UNL     1       8.443   9.458  18.277  0.00  0.00    +0.000 A 
ATOM     11  C   UNL     1       8.167  10.587  17.491  0.00  0.00    +0.000 A 
ATOM     12  C   UNL     1       8.747  11.822  17.782  0.00  0.00    +0.000 A 
BRANCH   7  14
ATOM     13  C   UNL     1      10.225  13.532  21.012  0.00  0.00    +0.000 C 
ATOM     14  S   UNL     1      10.421  13.508  19.209  0.00  0.00    +0.000 S 
ENDBRANCH   7  14
ENDBRANCH   2  10
ENDBRANCH   1   4
BRANCH   1  15
ATOM     15  N   UNL     1       6.319   4.264  18.899  0.00  0.00    +0.000 NA
ATOM     16  H   UNL     1       6.588   4.930  19.622  0.00  0.00    +0.000 HD
BRANCH  15  17
ATOM     17  C   UNL     1       4.854   4.149  18.835  0.00  0.00    +0.000 C 
ATOM     18  C   UNL     1       4.505   2.930  19.744  0.00  0.00    +0.000 C 
ATOM     19  C   UNL     1       3.024   2.769  20.124  0.00  0.00    +0.000 C 
ATOM     20  C   UNL     1       2.189   1.998  19.097  0.00  0.00    +0.000 C 
ATOM     21  C   UNL     1       2.421   2.317  17.629  0.00  0.00    +0.000 C 
ATOM     22  C   UNL     1       2.844   3.748  17.278  0.00  0.00    +0.000 C 
ATOM     23  C   UNL     1       2.082   4.844  18.044  0.00  0.00    +0.000 C 
ATOM     24  C   UNL     1       2.651   5.191  19.431  0.00  0.00    +0.000 C 
ATOM     25  C   UNL     1       2.372   4.110  20.472  0.00  0.00    +0.000 C 
ATOM     26  C   UNL     1       4.162   5.416  19.365  0.00  0.00    +0.000 C 
ATOM     27  C   UNL     1       4.367   3.918  17.390  0.00  0.00    +0.000 C 
ENDBRANCH  15  17
ENDBRANCH   1  15
TORSDOF 5
ENDMDL
MODEL 2
REMARK VINA RESULT:      -9.4      0.655      2.020
REMARK  Name = 
REMARK  6 active torsions:
REMARK  status: ('A' for Active; 'I' for Inactive)
REMARK    1  A    between atoms: C_1  and  S_2
REMARK    2  A    between atoms: S_2  and  C_3
REMARK    3  A    between atoms: C_6  and  C_7
REMARK    4  A    between atoms: C_9  and  C_10
REMARK    5  A    between atoms: C_10  and  N_11
REMARK    6  A    between atoms: N_11  and  C_12
REMARK                            x       y       z     vdW  Elec       q    Type
REMARK                         _______ _______ _______ _____ _____    ______ ____
ROOT
ATOM      1  C   UNL     1       6.823   4.705  17.753  0.00  0.00    +0.000 C 
ENDROOT
BRANCH   1   4
ATOM      2  C   UNL     1       7.863   8.225  17.982  0.00  0.00    +0.000 A 
ATOM      3  C   UNL     1       7.889   6.963  18.533  0.00  0.00    +0.000 A 
ATOM      4  C   UNL     1       7.091   6.177  17.669  0.00  0.00    +0.000 A 
ATOM      5  N   UNL     1       6.573   6.921  16.682  0.00  0.00    +0.000 NA
ATOM      6  O   UNL     1       7.067   8.195  16.874  0.00  0.00    +0.000 OA
BRANCH   2  10
ATOM      7  C   UNL     1       9.609  12.003  18.969  0.00  0.00    +0.000 A 
ATOM      8  C   UNL     1       8.813  11.870  17.828  0.00  0.00    +0.000 A 
ATOM      9  C   UNL     1       8.256  10.631  17.500  0.00  0.00    +0.000 A 
ATOM     10  C   UNL     1       8.491   9.500  18.296  0.00  0.00    +0.000 A 
ATOM     11  C   UNL     1       9.323   9.639  19.417  0.00  0.00    +0.000 A 
ATOM     12  C   UNL     1       9.880  10.876  19.747  0.00  0.00    +0.000 A 
BRANCH   7  14
ATOM     13  C   UNL     1       9.718  14.542  17.957  0.00  0.00    +0.000 C 
ATOM     14  S   UNL     1      10.260  13.600  19.410  0.00  0.00    +0.000 S 
ENDBRANCH   7  14
ENDBRANCH   2  10
ENDBRANCH   1   4
BRANCH   1  15
ATOM     15  N   UNL     1       6.096   4.430  18.992  0.00  0.00    +0.000 NA
ATOM     16  H   UNL     1       6.197   5.228  19.618  0.00  0.00    +0.000 HD
BRANCH  15  17
ATOM     17  C   UNL     1       4.682   4.043  18.886  0.00  0.00    +0.000 C 
ATOM     18  C   UNL     1       3.890   5.237  19.503  0.00  0.00    +0.000 C 
ATOM     19  C   UNL     1       2.375   5.255  19.239  0.00  0.00    +0.000 C 
ATOM     20  C   UNL     1       1.549   4.439  20.238  0.00  0.00    +0.000 C 
ATOM     21  C   UNL     1       2.091   3.078  20.643  0.00  0.00    +0.000 C 
ATOM     22  C   UNL     1       2.918   2.312  19.604  0.00  0.00    +0.000 C 
ATOM     23  C   UNL     1       2.347   2.359  18.176  0.00  0.00    +0.000 C 
ATOM     24  C   UNL     1       2.752   3.591  17.347  0.00  0.00    +0.000 C 
ATOM     25  C   UNL     1       2.040   4.865  17.796  0.00  0.00    +0.000 C 
ATOM     26  C   UNL     1       4.260   3.832  17.422  0.00  0.00    +0.000 C 
ATOM     27  C   UNL     1       4.395   2.735  19.650  0.00  0.00    +0.000 C 
ENDBRANCH  15  17
ENDBRANCH   1  15
TORSDOF 5
ENDMDL
MODEL 3
REMARK VINA RESULT:      -9.2      0.557      1.084
REMARK  Name = 
REMARK  6 active torsions:
REMARK  status: ('A' for Active; 'I' for Inactive)
REMARK    1  A    between atoms: C_1  and  S_2
REMARK    2  A    between atoms: S_2  and  C_3
REMARK    3  A    between atoms: C_6  and  C_7
REMARK    4  A    between atoms: C_9  and  C_10
REMARK    5  A    between atoms: C_10  and  N_11
REMARK    6  A    between atoms: N_11  and  C_12
REMARK                            x       y       z     vdW  Elec       q    Type
REMARK                         _______ _______ _______ _____ _____    ______ ____
ROOT
ATOM      1  C   UNL     1       7.103   4.764  17.736  0.00  0.00    +0.000 C 
ENDROOT
BRANCH   1   4
ATOM      2  C   UNL     1       8.007   8.312  18.082  0.00  0.00    +0.000 A 
ATOM      3  C   UNL     1       8.093   7.032  18.584  0.00  0.00    +0.000 A 
ATOM      4  C   UNL     1       7.312   6.248  17.704  0.00  0.00    +0.000 A 
ATOM      5  N   UNL     1       6.747   7.007  16.755  0.00  0.00    +0.000 NA
ATOM      6  O   UNL     1       7.194   8.291  16.987  0.00  0.00    +0.000 OA
BRANCH   2  10
ATOM      7  C   UNL     1       9.610  12.129  19.156  0.00  0.00    +0.000 A 
ATOM      8  C   UNL     1       9.067  11.924  17.885  0.00  0.00    +0.000 A 
ATOM      9  C   UNL     1       8.559  10.671  17.531  0.00  0.00    +0.000 A 
ATOM     10  C   UNL     1       8.590   9.598  18.434  0.00  0.00    +0.000 A 
ATOM     11  C   UNL     1       9.172   9.808  19.693  0.00  0.00    +0.000 A 
ATOM     12  C   UNL     1       9.681  11.059  20.048  0.00  0.00    +0.000 A 
BRANCH   7  14
ATOM     13  C   UNL     1       8.636  14.662  19.498  0.00  0.00    +0.000 C 
ATOM     14  S   UNL     1      10.198  13.746  19.615  0.00  0.00    +0.000 S 
ENDBRANCH   7  14
ENDBRANCH   2  10
ENDBRANCH   1   4
BRANCH   1  15
ATOM     15  N   UNL     1       6.332   4.424  18.931  0.00  0.00    +0.000 NA
ATOM     16  H   UNL     1       6.542   5.101  19.664  0.00  0.00    +0.000 HD
BRANCH  15  17
ATOM     17  C   UNL     1       4.878   4.266  18.787  0.00  0.00    +0.000 C 
ATOM     18  C   UNL     1       4.498   3.115  19.769  0.00  0.00    +0.000 C 
ATOM     19  C   UNL     1       2.999   2.947  20.069  0.00  0.00    +0.000 C 
ATOM     20  C   UNL     1       2.247   2.075  19.058  0.00  0.00    +0.000 C 
ATOM     21  C   UNL     1       2.564   2.281  17.587  0.00  0.00    +0.000 C 
ATOM     22  C   UNL     1       2.979   3.690  17.147  0.00  0.00    +0.000 C 
ATOM     23  C   UNL     1       2.148   4.824  17.773  0.00  0.00    +0.000 C 
ATOM     24  C   UNL     1       2.620   5.295  19.159  0.00  0.00    +0.000 C 
ATOM     25  C   UNL     1       2.299   4.294  20.266  0.00  0.00    +0.000 C 
ATOM     26  C   UNL     1       4.127   5.553  19.168  0.00  0.00    +0.000 C 
ATOM     27  C   UNL     1       4.489   3.908  17.339  0.00  0.00    +0.000 C 
ENDBRANCH  15  17
ENDBRANCH   1  15
TORSDOF 5
ENDMDL
MODEL 4
REMARK VINA RESULT:      -9.0      1.077      2.035
REMARK  Name = 
REMARK  6 active torsions:
REMARK  status: ('A' for Active; 'I' for Inactive)
REMARK    1  A    between atoms: C_1  and  S_2
REMARK    2  A    between atoms: S_2  and  C_3
REMARK    3  A    between atoms: C_6  and  C_7
REMARK    4  A    between atoms: C_9  and  C_10
REMARK    5  A    between atoms: C_10  and  N_11
REMARK    6  A    between atoms: N_11  and  C_12
REMARK                            x       y       z     vdW  Elec       q    Type
REMARK                         _______ _______ _______ _____ _____    ______ ____
ROOT
ATOM      1  C   UNL     1       6.404   5.106  17.257  0.00  0.00    +0.000 C 
ENDROOT
BRANCH   1   4
ATOM      2  C   UNL     1       8.117   8.214  18.222  0.00  0.00    +0.000 A 
ATOM      3  C   UNL     1       7.257   7.577  17.355  0.00  0.00    +0.000 A 
ATOM      4  C   UNL     1       7.228   6.234  17.799  0.00  0.00    +0.000 A 
ATOM      5  N   UNL     1       8.054   6.054  18.839  0.00  0.00    +0.000 NA
ATOM      6  O   UNL     1       8.596   7.293  19.107  0.00  0.00    +0.000 OA
BRANCH   2  10
ATOM      7  C   UNL     1       9.549  12.219  18.676  0.00  0.00    +0.000 A 
ATOM      8  C   UNL     1       9.966  11.216  19.556  0.00  0.00    +0.000 A 
ATOM      9  C   UNL     1       9.484   9.912  19.415  0.00  0.00    +0.000 A 
ATOM     10  C   UNL     1       8.571   9.585  18.401  0.00  0.00    +0.000 A 
ATOM     11  C   UNL     1       8.132  10.610  17.549  0.00  0.00    +0.000 A 
ATOM     12  C   UNL     1       8.612  11.913  17.689  0.00  0.00    +0.000 A 
BRANCH   7  14
ATOM     13  C   UNL     1       8.838  14.800  18.118  0.00  0.00    +0.000 C 
ATOM     14  S   UNL     1      10.218  13.862  18.829  0.00  0.00    +0.000 S 
ENDBRANCH   7  14
ENDBRANCH   2  10
ENDBRANCH   1   4
BRANCH   1  15
ATOM     15  N   UNL     1       6.032   4.224  18.363  0.00  0.00    +0.000 NA
ATOM     16  H   UNL     1       6.465   4.566  19.219  0.00  0.00    +0.000 HD
BRANCH  15  17
ATOM     17  C   UNL     1       4.601   3.969  18.584  0.00  0.00    +0.000 C 
ATOM     18  C   UNL     1       4.058   5.268  19.254  0.00  0.00    +0.000 C 
ATOM     19  C   UNL     1       2.528   5.415  19.309  0.00  0.00    +0.000 C 
ATOM     20  C   UNL     1       1.873   4.745  20.520  0.00  0.00    +0.000 C 
ATOM     21  C   UNL     1       2.376   3.366  20.912  0.00  0.00    +0.000 C 
ATOM     22  C   UNL     1       2.897   2.462  19.789  0.00  0.00    +0.000 C 
ATOM     23  C   UNL     1       2.040   2.476  18.510  0.00  0.00    +0.000 C 
ATOM     24  C   UNL     1       2.356   3.610  17.520  0.00  0.00    +0.000 C 
ATOM     25  C   UNL     1       1.863   4.972  18.003  0.00  0.00    +0.000 C 
ATOM     26  C   UNL     1       3.860   3.710  17.261  0.00  0.00    +0.000 C 
ATOM     27  C   UNL     1       4.379   2.744  19.493  0.00  0.00    +0.000 C 
ENDBRANCH  15  17
ENDBRANCH   1  15
TORSDOF 5
ENDMDL
MODEL 5
REMARK VINA RESULT:      -9.0      0.636      2.059
REMARK  Name = 
REMARK  6 active torsions:
REMARK  status: ('A' for Active; 'I' for Inactive)
REMARK    1  A    between atoms: C_1  and  S_2
REMARK    2  A    between atoms: S_2  and  C_3
REMARK    3  A    between atoms: C_6  and  C_7
REMARK    4  A    between atoms: C_9  and  C_10
REMARK    5  A    between atoms: C_10  and  N_11
REMARK    6  A    between atoms: N_11  and  C_12
REMARK                            x       y       z     vdW  Elec       q    Type
REMARK                         _______ _______ _______ _____ _____    ______ ____
ROOT
ATOM      1  C   UNL     1       6.926   4.563  17.621  0.00  0.00    +0.000 C 
ENDROOT
BRANCH   1   4
ATOM      2  C   UNL     1       7.894   8.097  17.940  0.00  0.00    +0.000 A 
ATOM      3  C   UNL     1       7.917   6.829  18.476  0.00  0.00    +0.000 A 
ATOM      4  C   UNL     1       7.173   6.041  17.567  0.00  0.00    +0.000 A 
ATOM      5  N   UNL     1       6.687   6.789  16.567  0.00  0.00    +0.000 NA
ATOM      6  O   UNL     1       7.150   8.068  16.797  0.00  0.00    +0.000 OA
BRANCH   2  10
ATOM      7  C   UNL     1       9.528  11.890  19.052  0.00  0.00    +0.000 A 
ATOM      8  C   UNL     1       8.784  11.760  17.877  0.00  0.00    +0.000 A 
ATOM      9  C   UNL     1       8.265  10.516  17.507  0.00  0.00    +0.000 A 
ATOM     10  C   UNL     1       8.485   9.378  18.298  0.00  0.00    +0.000 A 
ATOM     11  C   UNL     1       9.266   9.515  19.455  0.00  0.00    +0.000 A 
ATOM     12  C   UNL     1       9.786  10.757  19.826  0.00  0.00    +0.000 A 
BRANCH   7  14
ATOM     13  C   UNL     1      10.436  14.198  17.899  0.00  0.00    +0.000 C 
ATOM     14  S   UNL     1      10.132  13.492  19.542  0.00  0.00    +0.000 S 
ENDBRANCH   7  14
ENDBRANCH   2  10
ENDBRANCH   1   4
BRANCH   1  15
ATOM     15  N   UNL     1       6.361   4.229  18.927  0.00  0.00    +0.000 NA
ATOM     16  H   UNL     1       6.642   4.940  19.601  0.00  0.00    +0.000 HD
BRANCH  15  17
ATOM     17  C   UNL     1       4.911   3.998  19.008  0.00  0.00    +0.000 C 
ATOM     18  C   UNL     1       4.455   3.775  17.533  0.00  0.00    +0.000 C 
ATOM     19  C   UNL     1       3.044   3.195  17.339  0.00  0.00    +0.000 C 
ATOM     20  C   UNL     1       1.927   4.242  17.325  0.00  0.00    +0.000 C 
ATOM     21  C   UNL     1       2.002   5.356  18.356  0.00  0.00    +0.000 C 
ATOM     22  C   UNL     1       2.655   5.026  19.702  0.00  0.00    +0.000 C 
ATOM     23  C   UNL     1       2.257   3.658  20.286  0.00  0.00    +0.000 C 
ATOM     24  C   UNL     1       3.082   2.463  19.779  0.00  0.00    +0.000 C 
ATOM     25  C   UNL     1       2.742   2.076  18.341  0.00  0.00    +0.000 C 
ATOM     26  C   UNL     1       4.580   2.757  19.854  0.00  0.00    +0.000 C 
ATOM     27  C   UNL     1       4.181   5.202  19.636  0.00  0.00    +0.000 C 
ENDBRANCH  15  17
ENDBRANCH   1  15
TORSDOF 5
ENDMDL
MODEL 6
REMARK VINA RESULT:      -8.9      0.715      1.865
REMARK  Name = 
REMARK  6 active torsions:
REMARK  status: ('A' for Active; 'I' for Inactive)
REMARK    1  A    between atoms: C_1  and  S_2
REMARK    2  A    between atoms: S_2  and  C_3
REMARK    3  A    between atoms: C_6  and  C_7
REMARK    4  A    between atoms: C_9  and  C_10
REMARK    5  A    between atoms: C_10  and  N_11
REMARK    6  A    between atoms: N_11  and  C_12
REMARK                            x       y       z     vdW  Elec       q    Type
REMARK                         _______ _______ _______ _____ _____    ______ ____
ROOT
ATOM      1  C   UNL     1       6.527   4.286  17.457  0.00  0.00    +0.000 C 
ENDROOT
BRANCH   1   4
ATOM      2  C   UNL     1       7.785   7.731  17.730  0.00  0.00    +0.000 A 
ATOM      3  C   UNL     1       7.206   6.648  18.353  0.00  0.00    +0.000 A 
ATOM      4  C   UNL     1       7.051   5.685  17.330  0.00  0.00    +0.000 A 
ATOM      5  N   UNL     1       7.464   6.166  16.149  0.00  0.00    +0.000 NA
ATOM      6  O   UNL     1       7.932   7.438  16.406  0.00  0.00    +0.000 OA
BRANCH   2  10
ATOM      7  C   UNL     1       9.319  11.535  18.946  0.00  0.00    +0.000 A 
ATOM      8  C   UNL     1       9.556  10.397  19.722  0.00  0.00    +0.000 A 
ATOM      9  C   UNL     1       9.040   9.158  19.330  0.00  0.00    +0.000 A 
ATOM     10  C   UNL     1       8.271   9.033  18.164  0.00  0.00    +0.000 A 
ATOM     11  C   UNL     1       8.008  10.190  17.415  0.00  0.00    +0.000 A 
ATOM     12  C   UNL     1       8.522  11.428  17.805  0.00  0.00    +0.000 A 
BRANCH   7  14
ATOM     13  C   UNL     1       8.628  13.784  20.340  0.00  0.00    +0.000 C 
ATOM     14  S   UNL     1      10.033  13.094  19.423  0.00  0.00    +0.000 S 
ENDBRANCH   7  14
ENDBRANCH   2  10
ENDBRANCH   1   4
BRANCH   1  15
ATOM     15  N   UNL     1       5.947   4.122  18.789  0.00  0.00    +0.000 NA
ATOM     16  H   UNL     1       6.217   4.916  19.368  0.00  0.00    +0.000 HD
BRANCH  15  17
ATOM     17  C   UNL     1       4.497   3.895  18.882  0.00  0.00    +0.000 C 
ATOM     18  C   UNL     1       3.907   5.252  19.375  0.00  0.00    +0.000 C 
ATOM     19  C   UNL     1       2.382   5.412  19.258  0.00  0.00    +0.000 C 
ATOM     20  C   UNL     1       1.596   4.856  20.449  0.00  0.00    +0.000 C 
ATOM     21  C   UNL     1       2.037   3.515  21.011  0.00  0.00    +0.000 C 
ATOM     22  C   UNL     1       2.657   2.511  20.033  0.00  0.00    +0.000 C 
ATOM     23  C   UNL     1       1.936   2.415  18.676  0.00  0.00    +0.000 C 
ATOM     24  C   UNL     1       2.369   3.454  17.628  0.00  0.00    +0.000 C 
ATOM     25  C   UNL     1       1.848   4.856  17.935  0.00  0.00    +0.000 C 
ATOM     26  C   UNL     1       3.892   3.523  17.518  0.00  0.00    +0.000 C 
ATOM     27  C   UNL     1       4.165   2.757  19.869  0.00  0.00    +0.000 C 
ENDBRANCH  15  17
ENDBRANCH   1  15
TORSDOF 5
ENDMDL
MODEL 7
REMARK VINA RESULT:      -8.8      0.895      1.180
REMARK  Name = 
REMARK  6 active torsions:
REMARK  status: ('A' for Active; 'I' for Inactive)
REMARK    1  A    between atoms: C_1  and  S_2
REMARK    2  A    between atoms: S_2  and  C_3
REMARK    3  A    between atoms: C_6  and  C_7
REMARK    4  A    between atoms: C_9  and  C_10
REMARK    5  A    between atoms: C_10  and  N_11
REMARK    6  A    between atoms: N_11  and  C_12
REMARK                            x       y       z     vdW  Elec       q    Type
REMARK                         _______ _______ _______ _____ _____    ______ ____
ROOT
ATOM      1  C   UNL     1       7.160   4.731  17.900  0.00  0.00    +0.000 C 
ENDROOT
BRANCH   1   4
ATOM      2  C   UNL     1       8.031   8.301  18.041  0.00  0.00    +0.000 A 
ATOM      3  C   UNL     1       8.030   7.075  18.669  0.00  0.00    +0.000 A 
ATOM      4  C   UNL     1       7.384   6.206  17.759  0.00  0.00    +0.000 A 
ATOM      5  N   UNL     1       6.976   6.869  16.668  0.00  0.00    +0.000 NA
ATOM      6  O   UNL     1       7.393   8.172  16.843  0.00  0.00    +0.000 OA
BRANCH   2  10
ATOM      7  C   UNL     1       9.703  12.145  18.896  0.00  0.00    +0.000 A 
ATOM      8  C   UNL     1       9.956  11.061  19.741  0.00  0.00    +0.000 A 
ATOM      9  C   UNL     1       9.396   9.810  19.468  0.00  0.00    +0.000 A 
ATOM     10  C   UNL     1       8.565   9.618  18.354  0.00  0.00    +0.000 A 
ATOM     11  C   UNL     1       8.288  10.724  17.535  0.00  0.00    +0.000 A 
ATOM     12  C   UNL     1       8.847  11.974  17.806  0.00  0.00    +0.000 A 
BRANCH   7  14
ATOM     13  C   UNL     1      11.012  14.125  17.537  0.00  0.00    +0.000 C 
ATOM     14  S   UNL     1      10.472  13.717  19.220  0.00  0.00    +0.000 S 
ENDBRANCH   7  14
ENDBRANCH   2  10
ENDBRANCH   1   4
BRANCH   1  15
ATOM     15  N   UNL     1       6.063   4.336  17.018  0.00  0.00    +0.000 NA
ATOM     16  H   UNL     1       6.321   3.478  16.533  0.00  0.00    +0.000 HD
BRANCH  15  17
ATOM     17  C   UNL     1       4.723   4.203  17.608  0.00  0.00    +0.000 C 
ATOM     18  C   UNL     1       4.975   3.885  19.114  0.00  0.00    +0.000 C 
ATOM     19  C   UNL     1       3.759   4.010  20.046  0.00  0.00    +0.000 C 
ATOM     20  C   UNL     1       2.890   2.750  20.124  0.00  0.00    +0.000 C 
ATOM     21  C   UNL     1       2.600   2.023  18.821  0.00  0.00    +0.000 C 
ATOM     22  C   UNL     1       2.523   2.868  17.545  0.00  0.00    +0.000 C 
ATOM     23  C   UNL     1       1.759   4.195  17.704  0.00  0.00    +0.000 C 
ATOM     24  C   UNL     1       2.594   5.372  18.237  0.00  0.00    +0.000 C 
ATOM     25  C   UNL     1       2.914   5.246  19.724  0.00  0.00    +0.000 C 
ATOM     26  C   UNL     1       3.911   5.503  17.473  0.00  0.00    +0.000 C 
ATOM     27  C   UNL     1       3.917   3.075  16.932  0.00  0.00    +0.000 C 
ENDBRANCH  15  17
ENDBRANCH   1  15
TORSDOF 5
ENDMDL
MODEL 8
REMARK VINA RESULT:      -8.8      0.988      2.187
REMARK  Name = 
REMARK  6 active torsions:
REMARK  status: ('A' for Active; 'I' for Inactive)
REMARK    1  A    between atoms: C_1  and  S_2
REMARK    2  A    between atoms: S_2  and  C_3
REMARK    3  A    between atoms: C_6  and  C_7
REMARK    4  A    between atoms: C_9  and  C_10
REMARK    5  A    between atoms: C_10  and  N_11
REMARK    6  A    between atoms: N_11  and  C_12
REMARK                            x       y       z     vdW  Elec       q    Type
REMARK                         _______ _______ _______ _____ _____    ______ ____
ROOT
ATOM      1  C   UNL     1       6.613   4.999  17.278  0.00  0.00    +0.000 C 
ENDROOT
BRANCH   1   4
ATOM      2  C   UNL     1       8.177   8.183  18.244  0.00  0.00    +0.000 A 
ATOM      3  C   UNL     1       7.410   7.489  17.335  0.00  0.00    +0.000 A 
ATOM      4  C   UNL     1       7.365   6.168  17.837  0.00  0.00    +0.000 A 
ATOM      5  N   UNL     1       8.096   6.053  18.954  0.00  0.00    +0.000 NA
ATOM      6  O   UNL     1       8.590   7.314  19.211  0.00  0.00    +0.000 OA
BRANCH   2  10
ATOM      7  C   UNL     1       9.287  12.282  18.764  0.00  0.00    +0.000 A 
ATOM      8  C   UNL     1       8.495  11.897  17.679  0.00  0.00    +0.000 A 
ATOM      9  C   UNL     1       8.147  10.555  17.502  0.00  0.00    +0.000 A 
ATOM     10  C   UNL     1       8.589   9.571  18.399  0.00  0.00    +0.000 A 
ATOM     11  C   UNL     1       9.415   9.965  19.462  0.00  0.00    +0.000 A 
ATOM     12  C   UNL     1       9.764  11.305  19.640  0.00  0.00    +0.000 A 
BRANCH   7  14
ATOM     13  C   UNL     1      11.243  13.820  19.899  0.00  0.00    +0.000 C 
ATOM     14  S   UNL     1       9.671  14.003  19.011  0.00  0.00    +0.000 S 
ENDBRANCH   7  14
ENDBRANCH   2  10
ENDBRANCH   1   4
BRANCH   1  15
ATOM     15  N   UNL     1       6.248   4.106  18.377  0.00  0.00    +0.000 NA
ATOM     16  H   UNL     1       6.798   4.352  19.199  0.00  0.00    +0.000 HD
BRANCH  15  17
ATOM     17  C   UNL     1       4.825   3.999  18.730  0.00  0.00    +0.000 C 
ATOM     18  C   UNL     1       4.084   3.815  17.370  0.00  0.00    +0.000 C 
ATOM     19  C   UNL     1       2.619   3.356  17.452  0.00  0.00    +0.000 C 
ATOM     20  C   UNL     1       1.610   4.495  17.628  0.00  0.00    +0.000 C 
ATOM     21  C   UNL     1       1.969   5.599  18.609  0.00  0.00    +0.000 C 
ATOM     22  C   UNL     1       2.832   5.215  19.815  0.00  0.00    +0.000 C 
ATOM     23  C   UNL     1       2.438   3.887  20.485  0.00  0.00    +0.000 C 
ATOM     24  C   UNL     1       3.051   2.625  19.853  0.00  0.00    +0.000 C 
ATOM     25  C   UNL     1       2.417   2.269  18.511  0.00  0.00    +0.000 C 
ATOM     26  C   UNL     1       4.556   2.791  19.644  0.00  0.00    +0.000 C 
ATOM     27  C   UNL     1       4.328   5.261  19.463  0.00  0.00    +0.000 C 
ENDBRANCH  15  17
ENDBRANCH   1  15
TORSDOF 5
ENDMDL
MODEL 9
REMARK VINA RESULT:      -8.8      0.955      2.158
REMARK  Name = 
REMARK  6 active torsions:
REMARK  status: ('A' for Active; 'I' for Inactive)
REMARK    1  A    between atoms: C_1  and  S_2
REMARK    2  A    between atoms: S_2  and  C_3
REMARK    3  A    between atoms: C_6  and  C_7
REMARK    4  A    between atoms: C_9  and  C_10
REMARK    5  A    between atoms: C_10  and  N_11
REMARK    6  A    between atoms: N_11  and  C_12
REMARK                            x       y       z     vdW  Elec       q    Type
REMARK                         _______ _______ _______ _____ _____    ______ ____
ROOT
ATOM      1  C   UNL     1       6.230   5.336  17.268  0.00  0.00    +0.000 C 
ENDROOT
BRANCH   1   4
ATOM      2  C   UNL     1       8.126   8.342  18.213  0.00  0.00    +0.000 A 
ATOM      3  C   UNL     1       7.215   7.757  17.362  0.00  0.00    +0.000 A 
ATOM      4  C   UNL     1       7.124   6.415  17.798  0.00  0.00    +0.000 A 
ATOM      5  N   UNL     1       7.961   6.184  18.819  0.00  0.00    +0.000 NA
ATOM      6  O   UNL     1       8.574   7.391  19.082  0.00  0.00    +0.000 OA
BRANCH   2  10
ATOM      7  C   UNL     1       9.590  12.317  18.808  0.00  0.00    +0.000 A 
ATOM      8  C   UNL     1       8.694  12.042  17.771  0.00  0.00    +0.000 A 
ATOM      9  C   UNL     1       8.230  10.739  17.569  0.00  0.00    +0.000 A 
ATOM     10  C   UNL     1       8.656   9.685  18.390  0.00  0.00    +0.000 A 
ATOM     11  C   UNL     1       9.585   9.968  19.404  0.00  0.00    +0.000 A 
ATOM     12  C   UNL     1      10.050  11.269  19.607  0.00  0.00    +0.000 A 
BRANCH   7  14
ATOM     13  C   UNL     1       9.722  14.124  20.856  0.00  0.00    +0.000 C 
ATOM     14  S   UNL     1      10.125  13.991  19.093  0.00  0.00    +0.000 S 
ENDBRANCH   7  14
ENDBRANCH   2  10
ENDBRANCH   1   4
BRANCH   1  15
ATOM     15  N   UNL     1       5.939   4.394  18.349  0.00  0.00    +0.000 NA
ATOM     16  H   UNL     1       6.326   4.759  19.218  0.00  0.00    +0.000 HD
BRANCH  15  17
ATOM     17  C   UNL     1       4.540   3.987  18.546  0.00  0.00    +0.000 C 
ATOM     18  C   UNL     1       3.840   5.238  19.161  0.00  0.00    +0.000 C 
ATOM     19  C   UNL     1       2.302   5.215  19.177  0.00  0.00    +0.000 C 
ATOM     20  C   UNL     1       1.694   4.513  20.395  0.00  0.00    +0.000 C 
ATOM     21  C   UNL     1       2.338   3.211  20.843  0.00  0.00    +0.000 C 
ATOM     22  C   UNL     1       2.984   2.337  19.763  0.00  0.00    +0.000 C 
ATOM     23  C   UNL     1       2.164   2.216  18.466  0.00  0.00    +0.000 C 
ATOM     24  C   UNL     1       2.378   3.348  17.446  0.00  0.00    +0.000 C 
ATOM     25  C   UNL     1       1.724   4.660  17.872  0.00  0.00    +0.000 C 
ATOM     26  C   UNL     1       3.867   3.607  17.217  0.00  0.00    +0.000 C 
ATOM     27  C   UNL     1       4.432   2.773  19.491  0.00  0.00    +0.000 C 
ENDBRANCH  15  17
ENDBRANCH   1  15
TORSDOF 5
ENDMDL
