MODEL 1
REMARK VINA RESULT:      -7.3      0.000      0.000
REMARK  Name = 
REMARK  7 active torsions:
REMARK  status: ('A' for Active; 'I' for Inactive)
REMARK    1  A    between atoms: C_1  and  O_2
REMARK    2  A    between atoms: O_2  and  C_3
REMARK    3  A    between atoms: C_8  and  C_9
REMARK    4  A    between atoms: N_14  and  C_15
REMARK    5  A    between atoms: C_15  and  C_16
REMARK    6  A    between atoms: N_18  and  C_19
REMARK    7  A    between atoms: N_18  and  C_20
REMARK                            x       y       z     vdW  Elec       q    Type
REMARK                         _______ _______ _______ _____ _____    ______ ____
ROOT
ATOM      1  C   UNL     1       2.680   6.899  18.128  0.00  0.00    +0.000 C 
ATOM      2  C   UNL     1       2.153   7.748  19.020  0.00  0.00    +0.000 C 
ATOM      3  S   UNL     1       1.634   7.400  20.622  0.00  0.00    +0.000 S 
ATOM      4  C   UNL     1       0.719   8.887  20.720  0.00  0.00    +0.000 C 
ATOM      5  O   UNL     1      -0.115   9.095  21.587  0.00  0.00    +0.000 OA
ATOM      6  N   UNL     1       1.009   9.690  19.649  0.00  0.00    +0.000 N 
ATOM      7  C   UNL     1       1.754   9.133  18.642  0.00  0.00    +0.000 C 
ATOM      8  O   UNL     1       1.951   9.618  17.533  0.00  0.00    +0.000 OA
ENDROOT
BRANCH   1  14
ATOM      9  C   UNL     1       3.979   4.906  19.002  0.00  0.00    +0.000 A 
ATOM     10  C   UNL     1       4.105   3.512  19.080  0.00  0.00    +0.000 A 
ATOM     11  C   UNL     1       3.121   2.673  18.552  0.00  0.00    +0.000 A 
ATOM     12  C   UNL     1       2.004   3.221  17.930  0.00  0.00    +0.000 A 
ATOM     13  C   UNL     1       1.869   4.606  17.841  0.00  0.00    +0.000 A 
ATOM     14  C   UNL     1       2.853   5.463  18.366  0.00  0.00    +0.000 A 
BRANCH   9  16
ATOM     15  C   UNL     1       6.263   5.527  18.690  0.00  0.00    +0.000 C 
ATOM     16  O   UNL     1       5.078   5.577  19.474  0.00  0.00    +0.000 OA
ENDBRANCH   9  16
ENDBRANCH   1  14
BRANCH   6  17
ATOM     17  C   UNL     1       0.287  10.932  19.455  0.00  0.00    +0.000 C 
BRANCH  17  18
ATOM     18  C   UNL     1       0.978  12.146  20.100  0.00  0.00    +0.000 C 
ATOM     19  O   UNL     1       1.716  12.007  21.078  0.00  0.00    +0.000 OA
ATOM     20  N   UNL     1       0.851  13.390  19.454  0.00  0.00    +0.000 N 
ATOM     21  C   UNL     1      -0.198  13.674  18.479  0.00  0.00    +0.000 C 
BRANCH  20  22
ATOM     22  C   UNL     1       1.888  14.416  19.738  0.00  0.00    +0.000 C 
ATOM     23  C   UNL     1       1.579  15.265  20.986  0.00  0.00    +0.000 C 
ATOM     24  C   UNL     1       0.706  16.422  20.538  0.00  0.00    +0.000 C 
ATOM     25  S   UNL     1       1.409  16.934  18.986  0.00  0.00    +0.000 S 
ATOM     26  O   UNL     1       2.422  17.936  19.245  0.00  0.00    +0.000 OA
ATOM     27  O   UNL     1       0.337  17.149  18.036  0.00  0.00    +0.000 OA
ATOM     28  C   UNL     1       2.225  15.395  18.598  0.00  0.00    +0.000 C 
ENDBRANCH  20  22
ENDBRANCH  17  18
ENDBRANCH   6  17
TORSDOF 5
ENDMDL
MODEL 2
REMARK VINA RESULT:      -7.2      1.008      1.040
REMARK  Name = 
REMARK  7 active torsions:
REMARK  status: ('A' for Active; 'I' for Inactive)
REMARK    1  A    between atoms: C_1  and  O_2
REMARK    2  A    between atoms: O_2  and  C_3
REMARK    3  A    between atoms: C_8  and  C_9
REMARK    4  A    between atoms: N_14  and  C_15
REMARK    5  A    between atoms: C_15  and  C_16
REMARK    6  A    between atoms: N_18  and  C_19
REMARK    7  A    between atoms: N_18  and  C_20
REMARK                            x       y       z     vdW  Elec       q    Type
REMARK                         _______ _______ _______ _____ _____    ______ ____
ROOT
ATOM      1  C   UNL     1       2.747   6.909  18.113  0.00  0.00    +0.000 C 
ATOM      2  C   UNL     1       2.204   7.717  19.032  0.00  0.00    +0.000 C 
ATOM      3  S   UNL     1       1.681   7.303  20.617  0.00  0.00    +0.000 S 
ATOM      4  C   UNL     1       0.745   8.772  20.765  0.00  0.00    +0.000 C 
ATOM      5  O   UNL     1      -0.097   8.936  21.633  0.00  0.00    +0.000 OA
ATOM      6  N   UNL     1       1.029   9.618  19.726  0.00  0.00    +0.000 N 
ATOM      7  C   UNL     1       1.788   9.110  18.704  0.00  0.00    +0.000 C 
ATOM      8  O   UNL     1       1.984   9.638  17.615  0.00  0.00    +0.000 OA
ENDROOT
BRANCH   1  14
ATOM      9  C   UNL     1       4.079   4.902  18.901  0.00  0.00    +0.000 A 
ATOM     10  C   UNL     1       4.221   3.507  18.928  0.00  0.00    +0.000 A 
ATOM     11  C   UNL     1       3.241   2.676  18.382  0.00  0.00    +0.000 A 
ATOM     12  C   UNL     1       2.111   3.233  17.793  0.00  0.00    +0.000 A 
ATOM     13  C   UNL     1       1.959   4.619  17.754  0.00  0.00    +0.000 A 
ATOM     14  C   UNL     1       2.939   5.468  18.298  0.00  0.00    +0.000 A 
BRANCH   9  16
ATOM     15  C   UNL     1       6.440   5.246  18.819  0.00  0.00    +0.000 C 
ATOM     16  O   UNL     1       5.175   5.568  19.384  0.00  0.00    +0.000 OA
ENDBRANCH   9  16
ENDBRANCH   1  14
BRANCH   6  17
ATOM     17  C   UNL     1       0.292  10.857  19.574  0.00  0.00    +0.000 C 
BRANCH  17  18
ATOM     18  C   UNL     1       0.884  12.023  20.385  0.00  0.00    +0.000 C 
ATOM     19  O   UNL     1       0.817  12.036  21.615  0.00  0.00    +0.000 OA
ATOM     20  N   UNL     1       1.624  12.996  19.685  0.00  0.00    +0.000 N 
ATOM     21  C   UNL     1       1.516  13.188  18.242  0.00  0.00    +0.000 C 
BRANCH  20  22
ATOM     22  C   UNL     1       2.605  13.796  20.462  0.00  0.00    +0.000 C 
ATOM     23  C   UNL     1       1.949  14.889  21.329  0.00  0.00    +0.000 C 
ATOM     24  C   UNL     1       1.792  16.120  20.457  0.00  0.00    +0.000 C 
ATOM     25  S   UNL     1       3.303  16.196  19.520  0.00  0.00    +0.000 S 
ATOM     26  O   UNL     1       4.271  16.975  20.264  0.00  0.00    +0.000 OA
ATOM     27  O   UNL     1       2.980  16.483  18.137  0.00  0.00    +0.000 OA
ATOM     28  C   UNL     1       3.736  14.471  19.665  0.00  0.00    +0.000 C 
ENDBRANCH  20  22
ENDBRANCH  17  18
ENDBRANCH   6  17
TORSDOF 5
ENDMDL
MODEL 3
REMARK VINA RESULT:      -7.1      1.440      1.754
REMARK  Name = 
REMARK  7 active torsions:
REMARK  status: ('A' for Active; 'I' for Inactive)
REMARK    1  A    between atoms: C_1  and  O_2
REMARK    2  A    between atoms: O_2  and  C_3
REMARK    3  A    between atoms: C_8  and  C_9
REMARK    4  A    between atoms: N_14  and  C_15
REMARK    5  A    between atoms: C_15  and  C_16
REMARK    6  A    between atoms: N_18  and  C_19
REMARK    7  A    between atoms: N_18  and  C_20
REMARK                            x       y       z     vdW  Elec       q    Type
REMARK                         _______ _______ _______ _____ _____    ______ ____
ROOT
ATOM      1  C   UNL     1       2.676   6.631  18.038  0.00  0.00    +0.000 C 
ATOM      2  C   UNL     1       2.239   7.579  18.876  0.00  0.00    +0.000 C 
ATOM      3  S   UNL     1       1.819   7.403  20.534  0.00  0.00    +0.000 S 
ATOM      4  C   UNL     1       0.963   8.927  20.549  0.00  0.00    +0.000 C 
ATOM      5  O   UNL     1       0.197   9.248  21.443  0.00  0.00    +0.000 OA
ATOM      6  N   UNL     1       1.206   9.615  19.389  0.00  0.00    +0.000 N 
ATOM      7  C   UNL     1       1.862   8.938  18.394  0.00  0.00    +0.000 C 
ATOM      8  O   UNL     1       1.999   9.309  17.234  0.00  0.00    +0.000 OA
ENDROOT
BRANCH   1  14
ATOM      9  C   UNL     1       3.949   4.685  19.045  0.00  0.00    +0.000 A 
ATOM     10  C   UNL     1       4.038   3.300  19.246  0.00  0.00    +0.000 A 
ATOM     11  C   UNL     1       3.013   2.448  18.831  0.00  0.00    +0.000 A 
ATOM     12  C   UNL     1       1.890   2.973  18.200  0.00  0.00    +0.000 A 
ATOM     13  C   UNL     1       1.790   4.348  17.989  0.00  0.00    +0.000 A 
ATOM     14  C   UNL     1       2.817   5.217  18.399  0.00  0.00    +0.000 A 
BRANCH   9  16
ATOM     15  C   UNL     1       6.302   4.995  18.782  0.00  0.00    +0.000 C 
ATOM     16  O   UNL     1       5.083   5.361  19.417  0.00  0.00    +0.000 OA
ENDBRANCH   9  16
ENDBRANCH   1  14
BRANCH   6  17
ATOM     17  C   UNL     1       0.515  10.861  19.125  0.00  0.00    +0.000 C 
BRANCH  17  18
ATOM     18  C   UNL     1       1.421  12.099  19.247  0.00  0.00    +0.000 C 
ATOM     19  O   UNL     1       2.323  12.305  18.434  0.00  0.00    +0.000 OA
ATOM     20  N   UNL     1       1.094  13.054  20.230  0.00  0.00    +0.000 N 
ATOM     21  C   UNL     1       0.233  12.755  21.371  0.00  0.00    +0.000 C 
BRANCH  20  22
ATOM     22  C   UNL     1       1.597  14.438  20.031  0.00  0.00    +0.000 C 
ATOM     23  C   UNL     1       3.034  14.642  20.548  0.00  0.00    +0.000 C 
ATOM     24  C   UNL     1       2.937  15.000  22.019  0.00  0.00    +0.000 C 
ATOM     25  S   UNL     1       1.547  16.108  22.115  0.00  0.00    +0.000 S 
ATOM     26  O   UNL     1       2.022  17.463  21.924  0.00  0.00    +0.000 OA
ATOM     27  O   UNL     1       0.726  15.730  23.247  0.00  0.00    +0.000 OA
ATOM     28  C   UNL     1       0.741  15.577  20.614  0.00  0.00    +0.000 C 
ENDBRANCH  20  22
ENDBRANCH  17  18
ENDBRANCH   6  17
TORSDOF 5
ENDMDL
MODEL 4
REMARK VINA RESULT:      -6.9      1.482      1.684
REMARK  Name = 
REMARK  7 active torsions:
REMARK  status: ('A' for Active; 'I' for Inactive)
REMARK    1  A    between atoms: C_1  and  O_2
REMARK    2  A    between atoms: O_2  and  C_3
REMARK    3  A    between atoms: C_8  and  C_9
REMARK    4  A    between atoms: N_14  and  C_15
REMARK    5  A    between atoms: C_15  and  C_16
REMARK    6  A    between atoms: N_18  and  C_19
REMARK    7  A    between atoms: N_18  and  C_20
REMARK                            x       y       z     vdW  Elec       q    Type
REMARK                         _______ _______ _______ _____ _____    ______ ____
ROOT
ATOM      1  C   UNL     1       2.499   6.407  18.853  0.00  0.00    +0.000 C 
ATOM      2  C   UNL     1       2.106   7.572  19.382  0.00  0.00    +0.000 C 
ATOM      3  S   UNL     1       1.548   7.864  20.982  0.00  0.00    +0.000 S 
ATOM      4  C   UNL     1       0.861   9.409  20.533  0.00  0.00    +0.000 C 
ATOM      5  O   UNL     1       0.070  10.012  21.239  0.00  0.00    +0.000 OA
ATOM      6  N   UNL     1       1.261   9.751  19.268  0.00  0.00    +0.000 N 
ATOM      7  C   UNL     1       1.912   8.788  18.542  0.00  0.00    +0.000 C 
ATOM      8  O   UNL     1       2.174   8.835  17.346  0.00  0.00    +0.000 OA
ENDROOT
BRANCH   1  14
ATOM      9  C   UNL     1       3.581   4.289  19.729  0.00  0.00    +0.000 A 
ATOM     10  C   UNL     1       3.417   3.032  20.329  0.00  0.00    +0.000 A 
ATOM     11  C   UNL     1       2.165   2.611  20.781  0.00  0.00    +0.000 A 
ATOM     12  C   UNL     1       1.059   3.441  20.630  0.00  0.00    +0.000 A 
ATOM     13  C   UNL     1       1.206   4.692  20.030  0.00  0.00    +0.000 A 
ATOM     14  C   UNL     1       2.461   5.127  19.568  0.00  0.00    +0.000 A 
BRANCH   9  16
ATOM     15  C   UNL     1       5.104   4.153  17.896  0.00  0.00    +0.000 C 
ATOM     16  O   UNL     1       4.848   4.500  19.251  0.00  0.00    +0.000 OA
ENDBRANCH   9  16
ENDBRANCH   1  14
BRANCH   6  17
ATOM     17  C   UNL     1       0.728  10.942  18.635  0.00  0.00    +0.000 C 
BRANCH  17  18
ATOM     18  C   UNL     1       1.738  12.101  18.567  0.00  0.00    +0.000 C 
ATOM     19  O   UNL     1       2.765  12.005  17.891  0.00  0.00    +0.000 OA
ATOM     20  N   UNL     1       1.383  13.315  19.185  0.00  0.00    +0.000 N 
ATOM     21  C   UNL     1       0.341  13.411  20.204  0.00  0.00    +0.000 C 
BRANCH  20  22
ATOM     22  C   UNL     1       2.059  14.548  18.705  0.00  0.00    +0.000 C 
ATOM     23  C   UNL     1       3.409  14.811  19.399  0.00  0.00    +0.000 C 
ATOM     24  C   UNL     1       3.119  15.588  20.669  0.00  0.00    +0.000 C 
ATOM     25  S   UNL     1       1.861  16.755  20.197  0.00  0.00    +0.000 S 
ATOM     26  O   UNL     1       2.504  17.964  19.728  0.00  0.00    +0.000 OA
ATOM     27  O   UNL     1       0.834  16.773  21.219  0.00  0.00    +0.000 OA
ATOM     28  C   UNL     1       1.250  15.856  18.781  0.00  0.00    +0.000 C 
ENDBRANCH  20  22
ENDBRANCH  17  18
ENDBRANCH   6  17
TORSDOF 5
ENDMDL
MODEL 5
REMARK VINA RESULT:      -6.8      1.227      1.342
REMARK  Name = 
REMARK  7 active torsions:
REMARK  status: ('A' for Active; 'I' for Inactive)
REMARK    1  A    between atoms: C_1  and  O_2
REMARK    2  A    between atoms: O_2  and  C_3
REMARK    3  A    between atoms: C_8  and  C_9
REMARK    4  A    between atoms: N_14  and  C_15
REMARK    5  A    between atoms: C_15  and  C_16
REMARK    6  A    between atoms: N_18  and  C_19
REMARK    7  A    between atoms: N_18  and  C_20
REMARK                            x       y       z     vdW  Elec       q    Type
REMARK                         _______ _______ _______ _____ _____    ______ ____
ROOT
ATOM      1  C   UNL     1       2.687   6.661  18.089  0.00  0.00    +0.000 C 
ATOM      2  C   UNL     1       2.215   7.599  18.921  0.00  0.00    +0.000 C 
ATOM      3  S   UNL     1       1.706   7.398  20.550  0.00  0.00    +0.000 S 
ATOM      4  C   UNL     1       0.863   8.930  20.547  0.00  0.00    +0.000 C 
ATOM      5  O   UNL     1       0.053   9.242  21.405  0.00  0.00    +0.000 OA
ATOM      6  N   UNL     1       1.173   9.635  19.414  0.00  0.00    +0.000 N 
ATOM      7  C   UNL     1       1.876   8.969  18.443  0.00  0.00    +0.000 C 
ATOM      8  O   UNL     1       2.078   9.359  17.299  0.00  0.00    +0.000 OA
ENDROOT
BRANCH   1  14
ATOM      9  C   UNL     1       3.898   4.683  19.110  0.00  0.00    +0.000 A 
ATOM     10  C   UNL     1       3.961   3.293  19.292  0.00  0.00    +0.000 A 
ATOM     11  C   UNL     1       2.940   2.462  18.826  0.00  0.00    +0.000 A 
ATOM     12  C   UNL     1       1.848   3.012  18.164  0.00  0.00    +0.000 A 
ATOM     13  C   UNL     1       1.774   4.392  17.972  0.00  0.00    +0.000 A 
ATOM     14  C   UNL     1       2.797   5.240  18.433  0.00  0.00    +0.000 A 
BRANCH   9  16
ATOM     15  C   UNL     1       6.186   5.238  18.717  0.00  0.00    +0.000 C 
ATOM     16  O   UNL     1       5.026   5.336  19.534  0.00  0.00    +0.000 OA
ENDBRANCH   9  16
ENDBRANCH   1  14
BRANCH   6  17
ATOM     17  C   UNL     1       0.508  10.893  19.135  0.00  0.00    +0.000 C 
BRANCH  17  18
ATOM     18  C   UNL     1       1.387  12.124  19.418  0.00  0.00    +0.000 C 
ATOM     19  O   UNL     1       2.351  12.391  18.698  0.00  0.00    +0.000 OA
ATOM     20  N   UNL     1       0.970  13.005  20.434  0.00  0.00    +0.000 N 
ATOM     21  C   UNL     1       0.023  12.622  21.477  0.00  0.00    +0.000 C 
BRANCH  20  22
ATOM     22  C   UNL     1       1.473  14.402  20.374  0.00  0.00    +0.000 C 
ATOM     23  C   UNL     1       1.609  15.059  21.761  0.00  0.00    +0.000 C 
ATOM     24  C   UNL     1       0.262  15.669  22.104  0.00  0.00    +0.000 C 
ATOM     25  S   UNL     1      -0.301  16.389  20.578  0.00  0.00    +0.000 S 
ATOM     26  O   UNL     1       0.180  17.753  20.505  0.00  0.00    +0.000 OA
ATOM     27  O   UNL     1      -1.697  16.052  20.390  0.00  0.00    +0.000 OA
ATOM     28  C   UNL     1       0.688  15.384  19.484  0.00  0.00    +0.000 C 
ENDBRANCH  20  22
ENDBRANCH  17  18
ENDBRANCH   6  17
TORSDOF 5
ENDMDL
MODEL 6
REMARK VINA RESULT:      -6.7      3.473      4.568
REMARK  Name = 
REMARK  7 active torsions:
REMARK  status: ('A' for Active; 'I' for Inactive)
REMARK    1  A    between atoms: C_1  and  O_2
REMARK    2  A    between atoms: O_2  and  C_3
REMARK    3  A    between atoms: C_8  and  C_9
REMARK    4  A    between atoms: N_14  and  C_15
REMARK    5  A    between atoms: C_15  and  C_16
REMARK    6  A    between atoms: N_18  and  C_19
REMARK    7  A    between atoms: N_18  and  C_20
REMARK                            x       y       z     vdW  Elec       q    Type
REMARK                         _______ _______ _______ _____ _____    ______ ____
ROOT
ATOM      1  C   UNL     1       2.831   6.916  18.225  0.00  0.00    +0.000 C 
ATOM      2  C   UNL     1       2.185   7.824  18.969  0.00  0.00    +0.000 C 
ATOM      3  S   UNL     1       1.537   7.618  20.547  0.00  0.00    +0.000 S 
ATOM      4  C   UNL     1       0.548   9.054  20.401  0.00  0.00    +0.000 C 
ATOM      5  O   UNL     1      -0.372   9.305  21.163  0.00  0.00    +0.000 OA
ATOM      6  N   UNL     1       0.899   9.754  19.277  0.00  0.00    +0.000 N 
ATOM      7  C   UNL     1       1.759   9.137  18.407  0.00  0.00    +0.000 C 
ATOM      8  O   UNL     1       2.036   9.512  17.273  0.00  0.00    +0.000 OA
ENDROOT
BRANCH   1  14
ATOM      9  C   UNL     1       4.278   5.034  19.111  0.00  0.00    +0.000 A 
ATOM     10  C   UNL     1       4.416   3.662  19.368  0.00  0.00    +0.000 A 
ATOM     11  C   UNL     1       3.348   2.785  19.173  0.00  0.00    +0.000 A 
ATOM     12  C   UNL     1       2.130   3.270  18.709  0.00  0.00    +0.000 A 
ATOM     13  C   UNL     1       1.979   4.631  18.445  0.00  0.00    +0.000 A 
ATOM     14  C   UNL     1       3.048   5.525  18.634  0.00  0.00    +0.000 A 
BRANCH   9  16
ATOM     15  C   UNL     1       6.626   5.160  18.702  0.00  0.00    +0.000 C 
ATOM     16  O   UNL     1       5.448   5.733  19.255  0.00  0.00    +0.000 OA
ENDBRANCH   9  16
ENDBRANCH   1  14
BRANCH   6  17
ATOM     17  C   UNL     1       0.142  10.926  18.885  0.00  0.00    +0.000 C 
BRANCH  17  18
ATOM     18  C   UNL     1      -1.156  10.590  18.129  0.00  0.00    +0.000 C 
ATOM     19  O   UNL     1      -1.174   9.713  17.264  0.00  0.00    +0.000 OA
ATOM     20  N   UNL     1      -2.342  11.216  18.558  0.00  0.00    +0.000 N 
ATOM     21  C   UNL     1      -2.351  12.431  19.368  0.00  0.00    +0.000 C 
BRANCH  20  22
ATOM     22  C   UNL     1      -3.626  10.548  18.221  0.00  0.00    +0.000 C 
ATOM     23  C   UNL     1      -4.099  10.829  16.782  0.00  0.00    +0.000 C 
ATOM     24  C   UNL     1      -4.899  12.118  16.815  0.00  0.00    +0.000 C 
ATOM     25  S   UNL     1      -5.865  12.003  18.305  0.00  0.00    +0.000 S 
ATOM     26  O   UNL     1      -7.121  11.354  17.994  0.00  0.00    +0.000 OA
ATOM     27  O   UNL     1      -5.803  13.273  19.000  0.00  0.00    +0.000 OA
ATOM     28  C   UNL     1      -4.820  10.830  19.152  0.00  0.00    +0.000 C 
ENDBRANCH  20  22
ENDBRANCH  17  18
ENDBRANCH   6  17
TORSDOF 5
ENDMDL
MODEL 7
REMARK VINA RESULT:      -6.7      3.242      4.299
REMARK  Name = 
REMARK  7 active torsions:
REMARK  status: ('A' for Active; 'I' for Inactive)
REMARK    1  A    between atoms: C_1  and  O_2
REMARK    2  A    between atoms: O_2  and  C_3
REMARK    3  A    between atoms: C_8  and  C_9
REMARK    4  A    between atoms: N_14  and  C_15
REMARK    5  A    between atoms: C_15  and  C_16
REMARK    6  A    between atoms: N_18  and  C_19
REMARK    7  A    between atoms: N_18  and  C_20
REMARK                            x       y       z     vdW  Elec       q    Type
REMARK                         _______ _______ _______ _____ _____    ______ ____
ROOT
ATOM      1  C   UNL     1       2.362   6.457  19.680  0.00  0.00    +0.000 C 
ATOM      2  C   UNL     1       1.929   7.678  19.343  0.00  0.00    +0.000 C 
ATOM      3  S   UNL     1       2.192   8.515  17.864  0.00  0.00    +0.000 S 
ATOM      4  C   UNL     1       1.731  10.046  18.571  0.00  0.00    +0.000 C 
ATOM      5  O   UNL     1       1.965  11.119  18.038  0.00  0.00    +0.000 OA
ATOM      6  N   UNL     1       1.189   9.847  19.813  0.00  0.00    +0.000 N 
ATOM      7  C   UNL     1       1.292   8.586  20.339  0.00  0.00    +0.000 C 
ATOM      8  O   UNL     1       1.045   8.259  21.494  0.00  0.00    +0.000 OA
ENDROOT
BRANCH   1  14
ATOM      9  C   UNL     1       2.729   4.591  18.004  0.00  0.00    +0.000 A 
ATOM     10  C   UNL     1       3.638   3.778  17.313  0.00  0.00    +0.000 A 
ATOM     11  C   UNL     1       5.014   3.990  17.417  0.00  0.00    +0.000 A 
ATOM     12  C   UNL     1       5.497   5.016  18.224  0.00  0.00    +0.000 A 
ATOM     13  C   UNL     1       4.604   5.830  18.921  0.00  0.00    +0.000 A 
ATOM     14  C   UNL     1       3.217   5.625  18.827  0.00  0.00    +0.000 A 
BRANCH   9  16
ATOM     15  C   UNL     1       1.031   3.020  18.591  0.00  0.00    +0.000 C 
ATOM     16  O   UNL     1       1.427   4.182  17.874  0.00  0.00    +0.000 OA
ENDBRANCH   9  16
ENDBRANCH   1  14
BRANCH   6  17
ATOM     17  C   UNL     1       0.832  10.982  20.641  0.00  0.00    +0.000 C 
BRANCH  17  18
ATOM     18  C   UNL     1      -0.642  11.401  20.501  0.00  0.00    +0.000 C 
ATOM     19  O   UNL     1      -1.386  10.834  19.698  0.00  0.00    +0.000 OA
ATOM     20  N   UNL     1      -1.142  12.350  21.413  0.00  0.00    +0.000 N 
ATOM     21  C   UNL     1      -0.279  13.237  22.187  0.00  0.00    +0.000 C 
BRANCH  20  22
ATOM     22  C   UNL     1      -2.611  12.375  21.635  0.00  0.00    +0.000 C 
ATOM     23  C   UNL     1      -3.328  13.481  20.837  0.00  0.00    +0.000 C 
ATOM     24  C   UNL     1      -3.284  14.743  21.678  0.00  0.00    +0.000 C 
ATOM     25  S   UNL     1      -3.598  14.182  23.338  0.00  0.00    +0.000 S 
ATOM     26  O   UNL     1      -5.026  14.202  23.571  0.00  0.00    +0.000 OA
ATOM     27  O   UNL     1      -2.660  14.828  24.233  0.00  0.00    +0.000 OA
ATOM     28  C   UNL     1      -3.090  12.488  23.094  0.00  0.00    +0.000 C 
ENDBRANCH  20  22
ENDBRANCH  17  18
ENDBRANCH   6  17
TORSDOF 5
ENDMDL
MODEL 8
REMARK VINA RESULT:      -6.7      1.293      1.431
REMARK  Name = 
REMARK  7 active torsions:
REMARK  status: ('A' for Active; 'I' for Inactive)
REMARK    1  A    between atoms: C_1  and  O_2
REMARK    2  A    between atoms: O_2  and  C_3
REMARK    3  A    between atoms: C_8  and  C_9
REMARK    4  A    between atoms: N_14  and  C_15
REMARK    5  A    between atoms: C_15  and  C_16
REMARK    6  A    between atoms: N_18  and  C_19
REMARK    7  A    between atoms: N_18  and  C_20
REMARK                            x       y       z     vdW  Elec       q    Type
REMARK                         _______ _______ _______ _____ _____    ______ ____
ROOT
ATOM      1  C   UNL     1       2.696   6.851  18.178  0.00  0.00    +0.000 C 
ATOM      2  C   UNL     1       2.162   7.724  19.042  0.00  0.00    +0.000 C 
ATOM      3  S   UNL     1       1.597   7.412  20.635  0.00  0.00    +0.000 S 
ATOM      4  C   UNL     1       0.705   8.915  20.686  0.00  0.00    +0.000 C 
ATOM      5  O   UNL     1      -0.147   9.152  21.527  0.00  0.00    +0.000 OA
ATOM      6  N   UNL     1       1.035   9.695  19.609  0.00  0.00    +0.000 N 
ATOM      7  C   UNL     1       1.796   9.109  18.630  0.00  0.00    +0.000 C 
ATOM      8  O   UNL     1       2.029   9.571  17.519  0.00  0.00    +0.000 OA
ENDROOT
BRANCH   1  14
ATOM      9  C   UNL     1       3.921   4.857  19.149  0.00  0.00    +0.000 A 
ATOM     10  C   UNL     1       4.026   3.462  19.252  0.00  0.00    +0.000 A 
ATOM     11  C   UNL     1       3.064   2.627  18.680  0.00  0.00    +0.000 A 
ATOM     12  C   UNL     1       1.990   3.178  17.990  0.00  0.00    +0.000 A 
ATOM     13  C   UNL     1       1.876   4.564  17.876  0.00  0.00    +0.000 A 
ATOM     14  C   UNL     1       2.839   5.417  18.443  0.00  0.00    +0.000 A 
BRANCH   9  16
ATOM     15  C   UNL     1       6.266   5.299  19.065  0.00  0.00    +0.000 C 
ATOM     16  O   UNL     1       4.999   5.522  19.673  0.00  0.00    +0.000 OA
ENDBRANCH   9  16
ENDBRANCH   1  14
BRANCH   6  17
ATOM     17  C   UNL     1       0.340  10.945  19.376  0.00  0.00    +0.000 C 
BRANCH  17  18
ATOM     18  C   UNL     1       0.602  12.001  20.464  0.00  0.00    +0.000 C 
ATOM     19  O   UNL     1       1.737  12.180  20.910  0.00  0.00    +0.000 OA
ATOM     20  N   UNL     1      -0.465  12.845  20.827  0.00  0.00    +0.000 N 
ATOM     21  C   UNL     1      -1.862  12.521  20.550  0.00  0.00    +0.000 C 
BRANCH  20  22
ATOM     22  C   UNL     1      -0.122  14.150  21.449  0.00  0.00    +0.000 C 
ATOM     23  C   UNL     1      -1.357  14.939  21.927  0.00  0.00    +0.000 C 
ATOM     24  C   UNL     1      -1.857  15.750  20.748  0.00  0.00    +0.000 C 
ATOM     25  S   UNL     1      -0.377  16.358  19.968  0.00  0.00    +0.000 S 
ATOM     26  O   UNL     1      -0.030  17.631  20.563  0.00  0.00    +0.000 OA
ATOM     27  O   UNL     1      -0.499  16.183  18.535  0.00  0.00    +0.000 OA
ATOM     28  C   UNL     1       0.733  15.115  20.608  0.00  0.00    +0.000 C 
ENDBRANCH  20  22
ENDBRANCH  17  18
ENDBRANCH   6  17
TORSDOF 5
ENDMDL
MODEL 9
REMARK VINA RESULT:      -6.6      2.580      3.447
REMARK  Name = 
REMARK  7 active torsions:
REMARK  status: ('A' for Active; 'I' for Inactive)
REMARK    1  A    between atoms: C_1  and  O_2
REMARK    2  A    between atoms: O_2  and  C_3
REMARK    3  A    between atoms: C_8  and  C_9
REMARK    4  A    between atoms: N_14  and  C_15
REMARK    5  A    between atoms: C_15  and  C_16
REMARK    6  A    between atoms: N_18  and  C_19
REMARK    7  A    between atoms: N_18  and  C_20
REMARK                            x       y       z     vdW  Elec       q    Type
REMARK                         _______ _______ _______ _____ _____    ______ ____
ROOT
ATOM      1  C   UNL     1       4.363   6.905  17.129  0.00  0.00    +0.000 C 
ATOM      2  C   UNL     1       3.760   6.741  18.313  0.00  0.00    +0.000 C 
ATOM      3  S   UNL     1       3.940   5.431  19.411  0.00  0.00    +0.000 S 
ATOM      4  C   UNL     1       2.486   5.869  20.278  0.00  0.00    +0.000 C 
ATOM      5  O   UNL     1       1.932   5.118  21.064  0.00  0.00    +0.000 OA
ATOM      6  N   UNL     1       2.041   7.096  19.861  0.00  0.00    +0.000 N 
ATOM      7  C   UNL     1       2.652   7.634  18.758  0.00  0.00    +0.000 C 
ATOM      8  O   UNL     1       2.275   8.614  18.126  0.00  0.00    +0.000 OA
ENDROOT
BRANCH   1  14
ATOM      9  C   UNL     1       6.625   5.790  16.883  0.00  0.00    +0.000 A 
ATOM     10  C   UNL     1       7.439   4.898  16.169  0.00  0.00    +0.000 A 
ATOM     11  C   UNL     1       6.917   4.131  15.125  0.00  0.00    +0.000 A 
ATOM     12  C   UNL     1       5.576   4.255  14.778  0.00  0.00    +0.000 A 
ATOM     13  C   UNL     1       4.757   5.142  15.476  0.00  0.00    +0.000 A 
ATOM     14  C   UNL     1       5.270   5.923  16.527  0.00  0.00    +0.000 A 
BRANCH   9  16
ATOM     15  C   UNL     1       7.718   5.891  19.003  0.00  0.00    +0.000 C 
ATOM     16  O   UNL     1       7.316   6.537  17.801  0.00  0.00    +0.000 OA
ENDBRANCH   9  16
ENDBRANCH   1  14
BRANCH   6  17
ATOM     17  C   UNL     1       0.786   7.622  20.360  0.00  0.00    +0.000 C 
BRANCH  17  18
ATOM     18  C   UNL     1       0.933   8.977  21.075  0.00  0.00    +0.000 C 
ATOM     19  O   UNL     1       1.624   9.083  22.090  0.00  0.00    +0.000 OA
ATOM     20  N   UNL     1       0.372  10.108  20.453  0.00  0.00    +0.000 N 
ATOM     21  C   UNL     1      -0.662  10.018  19.425  0.00  0.00    +0.000 C 
BRANCH  20  22
ATOM     22  C   UNL     1       0.927  11.436  20.822  0.00  0.00    +0.000 C 
ATOM     23  C   UNL     1      -0.042  12.287  21.666  0.00  0.00    +0.000 C 
ATOM     24  C   UNL     1      -0.933  13.045  20.700  0.00  0.00    +0.000 C 
ATOM     25  S   UNL     1       0.163  13.563  19.397  0.00  0.00    +0.000 S 
ATOM     26  O   UNL     1       0.712  14.857  19.742  0.00  0.00    +0.000 OA
ATOM     27  O   UNL     1      -0.476  13.310  18.122  0.00  0.00    +0.000 OA
ATOM     28  C   UNL     1       1.422  12.326  19.668  0.00  0.00    +0.000 C 
ENDBRANCH  20  22
ENDBRANCH  17  18
ENDBRANCH   6  17
TORSDOF 5
ENDMDL
