MODEL 1
REMARK VINA RESULT:      -7.2      0.000      0.000
REMARK  Name = 
REMARK  9 active torsions:
REMARK  status: ('A' for Active; 'I' for Inactive)
REMARK    1  A    between atoms: C_2  and  C_3
REMARK    2  A    between atoms: N_5  and  C_6
REMARK    3  A    between atoms: C_9  and  S_10
REMARK    4  A    between atoms: S_10  and  N_13
REMARK    5  A    between atoms: C_17  and  O_19
REMARK    6  A    between atoms: O_19  and  C_20
REMARK    7  A    between atoms: C_20  and  C_21
REMARK    8  A    between atoms: C_20  and  C_22
REMARK    9  A    between atoms: C_20  and  C_23
REMARK                            x       y       z     vdW  Elec       q    Type
REMARK                         _______ _______ _______ _____ _____    ______ ____
ROOT
ATOM      1  S   UNL     1       1.298   2.972  19.986  0.00  0.00    +0.000 S 
ATOM      2  O   UNL     1       1.066   2.934  21.415  0.00  0.00    +0.000 OA
ATOM      3  O   UNL     1       0.304   2.469  19.060  0.00  0.00    +0.000 OA
ENDROOT
BRANCH   1   4
ATOM      4  N   UNL     1       2.736   2.148  19.681  0.00  0.00    +0.000 NA
ATOM      5  C   UNL     1       2.953   1.483  18.379  0.00  0.00    +0.000 C 
ATOM      6  C   UNL     1       3.661   2.413  17.399  0.00  0.00    +0.000 C 
ATOM      7  N   UNL     1       4.794   3.162  17.956  0.00  0.00    +0.000 N 
ATOM      8  C   UNL     1       5.526   3.877  17.016  0.00  0.00    +0.000 C 
ATOM      9  O   UNL     1       5.427   3.654  15.815  0.00  0.00    +0.000 OA
ATOM     10  C   UNL     1       4.758   3.572  19.362  0.00  0.00    +0.000 C 
ATOM     11  C   UNL     1       4.014   2.597  20.278  0.00  0.00    +0.000 C 
BRANCH   8  12
ATOM     12  O   UNL     1       6.324   4.843  17.557  0.00  0.00    +0.000 OA
BRANCH  12  13
ATOM     13  C   UNL     1       6.610   6.025  16.757  0.00  0.00    +0.000 C 
ATOM     14  C   UNL     1       7.261   5.657  15.413  0.00  0.00    +0.000 C 
ATOM     15  C   UNL     1       5.254   6.684  16.451  0.00  0.00    +0.000 C 
ATOM     16  C   UNL     1       7.447   7.029  17.563  0.00  0.00    +0.000 C 
ENDBRANCH  12  13
ENDBRANCH   8  12
ENDBRANCH   1   4
BRANCH   1  20
ATOM     17  C   UNL     1       2.174   7.363  18.903  0.00  0.00    +0.000 A 
ATOM     18  C   UNL     1       2.048   6.965  20.238  0.00  0.00    +0.000 A 
ATOM     19  C   UNL     1       1.761   5.633  20.568  0.00  0.00    +0.000 A 
ATOM     20  C   UNL     1       1.580   4.684  19.560  0.00  0.00    +0.000 A 
ATOM     21  C   UNL     1       1.770   5.054  18.226  0.00  0.00    +0.000 A 
ATOM     22  C   UNL     1       2.037   6.393  17.901  0.00  0.00    +0.000 A 
BRANCH  17  25
ATOM     23  C   UNL     1       1.537   9.759  18.599  0.00  0.00    +0.000 C 
ATOM     24  O   UNL     1       0.439   9.754  19.140  0.00  0.00    +0.000 OA
ATOM     25  N   UNL     1       2.418   8.697  18.503  0.00  0.00    +0.000 N 
ATOM     26  H   UNL     1       3.341   8.890  18.139  0.00  0.00    +0.000 HD
BRANCH  23  28
ATOM     27  C   UNL     1       1.823  12.198  18.531  0.00  0.00    +0.000 C 
ATOM     28  C   UNL     1       2.074  11.005  17.976  0.00  0.00    +0.000 C 
ENDBRANCH  23  28
ENDBRANCH  17  25
ENDBRANCH   1  20
TORSDOF 6
ENDMDL
MODEL 2
REMARK VINA RESULT:      -7.1      0.219      1.268
REMARK  Name = 
REMARK  9 active torsions:
REMARK  status: ('A' for Active; 'I' for Inactive)
REMARK    1  A    between atoms: C_2  and  C_3
REMARK    2  A    between atoms: N_5  and  C_6
REMARK    3  A    between atoms: C_9  and  S_10
REMARK    4  A    between atoms: S_10  and  N_13
REMARK    5  A    between atoms: C_17  and  O_19
REMARK    6  A    between atoms: O_19  and  C_20
REMARK    7  A    between atoms: C_20  and  C_21
REMARK    8  A    between atoms: C_20  and  C_22
REMARK    9  A    between atoms: C_20  and  C_23
REMARK                            x       y       z     vdW  Elec       q    Type
REMARK                         _______ _______ _______ _____ _____    ______ ____
ROOT
ATOM      1  S   UNL     1       1.380   3.188  20.124  0.00  0.00    +0.000 S 
ATOM      2  O   UNL     1       1.262   3.184  21.567  0.00  0.00    +0.000 OA
ATOM      3  O   UNL     1       0.285   2.741  19.289  0.00  0.00    +0.000 OA
ENDROOT
BRANCH   1   4
ATOM      4  N   UNL     1       2.732   2.265  19.722  0.00  0.00    +0.000 NA
ATOM      5  C   UNL     1       2.814   1.597  18.406  0.00  0.00    +0.000 C 
ATOM      6  C   UNL     1       3.521   2.481  17.385  0.00  0.00    +0.000 C 
ATOM      7  N   UNL     1       4.739   3.142  17.867  0.00  0.00    +0.000 N 
ATOM      8  C   UNL     1       5.457   3.810  16.882  0.00  0.00    +0.000 C 
ATOM      9  O   UNL     1       5.263   3.605  15.690  0.00  0.00    +0.000 OA
ATOM     10  C   UNL     1       4.826   3.543  19.273  0.00  0.00    +0.000 C 
ATOM     11  C   UNL     1       4.076   2.616  20.234  0.00  0.00    +0.000 C 
BRANCH   8  12
ATOM     12  O   UNL     1       6.357   4.712  17.372  0.00  0.00    +0.000 OA
BRANCH  12  13
ATOM     13  C   UNL     1       6.563   5.948  16.631  0.00  0.00    +0.000 C 
ATOM     14  C   UNL     1       5.240   6.699  16.402  0.00  0.00    +0.000 C 
ATOM     15  C   UNL     1       7.456   6.840  17.511  0.00  0.00    +0.000 C 
ATOM     16  C   UNL     1       7.320   5.672  15.324  0.00  0.00    +0.000 C 
ENDBRANCH  12  13
ENDBRANCH   8  12
ENDBRANCH   1   4
BRANCH   1  20
ATOM     17  C   UNL     1       2.162   7.551  18.869  0.00  0.00    +0.000 A 
ATOM     18  C   UNL     1       2.072   6.535  17.912  0.00  0.00    +0.000 A 
ATOM     19  C   UNL     1       1.854   5.204  18.295  0.00  0.00    +0.000 A 
ATOM     20  C   UNL     1       1.740   4.871  19.646  0.00  0.00    +0.000 A 
ATOM     21  C   UNL     1       1.762   5.886  20.607  0.00  0.00    +0.000 A 
ATOM     22  C   UNL     1       2.000   7.214  20.219  0.00  0.00    +0.000 A 
BRANCH  17  25
ATOM     23  C   UNL     1       1.496   9.923  18.462  0.00  0.00    +0.000 C 
ATOM     24  O   UNL     1       0.305   9.857  18.741  0.00  0.00    +0.000 OA
ATOM     25  N   UNL     1       2.425   8.904  18.552  0.00  0.00    +0.000 N 
ATOM     26  H   UNL     1       3.396   9.146  18.408  0.00  0.00    +0.000 HD
BRANCH  23  28
ATOM     27  C   UNL     1       1.925  12.331  18.702  0.00  0.00    +0.000 C 
ATOM     28  C   UNL     1       2.097  11.206  17.994  0.00  0.00    +0.000 C 
ENDBRANCH  23  28
ENDBRANCH  17  25
ENDBRANCH   1  20
TORSDOF 6
ENDMDL
MODEL 3
REMARK VINA RESULT:      -6.8      4.198      9.466
REMARK  Name = 
REMARK  9 active torsions:
REMARK  status: ('A' for Active; 'I' for Inactive)
REMARK    1  A    between atoms: C_2  and  C_3
REMARK    2  A    between atoms: N_5  and  C_6
REMARK    3  A    between atoms: C_9  and  S_10
REMARK    4  A    between atoms: S_10  and  N_13
REMARK    5  A    between atoms: C_17  and  O_19
REMARK    6  A    between atoms: O_19  and  C_20
REMARK    7  A    between atoms: C_20  and  C_21
REMARK    8  A    between atoms: C_20  and  C_22
REMARK    9  A    between atoms: C_20  and  C_23
REMARK                            x       y       z     vdW  Elec       q    Type
REMARK                         _______ _______ _______ _____ _____    ______ ____
ROOT
ATOM      1  S   UNL     1       0.824   9.258  21.181  0.00  0.00    +0.000 S 
ATOM      2  O   UNL     1      -0.519   8.773  21.419  0.00  0.00    +0.000 OA
ATOM      3  O   UNL     1       1.716   9.543  22.285  0.00  0.00    +0.000 OA
ENDROOT
BRANCH   1   4
ATOM      4  N   UNL     1       0.701  10.662  20.256  0.00  0.00    +0.000 NA
ATOM      5  C   UNL     1      -0.342  10.781  19.216  0.00  0.00    +0.000 C 
ATOM      6  C   UNL     1      -1.603  11.430  19.775  0.00  0.00    +0.000 C 
ATOM      7  N   UNL     1      -1.378  12.607  20.621  0.00  0.00    +0.000 N 
ATOM      8  C   UNL     1      -2.537  13.281  20.987  0.00  0.00    +0.000 C 
ATOM      9  O   UNL     1      -3.601  13.097  20.408  0.00  0.00    +0.000 OA
ATOM     10  C   UNL     1      -0.169  12.673  21.446  0.00  0.00    +0.000 C 
ATOM     11  C   UNL     1       1.049  11.984  20.825  0.00  0.00    +0.000 C 
BRANCH   8  12
ATOM     12  O   UNL     1      -2.372  14.126  22.046  0.00  0.00    +0.000 OA
BRANCH  12  13
ATOM     13  C   UNL     1      -3.126  13.858  23.262  0.00  0.00    +0.000 C 
ATOM     14  C   UNL     1      -3.214  12.350  23.554  0.00  0.00    +0.000 C 
ATOM     15  C   UNL     1      -2.342  14.509  24.415  0.00  0.00    +0.000 C 
ATOM     16  C   UNL     1      -4.506  14.528  23.198  0.00  0.00    +0.000 C 
ENDBRANCH  12  13
ENDBRANCH   8  12
ENDBRANCH   1   4
BRANCH   1  20
ATOM     17  C   UNL     1       2.784   6.061  18.506  0.00  0.00    +0.000 A 
ATOM     18  C   UNL     1       2.336   5.743  19.791  0.00  0.00    +0.000 A 
ATOM     19  C   UNL     1       1.758   6.720  20.614  0.00  0.00    +0.000 A 
ATOM     20  C   UNL     1       1.636   8.036  20.162  0.00  0.00    +0.000 A 
ATOM     21  C   UNL     1       2.019   8.352  18.856  0.00  0.00    +0.000 A 
ATOM     22  C   UNL     1       2.615   7.373  18.044  0.00  0.00    +0.000 A 
BRANCH  17  25
ATOM     23  C   UNL     1       4.770   5.045  17.382  0.00  0.00    +0.000 C 
ATOM     24  O   UNL     1       5.665   5.679  17.925  0.00  0.00    +0.000 OA
ATOM     25  N   UNL     1       3.415   5.134  17.644  0.00  0.00    +0.000 N 
ATOM     26  H   UNL     1       2.811   4.454  17.204  0.00  0.00    +0.000 HD
BRANCH  23  28
ATOM     27  C   UNL     1       5.743   4.385  15.224  0.00  0.00    +0.000 C 
ATOM     28  C   UNL     1       5.084   4.028  16.335  0.00  0.00    +0.000 C 
ENDBRANCH  23  28
ENDBRANCH  17  25
ENDBRANCH   1  20
TORSDOF 6
ENDMDL
MODEL 4
REMARK VINA RESULT:      -6.8      4.727      9.745
REMARK  Name = 
REMARK  9 active torsions:
REMARK  status: ('A' for Active; 'I' for Inactive)
REMARK    1  A    between atoms: C_2  and  C_3
REMARK    2  A    between atoms: N_5  and  C_6
REMARK    3  A    between atoms: C_9  and  S_10
REMARK    4  A    between atoms: S_10  and  N_13
REMARK    5  A    between atoms: C_17  and  O_19
REMARK    6  A    between atoms: O_19  and  C_20
REMARK    7  A    between atoms: C_20  and  C_21
REMARK    8  A    between atoms: C_20  and  C_22
REMARK    9  A    between atoms: C_20  and  C_23
REMARK                            x       y       z     vdW  Elec       q    Type
REMARK                         _______ _______ _______ _____ _____    ______ ____
ROOT
ATOM      1  S   UNL     1       0.375  10.305  19.919  0.00  0.00    +0.000 S 
ATOM      2  O   UNL     1      -0.666   9.670  20.700  0.00  0.00    +0.000 OA
ATOM      3  O   UNL     1       1.233  11.313  20.507  0.00  0.00    +0.000 OA
ENDROOT
BRANCH   1   4
ATOM      4  N   UNL     1      -0.354  10.991  18.562  0.00  0.00    +0.000 NA
ATOM      5  C   UNL     1      -1.124  10.148  17.624  0.00  0.00    +0.000 C 
ATOM      6  C   UNL     1      -2.603  10.121  17.998  0.00  0.00    +0.000 C 
ATOM      7  N   UNL     1      -3.183  11.422  18.346  0.00  0.00    +0.000 N 
ATOM      8  C   UNL     1      -4.561  11.406  18.526  0.00  0.00    +0.000 C 
ATOM      9  O   UNL     1      -5.253  10.477  18.127  0.00  0.00    +0.000 OA
ATOM     10  C   UNL     1      -2.344  12.426  19.006  0.00  0.00    +0.000 C 
ATOM     11  C   UNL     1      -0.871  12.377  18.592  0.00  0.00    +0.000 C 
BRANCH   8  12
ATOM     12  O   UNL     1      -5.043  12.493  19.196  0.00  0.00    +0.000 OA
BRANCH  12  13
ATOM     13  C   UNL     1      -6.294  13.082  18.741  0.00  0.00    +0.000 C 
ATOM     14  C   UNL     1      -7.512  12.325  19.296  0.00  0.00    +0.000 C 
ATOM     15  C   UNL     1      -6.336  14.510  19.310  0.00  0.00    +0.000 C 
ATOM     16  C   UNL     1      -6.312  13.188  17.209  0.00  0.00    +0.000 C 
ENDBRANCH  12  13
ENDBRANCH   8  12
ENDBRANCH   1   4
BRANCH   1  20
ATOM     17  C   UNL     1       3.003   6.860  18.355  0.00  0.00    +0.000 A 
ATOM     18  C   UNL     1       2.450   6.814  19.639  0.00  0.00    +0.000 A 
ATOM     19  C   UNL     1       1.667   7.871  20.123  0.00  0.00    +0.000 A 
ATOM     20  C   UNL     1       1.441   8.998  19.330  0.00  0.00    +0.000 A 
ATOM     21  C   UNL     1       1.931   9.027  18.022  0.00  0.00    +0.000 A 
ATOM     22  C   UNL     1       2.732   7.974  17.549  0.00  0.00    +0.000 A 
BRANCH  17  25
ATOM     23  C   UNL     1       3.457   4.566  17.479  0.00  0.00    +0.000 C 
ATOM     24  O   UNL     1       2.318   4.115  17.472  0.00  0.00    +0.000 OA
ATOM     25  N   UNL     1       3.837   5.849  17.824  0.00  0.00    +0.000 N 
ATOM     26  H   UNL     1       4.800   6.109  17.657  0.00  0.00    +0.000 HD
BRANCH  23  28
ATOM     27  C   UNL     1       5.438   4.138  16.089  0.00  0.00    +0.000 C 
ATOM     28  C   UNL     1       4.613   3.720  17.059  0.00  0.00    +0.000 C 
ENDBRANCH  23  28
ENDBRANCH  17  25
ENDBRANCH   1  20
TORSDOF 6
ENDMDL
MODEL 5
REMARK VINA RESULT:      -6.7      3.614      6.654
REMARK  Name = 
REMARK  9 active torsions:
REMARK  status: ('A' for Active; 'I' for Inactive)
REMARK    1  A    between atoms: C_2  and  C_3
REMARK    2  A    between atoms: N_5  and  C_6
REMARK    3  A    between atoms: C_9  and  S_10
REMARK    4  A    between atoms: S_10  and  N_13
REMARK    5  A    between atoms: C_17  and  O_19
REMARK    6  A    between atoms: O_19  and  C_20
REMARK    7  A    between atoms: C_20  and  C_21
REMARK    8  A    between atoms: C_20  and  C_22
REMARK    9  A    between atoms: C_20  and  C_23
REMARK                            x       y       z     vdW  Elec       q    Type
REMARK                         _______ _______ _______ _____ _____    ______ ____
ROOT
ATOM      1  S   UNL     1       7.060   5.404  16.551  0.00  0.00    +0.000 S 
ATOM      2  O   UNL     1       7.501   5.563  15.181  0.00  0.00    +0.000 OA
ATOM      3  O   UNL     1       7.402   4.218  17.308  0.00  0.00    +0.000 OA
ENDROOT
BRANCH   1   4
ATOM      4  N   UNL     1       5.380   5.545  16.564  0.00  0.00    +0.000 NA
ATOM      5  C   UNL     1       4.546   4.584  15.811  0.00  0.00    +0.000 C 
ATOM      6  C   UNL     1       4.127   3.412  16.692  0.00  0.00    +0.000 C 
ATOM      7  N   UNL     1       3.666   3.775  18.036  0.00  0.00    +0.000 N 
ATOM      8  C   UNL     1       3.137   2.717  18.766  0.00  0.00    +0.000 C 
ATOM      9  O   UNL     1       2.803   1.667  18.230  0.00  0.00    +0.000 OA
ATOM     10  C   UNL     1       4.255   4.938  18.705  0.00  0.00    +0.000 C 
ATOM     11  C   UNL     1       4.666   6.063  17.752  0.00  0.00    +0.000 C 
BRANCH   8  12
ATOM     12  O   UNL     1       3.056   2.958  20.107  0.00  0.00    +0.000 OA
BRANCH  12  13
ATOM     13  C   UNL     1       1.757   3.305  20.665  0.00  0.00    +0.000 C 
ATOM     14  C   UNL     1       1.617   4.823  20.874  0.00  0.00    +0.000 C 
ATOM     15  C   UNL     1       0.706   2.881  19.625  0.00  0.00    +0.000 C 
ATOM     16  C   UNL     1       1.493   2.506  21.950  0.00  0.00    +0.000 C 
ENDBRANCH  12  13
ENDBRANCH   8  12
ENDBRANCH   1   4
BRANCH   1  20
ATOM     17  C   UNL     1       8.583   9.029  18.950  0.00  0.00    +0.000 A 
ATOM     18  C   UNL     1       8.015   9.196  17.684  0.00  0.00    +0.000 A 
ATOM     19  C   UNL     1       7.570   8.091  16.944  0.00  0.00    +0.000 A 
ATOM     20  C   UNL     1       7.704   6.801  17.460  0.00  0.00    +0.000 A 
ATOM     21  C   UNL     1       8.208   6.626  18.752  0.00  0.00    +0.000 A 
ATOM     22  C   UNL     1       8.671   7.734  19.480  0.00  0.00    +0.000 A 
BRANCH  17  25
ATOM     23  C   UNL     1      10.005  11.050  19.317  0.00  0.00    +0.000 C 
ATOM     24  O   UNL     1      10.450  11.202  18.187  0.00  0.00    +0.000 OA
ATOM     25  N   UNL     1       9.092  10.096  19.728  0.00  0.00    +0.000 N 
ATOM     26  H   UNL     1       8.724  10.178  20.665  0.00  0.00    +0.000 HD
BRANCH  23  28
ATOM     27  C   UNL     1       9.556  12.256  21.411  0.00  0.00    +0.000 C 
ATOM     28  C   UNL     1      10.415  11.963  20.425  0.00  0.00    +0.000 C 
ENDBRANCH  23  28
ENDBRANCH  17  25
ENDBRANCH   1  20
TORSDOF 6
ENDMDL
MODEL 6
REMARK VINA RESULT:      -6.7      3.027      7.955
REMARK  Name = 
REMARK  9 active torsions:
REMARK  status: ('A' for Active; 'I' for Inactive)
REMARK    1  A    between atoms: C_2  and  C_3
REMARK    2  A    between atoms: N_5  and  C_6
REMARK    3  A    between atoms: C_9  and  S_10
REMARK    4  A    between atoms: S_10  and  N_13
REMARK    5  A    between atoms: C_17  and  O_19
REMARK    6  A    between atoms: O_19  and  C_20
REMARK    7  A    between atoms: C_20  and  C_21
REMARK    8  A    between atoms: C_20  and  C_22
REMARK    9  A    between atoms: C_20  and  C_23
REMARK                            x       y       z     vdW  Elec       q    Type
REMARK                         _______ _______ _______ _____ _____    ______ ____
ROOT
ATOM      1  S   UNL     1       4.703   6.254  18.159  0.00  0.00    +0.000 S 
ATOM      2  O   UNL     1       5.086   5.411  19.272  0.00  0.00    +0.000 OA
ATOM      3  O   UNL     1       5.216   7.603  18.040  0.00  0.00    +0.000 OA
ENDROOT
BRANCH   1   4
ATOM      4  N   UNL     1       3.020   6.351  18.149  0.00  0.00    +0.000 NA
ATOM      5  C   UNL     1       2.241   5.913  19.326  0.00  0.00    +0.000 C 
ATOM      6  C   UNL     1       1.975   7.079  20.272  0.00  0.00    +0.000 C 
ATOM      7  N   UNL     1       1.550   8.325  19.625  0.00  0.00    +0.000 N 
ATOM      8  C   UNL     1       1.157   9.325  20.507  0.00  0.00    +0.000 C 
ATOM      9  O   UNL     1       0.894   9.084  21.679  0.00  0.00    +0.000 OA
ATOM     10  C   UNL     1       2.063   8.649  18.291  0.00  0.00    +0.000 C 
ATOM     11  C   UNL     1       2.322   7.426  17.408  0.00  0.00    +0.000 C 
BRANCH   8  12
ATOM     12  O   UNL     1       1.120  10.569  19.949  0.00  0.00    +0.000 OA
BRANCH  12  13
ATOM     13  C   UNL     1      -0.177  11.206  19.773  0.00  0.00    +0.000 C 
ATOM     14  C   UNL     1      -0.749  11.706  21.111  0.00  0.00    +0.000 C 
ATOM     15  C   UNL     1       0.058  12.437  18.881  0.00  0.00    +0.000 C 
ATOM     16  C   UNL     1      -1.140  10.268  19.032  0.00  0.00    +0.000 C 
ENDBRANCH  12  13
ENDBRANCH   8  12
ENDBRANCH   1   4
BRANCH   1  20
ATOM     17  C   UNL     1       6.080   4.053  14.355  0.00  0.00    +0.000 A 
ATOM     18  C   UNL     1       5.832   5.429  14.336  0.00  0.00    +0.000 A 
ATOM     19  C   UNL     1       5.393   6.096  15.488  0.00  0.00    +0.000 A 
ATOM     20  C   UNL     1       5.182   5.387  16.672  0.00  0.00    +0.000 A 
ATOM     21  C   UNL     1       5.490   4.025  16.722  0.00  0.00    +0.000 A 
ATOM     22  C   UNL     1       5.911   3.358  15.560  0.00  0.00    +0.000 A 
BRANCH  17  25
ATOM     23  C   UNL     1       5.687   2.966  12.140  0.00  0.00    +0.000 C 
ATOM     24  O   UNL     1       4.535   3.323  11.933  0.00  0.00    +0.000 OA
ATOM     25  N   UNL     1       6.481   3.313  13.217  0.00  0.00    +0.000 N 
ATOM     26  H   UNL     1       7.454   3.043  13.184  0.00  0.00    +0.000 HD
BRANCH  23  28
ATOM     27  C   UNL     1       6.086   0.783  11.084  0.00  0.00    +0.000 C 
ATOM     28  C   UNL     1       6.397   2.084  11.167  0.00  0.00    +0.000 C 
ENDBRANCH  23  28
ENDBRANCH  17  25
ENDBRANCH   1  20
TORSDOF 6
ENDMDL
MODEL 7
REMARK VINA RESULT:      -6.6      0.448      1.008
REMARK  Name = 
REMARK  9 active torsions:
REMARK  status: ('A' for Active; 'I' for Inactive)
REMARK    1  A    between atoms: C_2  and  C_3
REMARK    2  A    between atoms: N_5  and  C_6
REMARK    3  A    between atoms: C_9  and  S_10
REMARK    4  A    between atoms: S_10  and  N_13
REMARK    5  A    between atoms: C_17  and  O_19
REMARK    6  A    between atoms: O_19  and  C_20
REMARK    7  A    between atoms: C_20  and  C_21
REMARK    8  A    between atoms: C_20  and  C_22
REMARK    9  A    between atoms: C_20  and  C_23
REMARK                            x       y       z     vdW  Elec       q    Type
REMARK                         _______ _______ _______ _____ _____    ______ ____
ROOT
ATOM      1  S   UNL     1       1.335   2.941  19.908  0.00  0.00    +0.000 S 
ATOM      2  O   UNL     1       1.108   2.884  21.337  0.00  0.00    +0.000 OA
ATOM      3  O   UNL     1       0.346   2.435  18.979  0.00  0.00    +0.000 OA
ENDROOT
BRANCH   1   4
ATOM      4  N   UNL     1       2.783   2.138  19.590  0.00  0.00    +0.000 NA
ATOM      5  C   UNL     1       3.004   1.488  18.281  0.00  0.00    +0.000 C 
ATOM      6  C   UNL     1       3.696   2.436  17.308  0.00  0.00    +0.000 C 
ATOM      7  N   UNL     1       4.821   3.194  17.867  0.00  0.00    +0.000 N 
ATOM      8  C   UNL     1       5.540   3.928  16.931  0.00  0.00    +0.000 C 
ATOM      9  O   UNL     1       5.439   3.715  15.728  0.00  0.00    +0.000 OA
ATOM     10  C   UNL     1       4.785   3.591  19.276  0.00  0.00    +0.000 C 
ATOM     11  C   UNL     1       4.057   2.598  20.186  0.00  0.00    +0.000 C 
BRANCH   8  12
ATOM     12  O   UNL     1       6.327   4.899  17.477  0.00  0.00    +0.000 OA
BRANCH  12  13
ATOM     13  C   UNL     1       6.071   6.282  17.104  0.00  0.00    +0.000 C 
ATOM     14  C   UNL     1       5.400   7.063  18.248  0.00  0.00    +0.000 C 
ATOM     15  C   UNL     1       7.444   6.927  16.846  0.00  0.00    +0.000 C 
ATOM     16  C   UNL     1       5.270   6.347  15.796  0.00  0.00    +0.000 C 
ENDBRANCH  12  13
ENDBRANCH   8  12
ENDBRANCH   1   4
BRANCH   1  20
ATOM     17  C   UNL     1       2.153   7.352  18.866  0.00  0.00    +0.000 A 
ATOM     18  C   UNL     1       2.063   6.936  20.197  0.00  0.00    +0.000 A 
ATOM     19  C   UNL     1       1.794   5.597  20.515  0.00  0.00    +0.000 A 
ATOM     20  C   UNL     1       1.595   4.660  19.499  0.00  0.00    +0.000 A 
ATOM     21  C   UNL     1       1.748   5.050  18.166  0.00  0.00    +0.000 A 
ATOM     22  C   UNL     1       1.998   6.396  17.853  0.00  0.00    +0.000 A 
BRANCH  17  25
ATOM     23  C   UNL     1       1.495   9.749  18.619  0.00  0.00    +0.000 C 
ATOM     24  O   UNL     1       0.414   9.731  19.194  0.00  0.00    +0.000 OA
ATOM     25  N   UNL     1       2.377   8.695  18.478  0.00  0.00    +0.000 N 
ATOM     26  H   UNL     1       3.287   8.898  18.088  0.00  0.00    +0.000 HD
BRANCH  23  28
ATOM     27  C   UNL     1       1.832  12.184  18.618  0.00  0.00    +0.000 C 
ATOM     28  C   UNL     1       2.005  11.008  17.999  0.00  0.00    +0.000 C 
ENDBRANCH  23  28
ENDBRANCH  17  25
ENDBRANCH   1  20
TORSDOF 6
ENDMDL
MODEL 8
REMARK VINA RESULT:      -6.6      3.539      6.557
REMARK  Name = 
REMARK  9 active torsions:
REMARK  status: ('A' for Active; 'I' for Inactive)
REMARK    1  A    between atoms: C_2  and  C_3
REMARK    2  A    between atoms: N_5  and  C_6
REMARK    3  A    between atoms: C_9  and  S_10
REMARK    4  A    between atoms: S_10  and  N_13
REMARK    5  A    between atoms: C_17  and  O_19
REMARK    6  A    between atoms: O_19  and  C_20
REMARK    7  A    between atoms: C_20  and  C_21
REMARK    8  A    between atoms: C_20  and  C_22
REMARK    9  A    between atoms: C_20  and  C_23
REMARK                            x       y       z     vdW  Elec       q    Type
REMARK                         _______ _______ _______ _____ _____    ______ ____
ROOT
ATOM      1  S   UNL     1       6.985   5.177  17.253  0.00  0.00    +0.000 S 
ATOM      2  O   UNL     1       7.917   4.751  16.230  0.00  0.00    +0.000 OA
ATOM      3  O   UNL     1       6.765   4.374  18.438  0.00  0.00    +0.000 OA
ENDROOT
BRANCH   1   4
ATOM      4  N   UNL     1       5.487   5.407  16.514  0.00  0.00    +0.000 NA
ATOM      5  C   UNL     1       4.892   4.335  15.688  0.00  0.00    +0.000 C 
ATOM      6  C   UNL     1       3.976   3.445  16.522  0.00  0.00    +0.000 C 
ATOM      7  N   UNL     1       3.073   4.156  17.432  0.00  0.00    +0.000 N 
ATOM      8  C   UNL     1       2.137   3.345  18.062  0.00  0.00    +0.000 C 
ATOM      9  O   UNL     1       1.890   2.213  17.661  0.00  0.00    +0.000 OA
ATOM     10  C   UNL     1       3.514   5.416  18.037  0.00  0.00    +0.000 C 
ATOM     11  C   UNL     1       4.444   6.244  17.147  0.00  0.00    +0.000 C 
BRANCH   8  12
ATOM     12  O   UNL     1       1.558   3.917  19.157  0.00  0.00    +0.000 OA
BRANCH  12  13
ATOM     13  C   UNL     1       2.036   3.518  20.473  0.00  0.00    +0.000 C 
ATOM     14  C   UNL     1       3.394   2.800  20.390  0.00  0.00    +0.000 C 
ATOM     15  C   UNL     1       2.247   4.815  21.273  0.00  0.00    +0.000 C 
ATOM     16  C   UNL     1       0.972   2.686  21.203  0.00  0.00    +0.000 C 
ENDBRANCH  12  13
ENDBRANCH   8  12
ENDBRANCH   1   4
BRANCH   1  20
ATOM     17  C   UNL     1       8.541   9.291  18.622  0.00  0.00    +0.000 A 
ATOM     18  C   UNL     1       8.841   8.134  19.348  0.00  0.00    +0.000 A 
ATOM     19  C   UNL     1       8.351   6.884  18.943  0.00  0.00    +0.000 A 
ATOM     20  C   UNL     1       7.538   6.781  17.812  0.00  0.00    +0.000 A 
ATOM     21  C   UNL     1       7.287   7.919  17.041  0.00  0.00    +0.000 A 
ATOM     22  C   UNL     1       7.764   9.171  17.462  0.00  0.00    +0.000 A 
BRANCH  17  25
ATOM     23  C   UNL     1      10.002  11.308  18.439  0.00  0.00    +0.000 C 
ATOM     24  O   UNL     1      10.661  11.002  17.453  0.00  0.00    +0.000 OA
ATOM     25  N   UNL     1       8.967  10.586  19.001  0.00  0.00    +0.000 N 
ATOM     26  H   UNL     1       8.436  11.030  19.738  0.00  0.00    +0.000 HD
BRANCH  23  28
ATOM     27  C   UNL     1      11.136  12.637  20.168  0.00  0.00    +0.000 C 
ATOM     28  C   UNL     1      10.259  12.592  19.156  0.00  0.00    +0.000 C 
ENDBRANCH  23  28
ENDBRANCH  17  25
ENDBRANCH   1  20
TORSDOF 6
ENDMDL
MODEL 9
REMARK VINA RESULT:      -6.6      3.869      6.816
REMARK  Name = 
REMARK  9 active torsions:
REMARK  status: ('A' for Active; 'I' for Inactive)
REMARK    1  A    between atoms: C_2  and  C_3
REMARK    2  A    between atoms: N_5  and  C_6
REMARK    3  A    between atoms: C_9  and  S_10
REMARK    4  A    between atoms: S_10  and  N_13
REMARK    5  A    between atoms: C_17  and  O_19
REMARK    6  A    between atoms: O_19  and  C_20
REMARK    7  A    between atoms: C_20  and  C_21
REMARK    8  A    between atoms: C_20  and  C_22
REMARK    9  A    between atoms: C_20  and  C_23
REMARK                            x       y       z     vdW  Elec       q    Type
REMARK                         _______ _______ _______ _____ _____    ______ ____
ROOT
ATOM      1  S   UNL     1       7.174   5.802  16.873  0.00  0.00    +0.000 S 
ATOM      2  O   UNL     1       7.688   5.844  15.520  0.00  0.00    +0.000 OA
ATOM      3  O   UNL     1       7.518   4.712  17.763  0.00  0.00    +0.000 OA
ENDROOT
BRANCH   1   4
ATOM      4  N   UNL     1       5.492   5.867  16.781  0.00  0.00    +0.000 NA
ATOM      5  C   UNL     1       4.756   4.919  15.919  0.00  0.00    +0.000 C 
ATOM      6  C   UNL     1       4.337   3.678  16.702  0.00  0.00    +0.000 C 
ATOM      7  N   UNL     1       3.773   3.938  18.031  0.00  0.00    +0.000 N 
ATOM      8  C   UNL     1       3.249   2.816  18.661  0.00  0.00    +0.000 C 
ATOM      9  O   UNL     1       3.001   1.787  18.045  0.00  0.00    +0.000 OA
ATOM     10  C   UNL     1       4.262   5.083  18.803  0.00  0.00    +0.000 C 
ATOM     11  C   UNL     1       4.679   6.282  17.947  0.00  0.00    +0.000 C 
BRANCH   8  12
ATOM     12  O   UNL     1       3.070   2.972  20.005  0.00  0.00    +0.000 OA
BRANCH  12  13
ATOM     13  C   UNL     1       1.739   3.313  20.486  0.00  0.00    +0.000 C 
ATOM     14  C   UNL     1       0.648   2.876  19.494  0.00  0.00    +0.000 C 
ATOM     15  C   UNL     1       1.528   2.519  21.786  0.00  0.00    +0.000 C 
ATOM     16  C   UNL     1       1.659   4.807  20.832  0.00  0.00    +0.000 C 
ENDBRANCH  12  13
ENDBRANCH   8  12
ENDBRANCH   1   4
BRANCH   1  20
ATOM     17  C   UNL     1       8.687   9.671  18.863  0.00  0.00    +0.000 A 
ATOM     18  C   UNL     1       8.925   8.424  19.448  0.00  0.00    +0.000 A 
ATOM     19  C   UNL     1       8.447   7.247  18.854  0.00  0.00    +0.000 A 
ATOM     20  C   UNL     1       7.709   7.308  17.671  0.00  0.00    +0.000 A 
ATOM     21  C   UNL     1       7.522   8.541  17.041  0.00  0.00    +0.000 A 
ATOM     22  C   UNL     1       7.985   9.718  17.651  0.00  0.00    +0.000 A 
BRANCH  17  25
ATOM     23  C   UNL     1      10.349  11.479  19.314  0.00  0.00    +0.000 C 
ATOM     24  O   UNL     1      11.275  11.093  18.611  0.00  0.00    +0.000 OA
ATOM     25  N   UNL     1       9.102  10.897  19.434  0.00  0.00    +0.000 N 
ATOM     26  H   UNL     1       8.400  11.404  19.956  0.00  0.00    +0.000 HD
BRANCH  23  28
ATOM     27  C   UNL     1      11.381  13.655  19.806  0.00  0.00    +0.000 C 
ATOM     28  C   UNL     1      10.485  12.716  20.140  0.00  0.00    +0.000 C 
ENDBRANCH  23  28
ENDBRANCH  17  25
ENDBRANCH   1  20
TORSDOF 6
ENDMDL
