MODEL 1
REMARK VINA RESULT:      -7.7      0.000      0.000
REMARK  Name = 
REMARK  9 active torsions:
REMARK  status: ('A' for Active; 'I' for Inactive)
REMARK    1  A    between atoms: C_1  and  O_2
REMARK    2  A    between atoms: O_2  and  C_3
REMARK    3  A    between atoms: C_8  and  N_9
REMARK    4  A    between atoms: N_12  and  C_13
REMARK    5  A    between atoms: C_13  and  C_14
REMARK    6  A    between atoms: C_14  and  N_15
REMARK    7  A    between atoms: C_16  and  C_18
REMARK    8  A    between atoms: N_20  and  C_21
REMARK    9  A    between atoms: C_24  and  N_25
REMARK                            x       y       z     vdW  Elec       q    Type
REMARK                         _______ _______ _______ _____ _____    ______ ____
ROOT
ATOM      1  N   UNL     1       2.108   6.447  20.407  0.00  0.00    +0.000 N 
ATOM      2  C   UNL     1       1.893   5.146  20.022  0.00  0.00    +0.000 C 
ATOM      3  O   UNL     1       0.949   4.475  20.431  0.00  0.00    +0.000 OA
ATOM      4  H   UNL     1       2.780   7.008  19.896  0.00  0.00    +0.000 HD
ENDROOT
BRANCH   2   5
ATOM      5  C   UNL     1       2.869   4.618  19.088  0.00  0.00    +0.000 A 
ATOM      6  C   UNL     1       3.450   5.307  18.046  0.00  0.00    +0.000 A 
ATOM      7  N   UNL     1       4.296   4.409  17.451  0.00  0.00    +0.000 N 
ATOM      8  N   UNL     1       4.197   3.211  18.080  0.00  0.00    +0.000 NA
ATOM      9  N   UNL     1       3.345   3.335  19.091  0.00  0.00    +0.000 NA
BRANCH   7  10
ATOM     10  C   UNL     1       5.180   4.621  16.364  0.00  0.00    +0.000 A 
ATOM     11  C   UNL     1       6.277   5.489  16.493  0.00  0.00    +0.000 A 
ATOM     12  C   UNL     1       7.155   5.674  15.421  0.00  0.00    +0.000 A 
ATOM     13  C   UNL     1       6.935   4.995  14.217  0.00  0.00    +0.000 A 
ATOM     14  C   UNL     1       5.840   4.133  14.076  0.00  0.00    +0.000 A 
ATOM     15  C   UNL     1       4.966   3.946  15.151  0.00  0.00    +0.000 A 
BRANCH  13  16
ATOM     16  N   UNL     1       7.861   5.188  13.095  0.00  0.00    +0.000 N 
ATOM     17  O   UNL     1       7.617   4.587  12.038  0.00  0.00    +0.000 OA
ATOM     18  O   UNL     1       8.830   5.938  13.269  0.00  0.00    +0.000 OA
ENDBRANCH  13  16
ENDBRANCH   7  10
ENDBRANCH   2   5
BRANCH   1  19
ATOM     19  C   UNL     1       1.191   7.103  21.313  0.00  0.00    +0.000 C 
BRANCH  19  20
ATOM     20  C   UNL     1       0.657   8.430  20.757  0.00  0.00    +0.000 C 
BRANCH  20  24
ATOM     21  N   UNL     1      -1.066  11.229  22.406  0.00  0.00    +0.000 N 
ATOM     22  C   UNL     1      -0.729  11.217  20.980  0.00  0.00    +0.000 C 
ATOM     23  C   UNL     1       0.773  10.901  20.802  0.00  0.00    +0.000 C 
ATOM     24  N   UNL     1       1.217   9.623  21.426  0.00  0.00    +0.000 NA
ATOM     25  C   UNL     1       0.814   9.659  22.856  0.00  0.00    +0.000 C 
ATOM     26  C   UNL     1      -0.671  10.015  23.141  0.00  0.00    +0.000 C 
BRANCH  21  32
ATOM     27  C   UNL     1      -1.218  13.602  23.137  0.00  0.00    +0.000 A 
ATOM     28  C   UNL     1      -1.940  14.595  23.827  0.00  0.00    +0.000 A 
ATOM     29  C   UNL     1      -3.182  14.320  24.387  0.00  0.00    +0.000 A 
ATOM     30  C   UNL     1      -3.714  13.048  24.271  0.00  0.00    +0.000 A 
ATOM     31  C   UNL     1      -2.996  12.052  23.602  0.00  0.00    +0.000 A 
ATOM     32  C   UNL     1      -1.728  12.281  23.026  0.00  0.00    +0.000 A 
BRANCH  27  34
ATOM     33  C   UNL     1       0.385  15.254  22.565  0.00  0.00    +0.000 C 
ATOM     34  O   UNL     1       0.047  13.871  22.655  0.00  0.00    +0.000 OA
ENDBRANCH  27  34
ENDBRANCH  21  32
ENDBRANCH  20  24
ENDBRANCH  19  20
ENDBRANCH   1  19
TORSDOF 8
ENDMDL
MODEL 2
REMARK VINA RESULT:      -7.6      3.216      4.623
REMARK  Name = 
REMARK  9 active torsions:
REMARK  status: ('A' for Active; 'I' for Inactive)
REMARK    1  A    between atoms: C_1  and  O_2
REMARK    2  A    between atoms: O_2  and  C_3
REMARK    3  A    between atoms: C_8  and  N_9
REMARK    4  A    between atoms: N_12  and  C_13
REMARK    5  A    between atoms: C_13  and  C_14
REMARK    6  A    between atoms: C_14  and  N_15
REMARK    7  A    between atoms: C_16  and  C_18
REMARK    8  A    between atoms: N_20  and  C_21
REMARK    9  A    between atoms: C_24  and  N_25
REMARK                            x       y       z     vdW  Elec       q    Type
REMARK                         _______ _______ _______ _____ _____    ______ ____
ROOT
ATOM      1  N   UNL     1       0.087   9.094  20.581  0.00  0.00    +0.000 N 
ATOM      2  C   UNL     1       1.159   8.478  21.176  0.00  0.00    +0.000 C 
ATOM      3  O   UNL     1       1.575   8.787  22.290  0.00  0.00    +0.000 OA
ATOM      4  H   UNL     1      -0.329   8.674  19.757  0.00  0.00    +0.000 HD
ENDROOT
BRANCH   2   5
ATOM      5  C   UNL     1       1.770   7.423  20.390  0.00  0.00    +0.000 A 
ATOM      6  C   UNL     1       2.559   7.596  19.274  0.00  0.00    +0.000 A 
ATOM      7  N   UNL     1       2.902   6.330  18.879  0.00  0.00    +0.000 N 
ATOM      8  N   UNL     1       2.308   5.425  19.696  0.00  0.00    +0.000 NA
ATOM      9  N   UNL     1       1.633   6.083  20.632  0.00  0.00    +0.000 NA
BRANCH   7  10
ATOM     10  C   UNL     1       3.752   5.942  17.813  0.00  0.00    +0.000 A 
ATOM     11  C   UNL     1       4.479   6.903  17.092  0.00  0.00    +0.000 A 
ATOM     12  C   UNL     1       5.331   6.508  16.056  0.00  0.00    +0.000 A 
ATOM     13  C   UNL     1       5.452   5.150  15.737  0.00  0.00    +0.000 A 
ATOM     14  C   UNL     1       4.726   4.184  16.446  0.00  0.00    +0.000 A 
ATOM     15  C   UNL     1       3.879   4.583  17.483  0.00  0.00    +0.000 A 
BRANCH  13  16
ATOM     16  N   UNL     1       6.351   4.737  14.653  0.00  0.00    +0.000 N 
ATOM     17  O   UNL     1       5.925   3.907  13.837  0.00  0.00    +0.000 OA
ATOM     18  O   UNL     1       7.481   5.243  14.615  0.00  0.00    +0.000 OA
ENDBRANCH  13  16
ENDBRANCH   7  10
ENDBRANCH   2   5
BRANCH   1  19
ATOM     19  C   UNL     1      -0.630  10.144  21.270  0.00  0.00    +0.000 C 
BRANCH  19  20
ATOM     20  C   UNL     1      -0.043  11.537  21.001  0.00  0.00    +0.000 C 
BRANCH  20  24
ATOM     21  N   UNL     1       0.252  14.786  19.304  0.00  0.00    +0.000 N 
ATOM     22  C   UNL     1       0.496  14.600  20.737  0.00  0.00    +0.000 C 
ATOM     23  C   UNL     1      -0.714  13.887  21.383  0.00  0.00    +0.000 C 
ATOM     24  N   UNL     1      -1.066  12.577  20.766  0.00  0.00    +0.000 NA
ATOM     25  C   UNL     1      -1.257  12.805  19.310  0.00  0.00    +0.000 C 
ATOM     26  C   UNL     1      -0.112  13.558  18.578  0.00  0.00    +0.000 C 
BRANCH  21  32
ATOM     27  C   UNL     1       1.610  16.603  18.284  0.00  0.00    +0.000 A 
ATOM     28  C   UNL     1       1.641  17.876  17.679  0.00  0.00    +0.000 A 
ATOM     29  C   UNL     1       0.467  18.568  17.406  0.00  0.00    +0.000 A 
ATOM     30  C   UNL     1      -0.751  18.002  17.740  0.00  0.00    +0.000 A 
ATOM     31  C   UNL     1      -0.789  16.748  18.356  0.00  0.00    +0.000 A 
ATOM     32  C   UNL     1       0.376  16.011  18.662  0.00  0.00    +0.000 A 
BRANCH  27  34
ATOM     33  C   UNL     1       3.479  15.352  17.532  0.00  0.00    +0.000 C 
ATOM     34  O   UNL     1       2.786  15.964  18.619  0.00  0.00    +0.000 OA
ENDBRANCH  27  34
ENDBRANCH  21  32
ENDBRANCH  20  24
ENDBRANCH  19  20
ENDBRANCH   1  19
TORSDOF 8
ENDMDL
MODEL 3
REMARK VINA RESULT:      -7.6      2.461     12.038
REMARK  Name = 
REMARK  9 active torsions:
REMARK  status: ('A' for Active; 'I' for Inactive)
REMARK    1  A    between atoms: C_1  and  O_2
REMARK    2  A    between atoms: O_2  and  C_3
REMARK    3  A    between atoms: C_8  and  N_9
REMARK    4  A    between atoms: N_12  and  C_13
REMARK    5  A    between atoms: C_13  and  C_14
REMARK    6  A    between atoms: C_14  and  N_15
REMARK    7  A    between atoms: C_16  and  C_18
REMARK    8  A    between atoms: N_20  and  C_21
REMARK    9  A    between atoms: C_24  and  N_25
REMARK                            x       y       z     vdW  Elec       q    Type
REMARK                         _______ _______ _______ _____ _____    ______ ____
ROOT
ATOM      1  N   UNL     1       1.489   7.592  21.032  0.00  0.00    +0.000 N 
ATOM      2  C   UNL     1       1.152   8.832  20.551  0.00  0.00    +0.000 C 
ATOM      3  O   UNL     1       1.469   9.224  19.430  0.00  0.00    +0.000 OA
ATOM      4  H   UNL     1       1.041   7.251  21.875  0.00  0.00    +0.000 HD
ENDROOT
BRANCH   2   5
ATOM      5  C   UNL     1       0.384   9.654  21.467  0.00  0.00    +0.000 A 
ATOM      6  C   UNL     1      -0.552  10.602  21.117  0.00  0.00    +0.000 A 
ATOM      7  N   UNL     1      -1.007  11.110  22.304  0.00  0.00    +0.000 N 
ATOM      8  N   UNL     1      -0.341  10.526  23.331  0.00  0.00    +0.000 NA
ATOM      9  N   UNL     1       0.494   9.622  22.830  0.00  0.00    +0.000 NA
BRANCH   7  10
ATOM     10  C   UNL     1      -2.021  12.078  22.515  0.00  0.00    +0.000 A 
ATOM     11  C   UNL     1      -2.215  13.123  21.596  0.00  0.00    +0.000 A 
ATOM     12  C   UNL     1      -3.233  14.059  21.802  0.00  0.00    +0.000 A 
ATOM     13  C   UNL     1      -4.055  13.954  22.930  0.00  0.00    +0.000 A 
ATOM     14  C   UNL     1      -3.865  12.920  23.856  0.00  0.00    +0.000 A 
ATOM     15  C   UNL     1      -2.850  11.983  23.645  0.00  0.00    +0.000 A 
BRANCH  13  16
ATOM     16  N   UNL     1      -5.125  14.935  23.141  0.00  0.00    +0.000 N 
ATOM     17  O   UNL     1      -4.889  16.116  22.848  0.00  0.00    +0.000 OA
ATOM     18  O   UNL     1      -6.202  14.527  23.599  0.00  0.00    +0.000 OA
ENDBRANCH  13  16
ENDBRANCH   7  10
ENDBRANCH   2   5
BRANCH   1  19
ATOM     19  C   UNL     1       2.230   6.663  20.207  0.00  0.00    +0.000 C 
BRANCH  19  20
ATOM     20  C   UNL     1       2.078   5.208  20.672  0.00  0.00    +0.000 C 
BRANCH  20  24
ATOM     21  N   UNL     1       4.442   4.906  17.871  0.00  0.00    +0.000 N 
ATOM     22  C   UNL     1       3.222   5.716  17.813  0.00  0.00    +0.000 C 
ATOM     23  C   UNL     1       2.005   4.856  18.224  0.00  0.00    +0.000 C 
ATOM     24  N   UNL     1       2.117   4.225  19.570  0.00  0.00    +0.000 NA
ATOM     25  C   UNL     1       3.387   3.454  19.599  0.00  0.00    +0.000 C 
ATOM     26  C   UNL     1       4.664   4.221  19.156  0.00  0.00    +0.000 C 
BRANCH  21  32
ATOM     27  C   UNL     1       6.641   5.371  16.806  0.00  0.00    +0.000 A 
ATOM     28  C   UNL     1       7.466   5.256  15.670  0.00  0.00    +0.000 A 
ATOM     29  C   UNL     1       7.045   4.555  14.546  0.00  0.00    +0.000 A 
ATOM     30  C   UNL     1       5.791   3.968  14.540  0.00  0.00    +0.000 A 
ATOM     31  C   UNL     1       4.960   4.093  15.657  0.00  0.00    +0.000 A 
ATOM     32  C   UNL     1       5.340   4.802  16.817  0.00  0.00    +0.000 A 
BRANCH  27  34
ATOM     33  C   UNL     1       7.500   7.448  17.562  0.00  0.00    +0.000 C 
ATOM     34  O   UNL     1       7.043   6.136  17.883  0.00  0.00    +0.000 OA
ENDBRANCH  27  34
ENDBRANCH  21  32
ENDBRANCH  20  24
ENDBRANCH  19  20
ENDBRANCH   1  19
TORSDOF 8
ENDMDL
MODEL 4
REMARK VINA RESULT:      -7.6      3.056      4.408
REMARK  Name = 
REMARK  9 active torsions:
REMARK  status: ('A' for Active; 'I' for Inactive)
REMARK    1  A    between atoms: C_1  and  O_2
REMARK    2  A    between atoms: O_2  and  C_3
REMARK    3  A    between atoms: C_8  and  N_9
REMARK    4  A    between atoms: N_12  and  C_13
REMARK    5  A    between atoms: C_13  and  C_14
REMARK    6  A    between atoms: C_14  and  N_15
REMARK    7  A    between atoms: C_16  and  C_18
REMARK    8  A    between atoms: N_20  and  C_21
REMARK    9  A    between atoms: C_24  and  N_25
REMARK                            x       y       z     vdW  Elec       q    Type
REMARK                         _______ _______ _______ _____ _____    ______ ____
ROOT
ATOM      1  N   UNL     1      -0.034   8.832  20.885  0.00  0.00    +0.000 N 
ATOM      2  C   UNL     1       1.196   8.390  21.306  0.00  0.00    +0.000 C 
ATOM      3  O   UNL     1       1.764   8.839  22.299  0.00  0.00    +0.000 OA
ATOM      4  H   UNL     1      -0.536   8.299  20.184  0.00  0.00    +0.000 HD
ENDROOT
BRANCH   2   5
ATOM      5  C   UNL     1       1.781   7.344  20.489  0.00  0.00    +0.000 A 
ATOM      6  C   UNL     1       2.578   7.531  19.381  0.00  0.00    +0.000 A 
ATOM      7  N   UNL     1       2.889   6.269  18.948  0.00  0.00    +0.000 N 
ATOM      8  N   UNL     1       2.267   5.355  19.734  0.00  0.00    +0.000 NA
ATOM      9  N   UNL     1       1.606   6.002  20.688  0.00  0.00    +0.000 NA
BRANCH   7  10
ATOM     10  C   UNL     1       3.731   5.892  17.872  0.00  0.00    +0.000 A 
ATOM     11  C   UNL     1       4.471   6.858  17.170  0.00  0.00    +0.000 A 
ATOM     12  C   UNL     1       5.316   6.472  16.125  0.00  0.00    +0.000 A 
ATOM     13  C   UNL     1       5.418   5.120  15.778  0.00  0.00    +0.000 A 
ATOM     14  C   UNL     1       4.680   4.150  16.468  0.00  0.00    +0.000 A 
ATOM     15  C   UNL     1       3.840   4.538  17.514  0.00  0.00    +0.000 A 
BRANCH  13  16
ATOM     16  N   UNL     1       6.310   4.718  14.684  0.00  0.00    +0.000 N 
ATOM     17  O   UNL     1       7.377   5.335  14.555  0.00  0.00    +0.000 OA
ATOM     18  O   UNL     1       5.945   3.785  13.955  0.00  0.00    +0.000 OA
ENDBRANCH  13  16
ENDBRANCH   7  10
ENDBRANCH   2   5
BRANCH   1  19
ATOM     19  C   UNL     1      -0.739   9.852  21.628  0.00  0.00    +0.000 C 
BRANCH  19  20
ATOM     20  C   UNL     1      -0.812  11.188  20.876  0.00  0.00    +0.000 C 
BRANCH  20  24
ATOM     21  N   UNL     1       0.153  14.367  19.299  0.00  0.00    +0.000 N 
ATOM     22  C   UNL     1      -0.501  13.274  18.575  0.00  0.00    +0.000 C 
ATOM     23  C   UNL     1       0.283  11.960  18.796  0.00  0.00    +0.000 C 
ATOM     24  N   UNL     1       0.457  11.573  20.224  0.00  0.00    +0.000 NA
ATOM     25  C   UNL     1       1.078  12.726  20.928  0.00  0.00    +0.000 C 
ATOM     26  C   UNL     1       0.388  14.103  20.729  0.00  0.00    +0.000 C 
BRANCH  21  32
ATOM     27  C   UNL     1       1.840  15.974  18.427  0.00  0.00    +0.000 A 
ATOM     28  C   UNL     1       2.106  17.239  17.866  0.00  0.00    +0.000 A 
ATOM     29  C   UNL     1       1.074  18.111  17.540  0.00  0.00    +0.000 A 
ATOM     30  C   UNL     1      -0.237  17.733  17.777  0.00  0.00    +0.000 A 
ATOM     31  C   UNL     1      -0.508  16.487  18.349  0.00  0.00    +0.000 A 
ATOM     32  C   UNL     1       0.506  15.572  18.705  0.00  0.00    +0.000 A 
BRANCH  27  34
ATOM     33  C   UNL     1       3.841  15.756  19.679  0.00  0.00    +0.000 C 
ATOM     34  O   UNL     1       2.879  15.154  18.816  0.00  0.00    +0.000 OA
ENDBRANCH  27  34
ENDBRANCH  21  32
ENDBRANCH  20  24
ENDBRANCH  19  20
ENDBRANCH   1  19
TORSDOF 8
ENDMDL
MODEL 5
REMARK VINA RESULT:      -7.5      2.585      3.839
REMARK  Name = 
REMARK  9 active torsions:
REMARK  status: ('A' for Active; 'I' for Inactive)
REMARK    1  A    between atoms: C_1  and  O_2
REMARK    2  A    between atoms: O_2  and  C_3
REMARK    3  A    between atoms: C_8  and  N_9
REMARK    4  A    between atoms: N_12  and  C_13
REMARK    5  A    between atoms: C_13  and  C_14
REMARK    6  A    between atoms: C_14  and  N_15
REMARK    7  A    between atoms: C_16  and  C_18
REMARK    8  A    between atoms: N_20  and  C_21
REMARK    9  A    between atoms: C_24  and  N_25
REMARK                            x       y       z     vdW  Elec       q    Type
REMARK                         _______ _______ _______ _____ _____    ______ ____
ROOT
ATOM      1  N   UNL     1       1.194   9.602  20.733  0.00  0.00    +0.000 N 
ATOM      2  C   UNL     1       0.900   8.317  21.116  0.00  0.00    +0.000 C 
ATOM      3  O   UNL     1       0.101   8.052  22.011  0.00  0.00    +0.000 OA
ATOM      4  H   UNL     1       1.706   9.755  19.871  0.00  0.00    +0.000 HD
ENDROOT
BRANCH   2   5
ATOM      5  C   UNL     1       1.606   7.285  20.381  0.00  0.00    +0.000 A 
ATOM      6  C   UNL     1       2.387   7.476  19.263  0.00  0.00    +0.000 A 
ATOM      7  N   UNL     1       2.841   6.228  18.927  0.00  0.00    +0.000 N 
ATOM      8  N   UNL     1       2.318   5.312  19.780  0.00  0.00    +0.000 NA
ATOM      9  N   UNL     1       1.581   5.950  20.682  0.00  0.00    +0.000 NA
BRANCH   7  10
ATOM     10  C   UNL     1       3.730   5.868  17.883  0.00  0.00    +0.000 A 
ATOM     11  C   UNL     1       3.865   4.526  17.489  0.00  0.00    +0.000 A 
ATOM     12  C   UNL     1       4.728   4.185  16.444  0.00  0.00    +0.000 A 
ATOM     13  C   UNL     1       5.462   5.185  15.795  0.00  0.00    +0.000 A 
ATOM     14  C   UNL     1       5.340   6.524  16.185  0.00  0.00    +0.000 A 
ATOM     15  C   UNL     1       4.473   6.863  17.227  0.00  0.00    +0.000 A 
BRANCH  13  16
ATOM     16  N   UNL     1       6.364   4.824  14.695  0.00  0.00    +0.000 N 
ATOM     17  O   UNL     1       7.435   5.442  14.603  0.00  0.00    +0.000 OA
ATOM     18  O   UNL     1       6.004   3.924  13.924  0.00  0.00    +0.000 OA
ENDBRANCH  13  16
ENDBRANCH   7  10
ENDBRANCH   2   5
BRANCH   1  19
ATOM     19  C   UNL     1       0.537  10.724  21.367  0.00  0.00    +0.000 C 
BRANCH  19  20
ATOM     20  C   UNL     1      -0.502  11.393  20.457  0.00  0.00    +0.000 C 
BRANCH  20  24
ATOM     21  N   UNL     1      -3.617  12.844  21.767  0.00  0.00    +0.000 N 
ATOM     22  C   UNL     1      -3.317  12.736  20.336  0.00  0.00    +0.000 C 
ATOM     23  C   UNL     1      -1.936  13.367  20.045  0.00  0.00    +0.000 C 
ATOM     24  N   UNL     1      -0.810  12.788  20.832  0.00  0.00    +0.000 NA
ATOM     25  C   UNL     1      -1.177  12.876  22.269  0.00  0.00    +0.000 C 
ATOM     26  C   UNL     1      -2.571  12.309  22.656  0.00  0.00    +0.000 C 
BRANCH  21  32
ATOM     27  C   UNL     1      -6.077  12.778  22.127  0.00  0.00    +0.000 A 
ATOM     28  C   UNL     1      -7.230  13.421  22.618  0.00  0.00    +0.000 A 
ATOM     29  C   UNL     1      -7.144  14.644  23.274  0.00  0.00    +0.000 A 
ATOM     30  C   UNL     1      -5.907  15.241  23.441  0.00  0.00    +0.000 A 
ATOM     31  C   UNL     1      -4.760  14.618  22.942  0.00  0.00    +0.000 A 
ATOM     32  C   UNL     1      -4.798  13.381  22.260  0.00  0.00    +0.000 A 
BRANCH  27  34
ATOM     33  C   UNL     1      -7.329  11.515  20.558  0.00  0.00    +0.000 C 
ATOM     34  O   UNL     1      -6.188  11.604  21.410  0.00  0.00    +0.000 OA
ENDBRANCH  27  34
ENDBRANCH  21  32
ENDBRANCH  20  24
ENDBRANCH  19  20
ENDBRANCH   1  19
TORSDOF 8
ENDMDL
MODEL 6
REMARK VINA RESULT:      -7.5      0.710      1.067
REMARK  Name = 
REMARK  9 active torsions:
REMARK  status: ('A' for Active; 'I' for Inactive)
REMARK    1  A    between atoms: C_1  and  O_2
REMARK    2  A    between atoms: O_2  and  C_3
REMARK    3  A    between atoms: C_8  and  N_9
REMARK    4  A    between atoms: N_12  and  C_13
REMARK    5  A    between atoms: C_13  and  C_14
REMARK    6  A    between atoms: C_14  and  N_15
REMARK    7  A    between atoms: C_16  and  C_18
REMARK    8  A    between atoms: N_20  and  C_21
REMARK    9  A    between atoms: C_24  and  N_25
REMARK                            x       y       z     vdW  Elec       q    Type
REMARK                         _______ _______ _______ _____ _____    ______ ____
ROOT
ATOM      1  N   UNL     1       2.193   6.550  20.436  0.00  0.00    +0.000 N 
ATOM      2  C   UNL     1       2.528   5.221  20.354  0.00  0.00    +0.000 C 
ATOM      3  O   UNL     1       1.905   4.336  20.936  0.00  0.00    +0.000 OA
ATOM      4  H   UNL     1       2.616   7.206  19.789  0.00  0.00    +0.000 HD
ENDROOT
BRANCH   2   5
ATOM      5  C   UNL     1       3.679   4.933  19.520  0.00  0.00    +0.000 A 
ATOM      6  C   UNL     1       3.746   5.077  18.152  0.00  0.00    +0.000 A 
ATOM      7  N   UNL     1       5.016   4.690  17.813  0.00  0.00    +0.000 N 
ATOM      8  N   UNL     1       5.677   4.285  18.927  0.00  0.00    +0.000 NA
ATOM      9  N   UNL     1       4.876   4.449  19.974  0.00  0.00    +0.000 NA
BRANCH   7  10
ATOM     10  C   UNL     1       5.626   4.700  16.534  0.00  0.00    +0.000 A 
ATOM     11  C   UNL     1       4.893   4.347  15.389  0.00  0.00    +0.000 A 
ATOM     12  C   UNL     1       5.498   4.381  14.129  0.00  0.00    +0.000 A 
ATOM     13  C   UNL     1       6.840   4.764  14.014  0.00  0.00    +0.000 A 
ATOM     14  C   UNL     1       7.582   5.111  15.150  0.00  0.00    +0.000 A 
ATOM     15  C   UNL     1       6.972   5.080  16.407  0.00  0.00    +0.000 A 
BRANCH  13  16
ATOM     16  N   UNL     1       7.471   4.804  12.690  0.00  0.00    +0.000 N 
ATOM     17  O   UNL     1       7.110   3.963  11.854  0.00  0.00    +0.000 OA
ATOM     18  O   UNL     1       8.327   5.675  12.484  0.00  0.00    +0.000 OA
ENDBRANCH  13  16
ENDBRANCH   7  10
ENDBRANCH   2   5
BRANCH   1  19
ATOM     19  C   UNL     1       1.047   6.970  21.213  0.00  0.00    +0.000 C 
BRANCH  19  20
ATOM     20  C   UNL     1       0.486   8.323  20.755  0.00  0.00    +0.000 C 
BRANCH  20  24
ATOM     21  N   UNL     1      -1.092  11.222  22.378  0.00  0.00    +0.000 N 
ATOM     22  C   UNL     1      -0.739  11.187  20.956  0.00  0.00    +0.000 C 
ATOM     23  C   UNL     1       0.745  10.783  20.797  0.00  0.00    +0.000 C 
ATOM     24  N   UNL     1       1.106   9.482  21.428  0.00  0.00    +0.000 NA
ATOM     25  C   UNL     1       0.688   9.545  22.854  0.00  0.00    +0.000 C 
ATOM     26  C   UNL     1      -0.777   9.988  23.119  0.00  0.00    +0.000 C 
BRANCH  21  32
ATOM     27  C   UNL     1      -1.114  13.601  23.101  0.00  0.00    +0.000 A 
ATOM     28  C   UNL     1      -1.785  14.637  23.781  0.00  0.00    +0.000 A 
ATOM     29  C   UNL     1      -3.047  14.435  24.327  0.00  0.00    +0.000 A 
ATOM     30  C   UNL     1      -3.651  13.195  24.207  0.00  0.00    +0.000 A 
ATOM     31  C   UNL     1      -2.984  12.158  23.549  0.00  0.00    +0.000 A 
ATOM     32  C   UNL     1      -1.698  12.312  22.987  0.00  0.00    +0.000 A 
BRANCH  27  34
ATOM     33  C   UNL     1       0.421  15.072  22.051  0.00  0.00    +0.000 C 
ATOM     34  O   UNL     1       0.170  13.795  22.634  0.00  0.00    +0.000 OA
ENDBRANCH  27  34
ENDBRANCH  21  32
ENDBRANCH  20  24
ENDBRANCH  19  20
ENDBRANCH   1  19
TORSDOF 8
ENDMDL
MODEL 7
REMARK VINA RESULT:      -7.4      3.167      4.549
REMARK  Name = 
REMARK  9 active torsions:
REMARK  status: ('A' for Active; 'I' for Inactive)
REMARK    1  A    between atoms: C_1  and  O_2
REMARK    2  A    between atoms: O_2  and  C_3
REMARK    3  A    between atoms: C_8  and  N_9
REMARK    4  A    between atoms: N_12  and  C_13
REMARK    5  A    between atoms: C_13  and  C_14
REMARK    6  A    between atoms: C_14  and  N_15
REMARK    7  A    between atoms: C_16  and  C_18
REMARK    8  A    between atoms: N_20  and  C_21
REMARK    9  A    between atoms: C_24  and  N_25
REMARK                            x       y       z     vdW  Elec       q    Type
REMARK                         _______ _______ _______ _____ _____    ______ ____
ROOT
ATOM      1  N   UNL     1       1.325   9.224  21.276  0.00  0.00    +0.000 N 
ATOM      2  C   UNL     1       0.757   7.989  21.084  0.00  0.00    +0.000 C 
ATOM      3  O   UNL     1      -0.395   7.723  21.419  0.00  0.00    +0.000 OA
ATOM      4  H   UNL     1       2.199   9.442  20.811  0.00  0.00    +0.000 HD
ENDROOT
BRANCH   2   5
ATOM      5  C   UNL     1       1.620   7.012  20.448  0.00  0.00    +0.000 A 
ATOM      6  C   UNL     1       2.324   7.192  19.278  0.00  0.00    +0.000 A 
ATOM      7  N   UNL     1       2.990   6.011  19.076  0.00  0.00    +0.000 N 
ATOM      8  N   UNL     1       2.665   5.136  20.061  0.00  0.00    +0.000 NA
ATOM      9  N   UNL     1       1.848   5.745  20.912  0.00  0.00    +0.000 NA
BRANCH   7  10
ATOM     10  C   UNL     1       3.903   5.683  18.043  0.00  0.00    +0.000 A 
ATOM     11  C   UNL     1       3.799   4.460  17.359  0.00  0.00    +0.000 A 
ATOM     12  C   UNL     1       4.691   4.156  16.327  0.00  0.00    +0.000 A 
ATOM     13  C   UNL     1       5.691   5.072  15.980  0.00  0.00    +0.000 A 
ATOM     14  C   UNL     1       5.807   6.290  16.661  0.00  0.00    +0.000 A 
ATOM     15  C   UNL     1       4.911   6.594  17.689  0.00  0.00    +0.000 A 
BRANCH  13  16
ATOM     16  N   UNL     1       6.623   4.751  14.893  0.00  0.00    +0.000 N 
ATOM     17  O   UNL     1       7.617   5.478  14.754  0.00  0.00    +0.000 OA
ATOM     18  O   UNL     1       6.363   3.774  14.178  0.00  0.00    +0.000 OA
ENDBRANCH  13  16
ENDBRANCH   7  10
ENDBRANCH   2   5
BRANCH   1  19
ATOM     19  C   UNL     1       0.562  10.296  21.875  0.00  0.00    +0.000 C 
BRANCH  19  20
ATOM     20  C   UNL     1       0.173  11.383  20.862  0.00  0.00    +0.000 C 
BRANCH  20  24
ATOM     21  N   UNL     1       0.491  14.664  19.234  0.00  0.00    +0.000 N 
ATOM     22  C   UNL     1       0.019  13.463  18.540  0.00  0.00    +0.000 C 
ATOM     23  C   UNL     1       1.035  12.314  18.738  0.00  0.00    +0.000 C 
ATOM     24  N   UNL     1       1.327  11.982  20.161  0.00  0.00    +0.000 NA
ATOM     25  C   UNL     1       1.755  13.236  20.835  0.00  0.00    +0.000 C 
ATOM     26  C   UNL     1       0.821  14.464  20.655  0.00  0.00    +0.000 C 
BRANCH  21  32
ATOM     27  C   UNL     1       1.811  16.463  18.135  0.00  0.00    +0.000 A 
ATOM     28  C   UNL     1       1.833  17.754  17.571  0.00  0.00    +0.000 A 
ATOM     29  C   UNL     1       0.668  18.501  17.444  0.00  0.00    +0.000 A 
ATOM     30  C   UNL     1      -0.532  17.971  17.886  0.00  0.00    +0.000 A 
ATOM     31  C   UNL     1      -0.559  16.698  18.463  0.00  0.00    +0.000 A 
ATOM     32  C   UNL     1       0.599  15.906  18.621  0.00  0.00    +0.000 A 
BRANCH  27  34
ATOM     33  C   UNL     1       4.098  16.553  18.754  0.00  0.00    +0.000 C 
ATOM     34  O   UNL     1       2.988  15.768  18.324  0.00  0.00    +0.000 OA
ENDBRANCH  27  34
ENDBRANCH  21  32
ENDBRANCH  20  24
ENDBRANCH  19  20
ENDBRANCH   1  19
TORSDOF 8
ENDMDL
MODEL 8
REMARK VINA RESULT:      -7.4      2.502      3.507
REMARK  Name = 
REMARK  9 active torsions:
REMARK  status: ('A' for Active; 'I' for Inactive)
REMARK    1  A    between atoms: C_1  and  O_2
REMARK    2  A    between atoms: O_2  and  C_3
REMARK    3  A    between atoms: C_8  and  N_9
REMARK    4  A    between atoms: N_12  and  C_13
REMARK    5  A    between atoms: C_13  and  C_14
REMARK    6  A    between atoms: C_14  and  N_15
REMARK    7  A    between atoms: C_16  and  C_18
REMARK    8  A    between atoms: N_20  and  C_21
REMARK    9  A    between atoms: C_24  and  N_25
REMARK                            x       y       z     vdW  Elec       q    Type
REMARK                         _______ _______ _______ _____ _____    ______ ____
ROOT
ATOM      1  N   UNL     1       0.528   9.127  20.203  0.00  0.00    +0.000 N 
ATOM      2  C   UNL     1       1.310   8.248  20.910  0.00  0.00    +0.000 C 
ATOM      3  O   UNL     1       1.461   8.316  22.128  0.00  0.00    +0.000 OA
ATOM      4  H   UNL     1       0.286   8.911  19.243  0.00  0.00    +0.000 HD
ENDROOT
BRANCH   2   5
ATOM      5  C   UNL     1       1.949   7.221  20.109  0.00  0.00    +0.000 A 
ATOM      6  C   UNL     1       2.720   7.430  18.987  0.00  0.00    +0.000 A 
ATOM      7  N   UNL     1       3.103   6.180  18.579  0.00  0.00    +0.000 N 
ATOM      8  N   UNL     1       2.548   5.248  19.394  0.00  0.00    +0.000 NA
ATOM      9  N   UNL     1       1.860   5.875  20.342  0.00  0.00    +0.000 NA
BRANCH   7  10
ATOM     10  C   UNL     1       3.954   5.830  17.501  0.00  0.00    +0.000 A 
ATOM     11  C   UNL     1       4.532   6.824  16.694  0.00  0.00    +0.000 A 
ATOM     12  C   UNL     1       5.388   6.468  15.647  0.00  0.00    +0.000 A 
ATOM     13  C   UNL     1       5.663   5.117  15.403  0.00  0.00    +0.000 A 
ATOM     14  C   UNL     1       5.087   4.119  16.198  0.00  0.00    +0.000 A 
ATOM     15  C   UNL     1       4.235   4.477  17.246  0.00  0.00    +0.000 A 
BRANCH  13  16
ATOM     16  N   UNL     1       6.566   4.748  14.307  0.00  0.00    +0.000 N 
ATOM     17  O   UNL     1       6.221   3.815  13.567  0.00  0.00    +0.000 OA
ATOM     18  O   UNL     1       7.618   5.389  14.184  0.00  0.00    +0.000 OA
ENDBRANCH  13  16
ENDBRANCH   7  10
ENDBRANCH   2   5
BRANCH   1  19
ATOM     19  C   UNL     1      -0.188  10.182  20.886  0.00  0.00    +0.000 C 
BRANCH  19  20
ATOM     20  C   UNL     1      -0.823  11.189  19.917  0.00  0.00    +0.000 C 
BRANCH  20  24
ATOM     21  N   UNL     1      -3.452  13.025  21.719  0.00  0.00    +0.000 N 
ATOM     22  C   UNL     1      -3.346  12.996  20.257  0.00  0.00    +0.000 C 
ATOM     23  C   UNL     1      -1.918  13.406  19.831  0.00  0.00    +0.000 C 
ATOM     24  N   UNL     1      -0.830  12.577  20.423  0.00  0.00    +0.000 NA
ATOM     25  C   UNL     1      -1.005  12.597  21.899  0.00  0.00    +0.000 C 
ATOM     26  C   UNL     1      -2.423  12.243  22.425  0.00  0.00    +0.000 C 
BRANCH  21  32
ATOM     27  C   UNL     1      -5.774  13.224  22.588  0.00  0.00    +0.000 A 
ATOM     28  C   UNL     1      -6.738  14.010  23.249  0.00  0.00    +0.000 A 
ATOM     29  C   UNL     1      -6.415  15.262  23.761  0.00  0.00    +0.000 A 
ATOM     30  C   UNL     1      -5.127  15.746  23.612  0.00  0.00    +0.000 A 
ATOM     31  C   UNL     1      -4.169  14.980  22.942  0.00  0.00    +0.000 A 
ATOM     32  C   UNL     1      -4.452  13.708  22.398  0.00  0.00    +0.000 A 
BRANCH  27  34
ATOM     33  C   UNL     1      -7.270  12.064  21.160  0.00  0.00    +0.000 C 
ATOM     34  O   UNL     1      -6.131  12.019  22.019  0.00  0.00    +0.000 OA
ENDBRANCH  27  34
ENDBRANCH  21  32
ENDBRANCH  20  24
ENDBRANCH  19  20
ENDBRANCH   1  19
TORSDOF 8
ENDMDL
MODEL 9
REMARK VINA RESULT:      -7.3      1.962      3.063
REMARK  Name = 
REMARK  9 active torsions:
REMARK  status: ('A' for Active; 'I' for Inactive)
REMARK    1  A    between atoms: C_1  and  O_2
REMARK    2  A    between atoms: O_2  and  C_3
REMARK    3  A    between atoms: C_8  and  N_9
REMARK    4  A    between atoms: N_12  and  C_13
REMARK    5  A    between atoms: C_13  and  C_14
REMARK    6  A    between atoms: C_14  and  N_15
REMARK    7  A    between atoms: C_16  and  C_18
REMARK    8  A    between atoms: N_20  and  C_21
REMARK    9  A    between atoms: C_24  and  N_25
REMARK                            x       y       z     vdW  Elec       q    Type
REMARK                         _______ _______ _______ _____ _____    ______ ____
ROOT
ATOM      1  N   UNL     1       2.082   6.790  20.482  0.00  0.00    +0.000 N 
ATOM      2  C   UNL     1       2.009   5.451  20.188  0.00  0.00    +0.000 C 
ATOM      3  O   UNL     1       1.094   4.729  20.579  0.00  0.00    +0.000 OA
ATOM      4  H   UNL     1       2.744   7.370  19.978  0.00  0.00    +0.000 HD
ENDROOT
BRANCH   2   5
ATOM      5  C   UNL     1       3.098   4.945  19.374  0.00  0.00    +0.000 A 
ATOM      6  C   UNL     1       3.483   5.428  18.143  0.00  0.00    +0.000 A 
ATOM      7  N   UNL     1       4.543   4.646  17.768  0.00  0.00    +0.000 N 
ATOM      8  N   UNL     1       4.761   3.697  18.713  0.00  0.00    +0.000 NA
ATOM      9  N   UNL     1       3.898   3.886  19.705  0.00  0.00    +0.000 NA
BRANCH   7  10
ATOM     10  C   UNL     1       5.347   4.754  16.606  0.00  0.00    +0.000 A 
ATOM     11  C   UNL     1       6.711   5.074  16.707  0.00  0.00    +0.000 A 
ATOM     12  C   UNL     1       7.500   5.157  15.556  0.00  0.00    +0.000 A 
ATOM     13  C   UNL     1       6.924   4.925  14.301  0.00  0.00    +0.000 A 
ATOM     14  C   UNL     1       5.563   4.613  14.189  0.00  0.00    +0.000 A 
ATOM     15  C   UNL     1       4.778   4.526  15.342  0.00  0.00    +0.000 A 
BRANCH  13  16
ATOM     16  N   UNL     1       7.756   5.008  13.095  0.00  0.00    +0.000 N 
ATOM     17  O   UNL     1       7.439   4.300  12.128  0.00  0.00    +0.000 OA
ATOM     18  O   UNL     1       8.724   5.780  13.113  0.00  0.00    +0.000 OA
ENDBRANCH  13  16
ENDBRANCH   7  10
ENDBRANCH   2   5
BRANCH   1  19
ATOM     19  C   UNL     1       1.044   7.427  21.262  0.00  0.00    +0.000 C 
BRANCH  19  20
ATOM     20  C   UNL     1       1.172   8.957  21.281  0.00  0.00    +0.000 C 
BRANCH  20  24
ATOM     21  N   UNL     1       0.831  12.410  20.062  0.00  0.00    +0.000 N 
ATOM     22  C   UNL     1       0.632  12.025  21.463  0.00  0.00    +0.000 C 
ATOM     23  C   UNL     1      -0.383  10.863  21.545  0.00  0.00    +0.000 C 
ATOM     24  N   UNL     1      -0.014   9.658  20.748  0.00  0.00    +0.000 NA
ATOM     25  C   UNL     1       0.224  10.102  19.349  0.00  0.00    +0.000 C 
ATOM     26  C   UNL     1       1.196  11.299  19.167  0.00  0.00    +0.000 C 
BRANCH  21  32
ATOM     27  C   UNL     1      -0.500  14.450  19.563  0.00  0.00    +0.000 A 
ATOM     28  C   UNL     1      -0.532  15.756  19.036  0.00  0.00    +0.000 A 
ATOM     29  C   UNL     1       0.627  16.373  18.577  0.00  0.00    +0.000 A 
ATOM     30  C   UNL     1       1.829  15.689  18.631  0.00  0.00    +0.000 A 
ATOM     31  C   UNL     1       1.865  14.386  19.137  0.00  0.00    +0.000 A 
ATOM     32  C   UNL     1       0.715  13.716  19.606  0.00  0.00    +0.000 A 
BRANCH  27  34
ATOM     33  C   UNL     1      -2.505  14.574  20.824  0.00  0.00    +0.000 C 
ATOM     34  O   UNL     1      -1.671  13.825  19.942  0.00  0.00    +0.000 OA
ENDBRANCH  27  34
ENDBRANCH  21  32
ENDBRANCH  20  24
ENDBRANCH  19  20
ENDBRANCH   1  19
TORSDOF 8
ENDMDL
