MODEL 1
REMARK VINA RESULT:      -7.5      0.000      0.000
REMARK  Name = 
REMARK  8 active torsions:
REMARK  status: ('A' for Active; 'I' for Inactive)
REMARK    1  A    between atoms: C_1  and  C_2
REMARK    2  A    between atoms: C_2  and  C_3
REMARK    3  A    between atoms: C_3  and  O_4
REMARK    4  A    between atoms: C_3  and  C_12
REMARK    5  A    between atoms: O_4  and  C_5
REMARK    6  A    between atoms: C_12  and  O_14
REMARK    7  A    between atoms: O_14  and  C_15
REMARK    8  A    between atoms: N_22  and  C_23
REMARK                            x       y       z     vdW  Elec       q    Type
REMARK                         _______ _______ _______ _____ _____    ______ ____
ROOT
ATOM      1  C   UNL     1       4.163   4.162  19.472  0.00  0.00    +0.000 C 
ATOM      2  O   UNL     1       4.266   3.047  19.967  0.00  0.00    +0.000 OA
ENDROOT
BRANCH   1   3
ATOM      3  C   UNL     1       2.941   5.097  19.610  0.00  0.00    +0.000 C 
BRANCH   3   5
ATOM      4  C   UNL     1       0.860   3.621  19.698  0.00  0.00    +0.000 C 
ATOM      5  C   UNL     1       1.765   4.484  18.827  0.00  0.00    +0.000 C 
ENDBRANCH   3   5
BRANCH   3   6
ATOM      6  O   UNL     1       3.174   6.412  19.106  0.00  0.00    +0.000 OA
BRANCH   6   7
ATOM      7  C   UNL     1       2.305   7.422  19.418  0.00  0.00    +0.000 A 
ATOM      8  C   UNL     1       1.688   7.626  20.648  0.00  0.00    +0.000 A 
ATOM      9  C   UNL     1       0.873   8.741  20.866  0.00  0.00    +0.000 A 
ATOM     10  C   UNL     1       0.639   9.638  19.831  0.00  0.00    +0.000 A 
ATOM     11 CL   UNL     1      -0.348  11.019  20.104  0.00  0.00    +0.000 Cl
ATOM     12  C   UNL     1       1.204   9.419  18.578  0.00  0.00    +0.000 A 
ATOM     13  C   UNL     1       2.038   8.314  18.375  0.00  0.00    +0.000 A 
ENDBRANCH   6   7
ENDBRANCH   3   6
ENDBRANCH   1   3
BRANCH   1  14
ATOM     14  O   UNL     1       5.157   4.789  18.777  0.00  0.00    +0.000 OA
BRANCH  14  15
ATOM     15  C   UNL     1       5.817   4.055  17.715  0.00  0.00    +0.000 C 
ATOM     16  C   UNL     1       7.222   4.628  17.460  0.00  0.00    +0.000 C 
ATOM     17  C   UNL     1       7.206   5.917  16.607  0.00  0.00    +0.000 C 
ATOM     18  C   UNL     1       6.286   6.991  17.205  0.00  0.00    +0.000 C 
ATOM     19  C   UNL     1       4.923   6.734  16.541  0.00  0.00    +0.000 C 
ATOM     20  C   UNL     1       5.137   5.490  15.677  0.00  0.00    +0.000 C 
ATOM     21  C   UNL     1       4.946   4.165  16.452  0.00  0.00    +0.000 C 
ATOM     22  N   UNL     1       6.532   5.737  15.319  0.00  0.00    +0.000 NA
ATOM     23  C   UNL     1       7.131   4.825  14.375  0.00  0.00    +0.000 C 
ENDBRANCH  14  15
ENDBRANCH   1  14
TORSDOF 6
ENDMDL
MODEL 2
REMARK VINA RESULT:      -7.4      0.396      1.128
REMARK  Name = 
REMARK  8 active torsions:
REMARK  status: ('A' for Active; 'I' for Inactive)
REMARK    1  A    between atoms: C_1  and  C_2
REMARK    2  A    between atoms: C_2  and  C_3
REMARK    3  A    between atoms: C_3  and  O_4
REMARK    4  A    between atoms: C_3  and  C_12
REMARK    5  A    between atoms: O_4  and  C_5
REMARK    6  A    between atoms: C_12  and  O_14
REMARK    7  A    between atoms: O_14  and  C_15
REMARK    8  A    between atoms: N_22  and  C_23
REMARK                            x       y       z     vdW  Elec       q    Type
REMARK                         _______ _______ _______ _____ _____    ______ ____
ROOT
ATOM      1  C   UNL     1       4.135   4.233  19.396  0.00  0.00    +0.000 C 
ATOM      2  O   UNL     1       4.285   3.150  19.950  0.00  0.00    +0.000 OA
ENDROOT
BRANCH   1   3
ATOM      3  C   UNL     1       2.875   5.121  19.488  0.00  0.00    +0.000 C 
BRANCH   3   5
ATOM      4  C   UNL     1       1.508   3.902  17.710  0.00  0.00    +0.000 C 
ATOM      5  C   UNL     1       1.640   4.251  19.187  0.00  0.00    +0.000 C 
ENDBRANCH   3   5
BRANCH   3   6
ATOM      6  O   UNL     1       2.884   6.214  18.569  0.00  0.00    +0.000 OA
BRANCH   6   7
ATOM      7  C   UNL     1       2.287   7.395  18.914  0.00  0.00    +0.000 A 
ATOM      8  C   UNL     1       2.079   8.488  18.078  0.00  0.00    +0.000 A 
ATOM      9  C   UNL     1       1.388   9.616  18.528  0.00  0.00    +0.000 A 
ATOM     10  C   UNL     1       0.937   9.671  19.841  0.00  0.00    +0.000 A 
ATOM     11 CL   UNL     1       0.072  11.051  20.391  0.00  0.00    +0.000 Cl
ATOM     12  C   UNL     1       1.184   8.609  20.708  0.00  0.00    +0.000 A 
ATOM     13  C   UNL     1       1.855   7.473  20.242  0.00  0.00    +0.000 A 
ENDBRANCH   6   7
ENDBRANCH   3   6
ENDBRANCH   1   3
BRANCH   1  14
ATOM     14  O   UNL     1       5.102   4.863  18.668  0.00  0.00    +0.000 OA
BRANCH  14  15
ATOM     15  C   UNL     1       5.788   4.105  17.641  0.00  0.00    +0.000 C 
ATOM     16  C   UNL     1       7.216   4.644  17.439  0.00  0.00    +0.000 C 
ATOM     17  C   UNL     1       7.264   5.924  16.576  0.00  0.00    +0.000 C 
ATOM     18  C   UNL     1       6.345   7.025  17.126  0.00  0.00    +0.000 C 
ATOM     19  C   UNL     1       5.005   6.792  16.407  0.00  0.00    +0.000 C 
ATOM     20  C   UNL     1       5.227   5.535  15.564  0.00  0.00    +0.000 C 
ATOM     21  C   UNL     1       4.973   4.222  16.341  0.00  0.00    +0.000 C 
ATOM     22  N   UNL     1       6.640   5.747  15.263  0.00  0.00    +0.000 NA
ATOM     23  C   UNL     1       7.258   4.814  14.352  0.00  0.00    +0.000 C 
ENDBRANCH  14  15
ENDBRANCH   1  14
TORSDOF 6
ENDMDL
MODEL 3
REMARK VINA RESULT:      -7.2      3.878      6.983
REMARK  Name = 
REMARK  8 active torsions:
REMARK  status: ('A' for Active; 'I' for Inactive)
REMARK    1  A    between atoms: C_1  and  C_2
REMARK    2  A    between atoms: C_2  and  C_3
REMARK    3  A    between atoms: C_3  and  O_4
REMARK    4  A    between atoms: C_3  and  C_12
REMARK    5  A    between atoms: O_4  and  C_5
REMARK    6  A    between atoms: C_12  and  O_14
REMARK    7  A    between atoms: O_14  and  C_15
REMARK    8  A    between atoms: N_22  and  C_23
REMARK                            x       y       z     vdW  Elec       q    Type
REMARK                         _______ _______ _______ _____ _____    ______ ____
ROOT
ATOM      1  C   UNL     1       6.529   5.067  17.995  0.00  0.00    +0.000 C 
ATOM      2  O   UNL     1       7.354   4.370  18.572  0.00  0.00    +0.000 OA
ENDROOT
BRANCH   1   3
ATOM      3  C   UNL     1       6.831   6.040  16.833  0.00  0.00    +0.000 C 
BRANCH   3   5
ATOM      4  C   UNL     1       8.089   7.940  17.982  0.00  0.00    +0.000 C 
ATOM      5  C   UNL     1       6.770   7.481  17.373  0.00  0.00    +0.000 C 
ENDBRANCH   3   5
BRANCH   3   6
ATOM      6  O   UNL     1       5.908   5.931  15.749  0.00  0.00    +0.000 OA
BRANCH   6   7
ATOM      7  C   UNL     1       6.256   5.224  14.631  0.00  0.00    +0.000 A 
ATOM      8  C   UNL     1       7.407   5.403  13.869  0.00  0.00    +0.000 A 
ATOM      9  C   UNL     1       7.689   4.566  12.785  0.00  0.00    +0.000 A 
ATOM     10  C   UNL     1       6.789   3.567  12.433  0.00  0.00    +0.000 A 
ATOM     11 CL   UNL     1       7.143   2.526  11.112  0.00  0.00    +0.000 Cl
ATOM     12  C   UNL     1       5.607   3.409  13.151  0.00  0.00    +0.000 A 
ATOM     13  C   UNL     1       5.344   4.236  14.249  0.00  0.00    +0.000 A 
ENDBRANCH   6   7
ENDBRANCH   3   6
ENDBRANCH   1   3
BRANCH   1  14
ATOM     14  O   UNL     1       5.187   5.034  18.242  0.00  0.00    +0.000 OA
BRANCH  14  15
ATOM     15  C   UNL     1       4.518   3.749  18.208  0.00  0.00    +0.000 C 
ATOM     16  C   UNL     1       3.358   3.775  17.196  0.00  0.00    +0.000 C 
ATOM     17  C   UNL     1       2.088   4.461  17.746  0.00  0.00    +0.000 C 
ATOM     18  C   UNL     1       2.379   5.875  18.269  0.00  0.00    +0.000 C 
ATOM     19  C   UNL     1       2.708   5.668  19.757  0.00  0.00    +0.000 C 
ATOM     20  C   UNL     1       2.662   4.152  19.960  0.00  0.00    +0.000 C 
ATOM     21  C   UNL     1       3.997   3.447  19.624  0.00  0.00    +0.000 C 
ATOM     22  N   UNL     1       1.610   3.856  18.991  0.00  0.00    +0.000 NA
ATOM     23  C   UNL     1       1.145   2.491  18.933  0.00  0.00    +0.000 C 
ENDBRANCH  14  15
ENDBRANCH   1  14
TORSDOF 6
ENDMDL
MODEL 4
REMARK VINA RESULT:      -7.2      3.968      7.033
REMARK  Name = 
REMARK  8 active torsions:
REMARK  status: ('A' for Active; 'I' for Inactive)
REMARK    1  A    between atoms: C_1  and  C_2
REMARK    2  A    between atoms: C_2  and  C_3
REMARK    3  A    between atoms: C_3  and  O_4
REMARK    4  A    between atoms: C_3  and  C_12
REMARK    5  A    between atoms: O_4  and  C_5
REMARK    6  A    between atoms: C_12  and  O_14
REMARK    7  A    between atoms: O_14  and  C_15
REMARK    8  A    between atoms: N_22  and  C_23
REMARK                            x       y       z     vdW  Elec       q    Type
REMARK                         _______ _______ _______ _____ _____    ______ ____
ROOT
ATOM      1  C   UNL     1       5.202   6.310  17.091  0.00  0.00    +0.000 C 
ATOM      2  O   UNL     1       5.021   7.516  17.201  0.00  0.00    +0.000 OA
ENDROOT
BRANCH   1   3
ATOM      3  C   UNL     1       6.571   5.621  16.897  0.00  0.00    +0.000 C 
BRANCH   3   5
ATOM      4  C   UNL     1       7.221   5.509  19.363  0.00  0.00    +0.000 C 
ATOM      5  C   UNL     1       7.527   6.115  17.999  0.00  0.00    +0.000 C 
ENDBRANCH   3   5
BRANCH   3   6
ATOM      6  O   UNL     1       7.169   5.895  15.631  0.00  0.00    +0.000 OA
BRANCH   6   7
ATOM      7  C   UNL     1       6.865   5.111  14.552  0.00  0.00    +0.000 A 
ATOM      8  C   UNL     1       7.556   5.068  13.345  0.00  0.00    +0.000 A 
ATOM      9  C   UNL     1       7.191   4.167  12.340  0.00  0.00    +0.000 A 
ATOM     10  C   UNL     1       6.097   3.331  12.527  0.00  0.00    +0.000 A 
ATOM     11 CL   UNL     1       5.658   2.211  11.299  0.00  0.00    +0.000 Cl
ATOM     12  C   UNL     1       5.361   3.399  13.707  0.00  0.00    +0.000 A 
ATOM     13  C   UNL     1       5.749   4.286  14.717  0.00  0.00    +0.000 A 
ENDBRANCH   6   7
ENDBRANCH   3   6
ENDBRANCH   1   3
BRANCH   1  14
ATOM     14  O   UNL     1       4.216   5.372  17.201  0.00  0.00    +0.000 OA
BRANCH  14  15
ATOM     15  C   UNL     1       3.107   5.648  18.093  0.00  0.00    +0.000 C 
ATOM     16  C   UNL     1       3.519   5.401  19.555  0.00  0.00    +0.000 C 
ATOM     17  C   UNL     1       3.506   3.906  19.944  0.00  0.00    +0.000 C 
ATOM     18  C   UNL     1       4.360   3.056  18.992  0.00  0.00    +0.000 C 
ATOM     19  C   UNL     1       3.375   2.607  17.900  0.00  0.00    +0.000 C 
ATOM     20  C   UNL     1       2.056   3.294  18.257  0.00  0.00    +0.000 C 
ATOM     21  C   UNL     1       1.939   4.730  17.694  0.00  0.00    +0.000 C 
ATOM     22  N   UNL     1       2.208   3.269  19.709  0.00  0.00    +0.000 NA
ATOM     23  C   UNL     1       1.086   3.736  20.488  0.00  0.00    +0.000 C 
ENDBRANCH  14  15
ENDBRANCH   1  14
TORSDOF 6
ENDMDL
MODEL 5
REMARK VINA RESULT:      -7.2      4.037      7.100
REMARK  Name = 
REMARK  8 active torsions:
REMARK  status: ('A' for Active; 'I' for Inactive)
REMARK    1  A    between atoms: C_1  and  C_2
REMARK    2  A    between atoms: C_2  and  C_3
REMARK    3  A    between atoms: C_3  and  O_4
REMARK    4  A    between atoms: C_3  and  C_12
REMARK    5  A    between atoms: O_4  and  C_5
REMARK    6  A    between atoms: C_12  and  O_14
REMARK    7  A    between atoms: O_14  and  C_15
REMARK    8  A    between atoms: N_22  and  C_23
REMARK                            x       y       z     vdW  Elec       q    Type
REMARK                         _______ _______ _______ _____ _____    ______ ____
ROOT
ATOM      1  C   UNL     1       5.232   5.641  17.474  0.00  0.00    +0.000 C 
ATOM      2  O   UNL     1       4.638   6.712  17.520  0.00  0.00    +0.000 OA
ENDROOT
BRANCH   1   3
ATOM      3  C   UNL     1       6.718   5.454  17.098  0.00  0.00    +0.000 C 
BRANCH   3   5
ATOM      4  C   UNL     1       7.840   7.659  17.726  0.00  0.00    +0.000 C 
ATOM      5  C   UNL     1       7.581   6.212  18.125  0.00  0.00    +0.000 C 
ENDBRANCH   3   5
BRANCH   3   6
ATOM      6  O   UNL     1       7.040   5.944  15.797  0.00  0.00    +0.000 OA
BRANCH   6   7
ATOM      7  C   UNL     1       6.784   5.171  14.698  0.00  0.00    +0.000 A 
ATOM      8  C   UNL     1       7.595   5.042  13.575  0.00  0.00    +0.000 A 
ATOM      9  C   UNL     1       7.259   4.160  12.544  0.00  0.00    +0.000 A 
ATOM     10  C   UNL     1       6.078   3.432  12.616  0.00  0.00    +0.000 A 
ATOM     11 CL   UNL     1       5.672   2.335  11.356  0.00  0.00    +0.000 Cl
ATOM     12  C   UNL     1       5.227   3.590  13.706  0.00  0.00    +0.000 A 
ATOM     13  C   UNL     1       5.583   4.457  14.746  0.00  0.00    +0.000 A 
ENDBRANCH   6   7
ENDBRANCH   3   6
ENDBRANCH   1   3
BRANCH   1  14
ATOM     14  O   UNL     1       4.683   4.443  17.827  0.00  0.00    +0.000 OA
BRANCH  14  15
ATOM     15  C   UNL     1       4.461   4.181  19.236  0.00  0.00    +0.000 C 
ATOM     16  C   UNL     1       4.248   2.676  19.475  0.00  0.00    +0.000 C 
ATOM     17  C   UNL     1       2.820   2.202  19.126  0.00  0.00    +0.000 C 
ATOM     18  C   UNL     1       2.422   2.582  17.692  0.00  0.00    +0.000 C 
ATOM     19  C   UNL     1       1.749   3.957  17.838  0.00  0.00    +0.000 C 
ATOM     20  C   UNL     1       1.882   4.301  19.323  0.00  0.00    +0.000 C 
ATOM     21  C   UNL     1       3.224   4.983  19.677  0.00  0.00    +0.000 C 
ATOM     22  N   UNL     1       1.783   2.943  19.849  0.00  0.00    +0.000 NA
ATOM     23  C   UNL     1       1.744   2.803  21.285  0.00  0.00    +0.000 C 
ENDBRANCH  14  15
ENDBRANCH   1  14
TORSDOF 6
ENDMDL
MODEL 6
REMARK VINA RESULT:      -7.2      3.754      6.986
REMARK  Name = 
REMARK  8 active torsions:
REMARK  status: ('A' for Active; 'I' for Inactive)
REMARK    1  A    between atoms: C_1  and  C_2
REMARK    2  A    between atoms: C_2  and  C_3
REMARK    3  A    between atoms: C_3  and  O_4
REMARK    4  A    between atoms: C_3  and  C_12
REMARK    5  A    between atoms: O_4  and  C_5
REMARK    6  A    between atoms: C_12  and  O_14
REMARK    7  A    between atoms: O_14  and  C_15
REMARK    8  A    between atoms: N_22  and  C_23
REMARK                            x       y       z     vdW  Elec       q    Type
REMARK                         _______ _______ _______ _____ _____    ______ ____
ROOT
ATOM      1  C   UNL     1       5.405   6.239  17.239  0.00  0.00    +0.000 C 
ATOM      2  O   UNL     1       4.831   7.056  16.528  0.00  0.00    +0.000 OA
ENDROOT
BRANCH   1   3
ATOM      3  C   UNL     1       6.881   5.806  17.099  0.00  0.00    +0.000 C 
BRANCH   3   5
ATOM      4  C   UNL     1       7.816   8.135  17.565  0.00  0.00    +0.000 C 
ATOM      5  C   UNL     1       7.739   6.686  18.028  0.00  0.00    +0.000 C 
ENDBRANCH   3   5
BRANCH   3   6
ATOM      6  O   UNL     1       7.386   5.937  15.770  0.00  0.00    +0.000 OA
BRANCH   6   7
ATOM      7  C   UNL     1       6.977   5.063  14.800  0.00  0.00    +0.000 A 
ATOM      8  C   UNL     1       6.031   4.054  14.947  0.00  0.00    +0.000 A 
ATOM      9  C   UNL     1       5.641   3.270  13.857  0.00  0.00    +0.000 A 
ATOM     10  C   UNL     1       6.236   3.468  12.617  0.00  0.00    +0.000 A 
ATOM     11 CL   UNL     1       5.746   2.516  11.272  0.00  0.00    +0.000 Cl
ATOM     12  C   UNL     1       7.225   4.437  12.465  0.00  0.00    +0.000 A 
ATOM     13  C   UNL     1       7.591   5.233  13.555  0.00  0.00    +0.000 A 
ENDBRANCH   6   7
ENDBRANCH   3   6
ENDBRANCH   1   3
BRANCH   1  14
ATOM     14  O   UNL     1       4.840   5.637  18.326  0.00  0.00    +0.000 OA
BRANCH  14  15
ATOM     15  C   UNL     1       4.510   4.229  18.233  0.00  0.00    +0.000 C 
ATOM     16  C   UNL     1       3.335   4.016  17.262  0.00  0.00    +0.000 C 
ATOM     17  C   UNL     1       1.961   4.332  17.893  0.00  0.00    +0.000 C 
ATOM     18  C   UNL     1       1.915   5.745  18.494  0.00  0.00    +0.000 C 
ATOM     19  C   UNL     1       2.354   5.549  19.955  0.00  0.00    +0.000 C 
ATOM     20  C   UNL     1       2.695   4.062  20.064  0.00  0.00    +0.000 C 
ATOM     21  C   UNL     1       4.147   3.733  19.643  0.00  0.00    +0.000 C 
ATOM     22  N   UNL     1       1.706   3.562  19.113  0.00  0.00    +0.000 NA
ATOM     23  C   UNL     1       1.593   2.129  18.985  0.00  0.00    +0.000 C 
ENDBRANCH  14  15
ENDBRANCH   1  14
TORSDOF 6
ENDMDL
MODEL 7
REMARK VINA RESULT:      -7.1      3.972      7.034
REMARK  Name = 
REMARK  8 active torsions:
REMARK  status: ('A' for Active; 'I' for Inactive)
REMARK    1  A    between atoms: C_1  and  C_2
REMARK    2  A    between atoms: C_2  and  C_3
REMARK    3  A    between atoms: C_3  and  O_4
REMARK    4  A    between atoms: C_3  and  C_12
REMARK    5  A    between atoms: O_4  and  C_5
REMARK    6  A    between atoms: C_12  and  O_14
REMARK    7  A    between atoms: O_14  and  C_15
REMARK    8  A    between atoms: N_22  and  C_23
REMARK                            x       y       z     vdW  Elec       q    Type
REMARK                         _______ _______ _______ _____ _____    ______ ____
ROOT
ATOM      1  C   UNL     1       5.297   5.772  17.459  0.00  0.00    +0.000 C 
ATOM      2  O   UNL     1       4.695   6.827  17.301  0.00  0.00    +0.000 OA
ENDROOT
BRANCH   1   3
ATOM      3  C   UNL     1       6.823   5.578  17.312  0.00  0.00    +0.000 C 
BRANCH   3   5
ATOM      4  C   UNL     1       7.874   7.889  17.573  0.00  0.00    +0.000 C 
ATOM      5  C   UNL     1       7.535   6.568  18.253  0.00  0.00    +0.000 C 
ENDBRANCH   3   5
BRANCH   3   6
ATOM      6  O   UNL     1       7.297   5.803  15.985  0.00  0.00    +0.000 OA
BRANCH   6   7
ATOM      7  C   UNL     1       6.885   4.985  14.969  0.00  0.00    +0.000 A 
ATOM      8  C   UNL     1       5.898   4.008  15.048  0.00  0.00    +0.000 A 
ATOM      9  C   UNL     1       5.512   3.284  13.916  0.00  0.00    +0.000 A 
ATOM     10  C   UNL     1       6.150   3.508  12.702  0.00  0.00    +0.000 A 
ATOM     11 CL   UNL     1       5.664   2.631  11.306  0.00  0.00    +0.000 Cl
ATOM     12  C   UNL     1       7.177   4.444  12.617  0.00  0.00    +0.000 A 
ATOM     13  C   UNL     1       7.541   5.182  13.750  0.00  0.00    +0.000 A 
ENDBRANCH   6   7
ENDBRANCH   3   6
ENDBRANCH   1   3
BRANCH   1  14
ATOM     14  O   UNL     1       4.713   4.609  17.871  0.00  0.00    +0.000 OA
BRANCH  14  15
ATOM     15  C   UNL     1       4.501   4.417  19.292  0.00  0.00    +0.000 C 
ATOM     16  C   UNL     1       4.294   2.925  19.607  0.00  0.00    +0.000 C 
ATOM     17  C   UNL     1       2.864   2.431  19.290  0.00  0.00    +0.000 C 
ATOM     18  C   UNL     1       2.457   2.738  17.842  0.00  0.00    +0.000 C 
ATOM     19  C   UNL     1       1.781   4.118  17.923  0.00  0.00    +0.000 C 
ATOM     20  C   UNL     1       1.921   4.535  19.388  0.00  0.00    +0.000 C 
ATOM     21  C   UNL     1       3.264   5.237  19.701  0.00  0.00    +0.000 C 
ATOM     22  N   UNL     1       1.830   3.204  19.982  0.00  0.00    +0.000 NA
ATOM     23  C   UNL     1       1.799   3.136  21.423  0.00  0.00    +0.000 C 
ENDBRANCH  14  15
ENDBRANCH   1  14
TORSDOF 6
ENDMDL
MODEL 8
REMARK VINA RESULT:      -7.1      3.866      6.910
REMARK  Name = 
REMARK  8 active torsions:
REMARK  status: ('A' for Active; 'I' for Inactive)
REMARK    1  A    between atoms: C_1  and  C_2
REMARK    2  A    between atoms: C_2  and  C_3
REMARK    3  A    between atoms: C_3  and  O_4
REMARK    4  A    between atoms: C_3  and  C_12
REMARK    5  A    between atoms: O_4  and  C_5
REMARK    6  A    between atoms: C_12  and  O_14
REMARK    7  A    between atoms: O_14  and  C_15
REMARK    8  A    between atoms: N_22  and  C_23
REMARK                            x       y       z     vdW  Elec       q    Type
REMARK                         _______ _______ _______ _____ _____    ______ ____
ROOT
ATOM      1  C   UNL     1       6.650   5.097  17.859  0.00  0.00    +0.000 C 
ATOM      2  O   UNL     1       7.488   4.308  18.275  0.00  0.00    +0.000 OA
ENDROOT
BRANCH   1   3
ATOM      3  C   UNL     1       6.906   6.222  16.832  0.00  0.00    +0.000 C 
BRANCH   3   5
ATOM      4  C   UNL     1       8.081   8.290  17.758  0.00  0.00    +0.000 C 
ATOM      5  C   UNL     1       6.751   7.579  17.543  0.00  0.00    +0.000 C 
ENDBRANCH   3   5
BRANCH   3   6
ATOM      6  O   UNL     1       6.007   6.194  15.724  0.00  0.00    +0.000 OA
BRANCH   6   7
ATOM      7  C   UNL     1       6.199   5.289  14.716  0.00  0.00    +0.000 A 
ATOM      8  C   UNL     1       5.338   4.255  14.362  0.00  0.00    +0.000 A 
ATOM      9  C   UNL     1       5.611   3.438  13.261  0.00  0.00    +0.000 A 
ATOM     10  C   UNL     1       6.778   3.629  12.532  0.00  0.00    +0.000 A 
ATOM     11 CL   UNL     1       7.106   2.637  11.167  0.00  0.00    +0.000 Cl
ATOM     12  C   UNL     1       7.678   4.625  12.905  0.00  0.00    +0.000 A 
ATOM     13  C   UNL     1       7.385   5.453  13.993  0.00  0.00    +0.000 A 
ENDBRANCH   6   7
ENDBRANCH   3   6
ENDBRANCH   1   3
BRANCH   1  14
ATOM     14  O   UNL     1       5.325   5.054  18.185  0.00  0.00    +0.000 OA
BRANCH  14  15
ATOM     15  C   UNL     1       4.672   3.760  18.221  0.00  0.00    +0.000 C 
ATOM     16  C   UNL     1       3.489   3.729  17.236  0.00  0.00    +0.000 C 
ATOM     17  C   UNL     1       2.223   4.423  17.786  0.00  0.00    +0.000 C 
ATOM     18  C   UNL     1       2.507   5.861  18.243  0.00  0.00    +0.000 C 
ATOM     19  C   UNL     1       2.873   5.721  19.730  0.00  0.00    +0.000 C 
ATOM     20  C   UNL     1       2.852   4.215  19.997  0.00  0.00    +0.000 C 
ATOM     21  C   UNL     1       4.188   3.513  19.660  0.00  0.00    +0.000 C 
ATOM     22  N   UNL     1       1.782   3.865  19.067  0.00  0.00    +0.000 NA
ATOM     23  C   UNL     1       1.334   2.493  19.078  0.00  0.00    +0.000 C 
ENDBRANCH  14  15
ENDBRANCH   1  14
TORSDOF 6
ENDMDL
MODEL 9
REMARK VINA RESULT:      -7.0      4.055      6.884
REMARK  Name = 
REMARK  8 active torsions:
REMARK  status: ('A' for Active; 'I' for Inactive)
REMARK    1  A    between atoms: C_1  and  C_2
REMARK    2  A    between atoms: C_2  and  C_3
REMARK    3  A    between atoms: C_3  and  O_4
REMARK    4  A    between atoms: C_3  and  C_12
REMARK    5  A    between atoms: O_4  and  C_5
REMARK    6  A    between atoms: C_12  and  O_14
REMARK    7  A    between atoms: O_14  and  C_15
REMARK    8  A    between atoms: N_22  and  C_23
REMARK                            x       y       z     vdW  Elec       q    Type
REMARK                         _______ _______ _______ _____ _____    ______ ____
ROOT
ATOM      1  C   UNL     1       6.196   5.185  18.646  0.00  0.00    +0.000 C 
ATOM      2  O   UNL     1       6.824   5.292  19.693  0.00  0.00    +0.000 OA
ENDROOT
BRANCH   1   3
ATOM      3  C   UNL     1       6.514   5.926  17.328  0.00  0.00    +0.000 C 
BRANCH   3   5
ATOM      4  C   UNL     1       7.921   8.032  17.645  0.00  0.00    +0.000 C 
ATOM      5  C   UNL     1       6.517   7.441  17.607  0.00  0.00    +0.000 C 
ENDBRANCH   3   5
BRANCH   3   6
ATOM      6  O   UNL     1       5.570   5.665  16.290  0.00  0.00    +0.000 OA
BRANCH   6   7
ATOM      7  C   UNL     1       5.992   5.115  15.111  0.00  0.00    +0.000 A 
ATOM      8  C   UNL     1       7.198   5.375  14.467  0.00  0.00    +0.000 A 
ATOM      9  C   UNL     1       7.551   4.693  13.299  0.00  0.00    +0.000 A 
ATOM     10  C   UNL     1       6.670   3.772  12.745  0.00  0.00    +0.000 A 
ATOM     11 CL   UNL     1       7.110   2.919  11.319  0.00  0.00    +0.000 Cl
ATOM     12  C   UNL     1       5.436   3.539  13.347  0.00  0.00    +0.000 A 
ATOM     13  C   UNL     1       5.101   4.209  14.529  0.00  0.00    +0.000 A 
ENDBRANCH   6   7
ENDBRANCH   3   6
ENDBRANCH   1   3
BRANCH   1  14
ATOM     14  O   UNL     1       5.152   4.325  18.461  0.00  0.00    +0.000 OA
BRANCH  14  15
ATOM     15  C   UNL     1       4.465   3.822  19.633  0.00  0.00    +0.000 C 
ATOM     16  C   UNL     1       3.855   2.438  19.346  0.00  0.00    +0.000 C 
ATOM     17  C   UNL     1       2.529   2.512  18.556  0.00  0.00    +0.000 C 
ATOM     18  C   UNL     1       2.677   3.318  17.257  0.00  0.00    +0.000 C 
ATOM     19  C   UNL     1       2.321   4.758  17.662  0.00  0.00    +0.000 C 
ATOM     20  C   UNL     1       2.076   4.691  19.170  0.00  0.00    +0.000 C 
ATOM     21  C   UNL     1       3.368   4.833  20.009  0.00  0.00    +0.000 C 
ATOM     22  N   UNL     1       1.519   3.341  19.219  0.00  0.00    +0.000 NA
ATOM     23  C   UNL     1       1.020   2.890  20.496  0.00  0.00    +0.000 C 
ENDBRANCH  14  15
ENDBRANCH   1  14
TORSDOF 6
ENDMDL
