MODEL 1
REMARK VINA RESULT:      -8.0      0.000      0.000
REMARK  Name = 
REMARK  4 active torsions:
REMARK  status: ('A' for Active; 'I' for Inactive)
REMARK    1  A    between atoms: C_1  and  C_2
REMARK    2  A    between atoms: C_4  and  N_5
REMARK    3  A    between atoms: N_8  and  C_9
REMARK    4  A    between atoms: C_21  and  O_22
REMARK                            x       y       z     vdW  Elec       q    Type
REMARK                         _______ _______ _______ _____ _____    ______ ____
ROOT
ATOM      1  C   UNL     1       1.553   3.607  21.053  0.00  0.00    +0.000 C 
ATOM      2  C   UNL     1       1.931   4.868  20.318  0.00  0.00    +0.000 A 
ATOM      3  C   UNL     1       1.463   6.106  20.797  0.00  0.00    +0.000 A 
ATOM      4  C   UNL     1       1.833   7.302  20.156  0.00  0.00    +0.000 A 
ATOM      5  N   UNL     1       2.657   7.229  19.075  0.00  0.00    +0.000 NA
ATOM      6  C   UNL     1       3.117   6.057  18.564  0.00  0.00    +0.000 A 
ATOM      7  C   UNL     1       3.945   6.067  17.433  0.00  0.00    +0.000 A 
ATOM      8  C   UNL     1       4.425   4.862  16.898  0.00  0.00    +0.000 A 
ATOM      9  C   UNL     1       4.070   3.650  17.494  0.00  0.00    +0.000 A 
ATOM     10  C   UNL     1       3.248   3.631  18.624  0.00  0.00    +0.000 A 
ATOM     11  C   UNL     1       2.760   4.835  19.174  0.00  0.00    +0.000 A 
ENDROOT
BRANCH   4  12
ATOM     12  N   UNL     1       1.394   8.598  20.613  0.00  0.00    +0.000 N 
ATOM     13  C   UNL     1       0.952   9.682  19.733  0.00  0.00    +0.000 C 
ATOM     14  C   UNL     1      -0.464  10.140  20.128  0.00  0.00    +0.000 C 
ATOM     15  N   UNL     1      -0.495  10.388  21.570  0.00  0.00    +0.000 N 
ATOM     16  C   UNL     1      -0.073   9.264  22.401  0.00  0.00    +0.000 C 
ATOM     17  C   UNL     1       1.361   8.894  22.039  0.00  0.00    +0.000 C 
BRANCH  15  18
ATOM     18  C   UNL     1      -0.887  11.645  22.162  0.00  0.00    +0.000 A 
ATOM     19  C   UNL     1      -2.042  11.712  22.981  0.00  0.00    +0.000 A 
ATOM     20  C   UNL     1      -2.465  12.916  23.543  0.00  0.00    +0.000 A 
ATOM     21  C   UNL     1      -1.755  14.087  23.300  0.00  0.00    +0.000 A 
ATOM     22  C   UNL     1      -0.613  14.054  22.503  0.00  0.00    +0.000 A 
ATOM     23  C   UNL     1      -0.171  12.849  21.937  0.00  0.00    +0.000 A 
ATOM     24  F   UNL     1       0.922  12.895  21.137  0.00  0.00    +0.000 F 
ENDBRANCH  15  18
ENDBRANCH   4  12
BRANCH   8  25
ATOM     25  O   UNL     1       5.229   4.855  15.815  0.00  0.00    +0.000 OA
ATOM     26  H   UNL     1       5.971   5.468  15.719  0.00  0.00    +0.000 HD
ENDBRANCH   8  25
TORSDOF 3
ENDMDL
MODEL 2
REMARK VINA RESULT:      -7.8      0.988      1.378
REMARK  Name = 
REMARK  4 active torsions:
REMARK  status: ('A' for Active; 'I' for Inactive)
REMARK    1  A    between atoms: C_1  and  C_2
REMARK    2  A    between atoms: C_4  and  N_5
REMARK    3  A    between atoms: N_8  and  C_9
REMARK    4  A    between atoms: C_21  and  O_22
REMARK                            x       y       z     vdW  Elec       q    Type
REMARK                         _______ _______ _______ _____ _____    ______ ____
ROOT
ATOM      1  C   UNL     1       1.207   3.468  20.853  0.00  0.00    +0.000 C 
ATOM      2  C   UNL     1       1.742   4.683  20.137  0.00  0.00    +0.000 A 
ATOM      3  C   UNL     1       1.369   5.962  20.588  0.00  0.00    +0.000 A 
ATOM      4  C   UNL     1       1.885   7.114  19.965  0.00  0.00    +0.000 A 
ATOM      5  N   UNL     1       2.754   6.955  18.929  0.00  0.00    +0.000 NA
ATOM      6  C   UNL     1       3.126   5.741  18.446  0.00  0.00    +0.000 A 
ATOM      7  C   UNL     1       4.010   5.664  17.361  0.00  0.00    +0.000 A 
ATOM      8  C   UNL     1       4.400   4.415  16.854  0.00  0.00    +0.000 A 
ATOM      9  C   UNL     1       3.900   3.247  17.433  0.00  0.00    +0.000 A 
ATOM     10  C   UNL     1       3.021   3.314  18.517  0.00  0.00    +0.000 A 
ATOM     11  C   UNL     1       2.622   4.563  19.038  0.00  0.00    +0.000 A 
ENDROOT
BRANCH   4  12
ATOM     12  N   UNL     1       1.548   8.449  20.396  0.00  0.00    +0.000 N 
ATOM     13  C   UNL     1       1.154   9.536  19.497  0.00  0.00    +0.000 C 
ATOM     14  C   UNL     1      -0.216  10.099  19.918  0.00  0.00    +0.000 C 
ATOM     15  N   UNL     1      -0.186  10.389  21.352  0.00  0.00    +0.000 N 
ATOM     16  C   UNL     1       0.185   9.262  22.204  0.00  0.00    +0.000 C 
ATOM     17  C   UNL     1       1.579   8.786  21.812  0.00  0.00    +0.000 C 
BRANCH  15  18
ATOM     18  C   UNL     1      -0.474  11.686  21.918  0.00  0.00    +0.000 A 
ATOM     19  C   UNL     1       0.248  12.825  21.481  0.00  0.00    +0.000 A 
ATOM     20  C   UNL     1       0.015  14.085  22.029  0.00  0.00    +0.000 A 
ATOM     21  C   UNL     1      -0.936  14.247  23.030  0.00  0.00    +0.000 A 
ATOM     22  C   UNL     1      -1.666  13.148  23.479  0.00  0.00    +0.000 A 
ATOM     23  C   UNL     1      -1.448  11.875  22.932  0.00  0.00    +0.000 A 
ATOM     24  F   UNL     1      -2.161  10.841  23.444  0.00  0.00    +0.000 F 
ENDBRANCH  15  18
ENDBRANCH   4  12
BRANCH   8  25
ATOM     25  O   UNL     1       5.256   4.324  15.814  0.00  0.00    +0.000 OA
ATOM     26  H   UNL     1       6.173   4.038  15.924  0.00  0.00    +0.000 HD
ENDBRANCH   8  25
TORSDOF 3
ENDMDL
MODEL 3
REMARK VINA RESULT:      -7.8      1.775      2.262
REMARK  Name = 
REMARK  4 active torsions:
REMARK  status: ('A' for Active; 'I' for Inactive)
REMARK    1  A    between atoms: C_1  and  C_2
REMARK    2  A    between atoms: C_4  and  N_5
REMARK    3  A    between atoms: N_8  and  C_9
REMARK    4  A    between atoms: C_21  and  O_22
REMARK                            x       y       z     vdW  Elec       q    Type
REMARK                         _______ _______ _______ _____ _____    ______ ____
ROOT
ATOM      1  C   UNL     1       2.120   3.444  18.451  0.00  0.00    +0.000 C 
ATOM      2  C   UNL     1       2.694   4.804  18.145  0.00  0.00    +0.000 A 
ATOM      3  C   UNL     1       2.067   5.947  18.673  0.00  0.00    +0.000 A 
ATOM      4  C   UNL     1       2.605   7.226  18.439  0.00  0.00    +0.000 A 
ATOM      5  N   UNL     1       3.744   7.323  17.699  0.00  0.00    +0.000 NA
ATOM      6  C   UNL     1       4.372   6.251  17.150  0.00  0.00    +0.000 A 
ATOM      7  C   UNL     1       5.530   6.439  16.383  0.00  0.00    +0.000 A 
ATOM      8  C   UNL     1       6.186   5.338  15.812  0.00  0.00    +0.000 A 
ATOM      9  C   UNL     1       5.678   4.052  16.008  0.00  0.00    +0.000 A 
ATOM     10  C   UNL     1       4.526   3.855  16.774  0.00  0.00    +0.000 A 
ATOM     11  C   UNL     1       3.858   4.953  17.356  0.00  0.00    +0.000 A 
ENDROOT
BRANCH   4  12
ATOM     12  N   UNL     1       2.011   8.429  18.969  0.00  0.00    +0.000 N 
ATOM     13  C   UNL     1       1.716   9.627  18.178  0.00  0.00    +0.000 C 
ATOM     14  C   UNL     1       0.226   9.993  18.310  0.00  0.00    +0.000 C 
ATOM     15  N   UNL     1      -0.129  10.019  19.730  0.00  0.00    +0.000 N 
ATOM     16  C   UNL     1       0.159   8.789  20.463  0.00  0.00    +0.000 C 
ATOM     17  C   UNL     1       1.655   8.505  20.379  0.00  0.00    +0.000 C 
BRANCH  15  18
ATOM     18  C   UNL     1      -0.704  11.164  20.395  0.00  0.00    +0.000 A 
ATOM     19  C   UNL     1      -0.148  11.627  21.614  0.00  0.00    +0.000 A 
ATOM     20  C   UNL     1      -0.699  12.711  22.297  0.00  0.00    +0.000 A 
ATOM     21  C   UNL     1      -1.820  13.359  21.791  0.00  0.00    +0.000 A 
ATOM     22  C   UNL     1      -2.388  12.931  20.592  0.00  0.00    +0.000 A 
ATOM     23  C   UNL     1      -1.840  11.847  19.890  0.00  0.00    +0.000 A 
ATOM     24  F   UNL     1      -2.467  11.454  18.754  0.00  0.00    +0.000 F 
ENDBRANCH  15  18
ENDBRANCH   4  12
BRANCH   8  25
ATOM     25  O   UNL     1       7.305   5.502  15.077  0.00  0.00    +0.000 OA
ATOM     26  H   UNL     1       7.775   6.346  15.032  0.00  0.00    +0.000 HD
ENDBRANCH   8  25
TORSDOF 3
ENDMDL
MODEL 4
REMARK VINA RESULT:      -7.8      1.876      2.745
REMARK  Name = 
REMARK  4 active torsions:
REMARK  status: ('A' for Active; 'I' for Inactive)
REMARK    1  A    between atoms: C_1  and  C_2
REMARK    2  A    between atoms: C_4  and  N_5
REMARK    3  A    between atoms: N_8  and  C_9
REMARK    4  A    between atoms: C_21  and  O_22
REMARK                            x       y       z     vdW  Elec       q    Type
REMARK                         _______ _______ _______ _____ _____    ______ ____
ROOT
ATOM      1  C   UNL     1       5.110   6.404  16.330  0.00  0.00    +0.000 C 
ATOM      2  C   UNL     1       3.981   6.300  17.324  0.00  0.00    +0.000 A 
ATOM      3  C   UNL     1       3.450   7.477  17.882  0.00  0.00    +0.000 A 
ATOM      4  C   UNL     1       2.370   7.414  18.781  0.00  0.00    +0.000 A 
ATOM      5  N   UNL     1       1.852   6.192  19.085  0.00  0.00    +0.000 NA
ATOM      6  C   UNL     1       2.344   5.027  18.589  0.00  0.00    +0.000 A 
ATOM      7  C   UNL     1       1.767   3.809  18.969  0.00  0.00    +0.000 A 
ATOM      8  C   UNL     1       2.268   2.600  18.462  0.00  0.00    +0.000 A 
ATOM      9  C   UNL     1       3.350   2.616  17.579  0.00  0.00    +0.000 A 
ATOM     10  C   UNL     1       3.930   3.827  17.191  0.00  0.00    +0.000 A 
ATOM     11  C   UNL     1       3.434   5.050  17.691  0.00  0.00    +0.000 A 
ENDROOT
BRANCH   4  12
ATOM     12  N   UNL     1       1.778   8.590  19.370  0.00  0.00    +0.000 N 
ATOM     13  C   UNL     1       1.428   9.804  18.628  0.00  0.00    +0.000 C 
ATOM     14  C   UNL     1      -0.061  10.138  18.833  0.00  0.00    +0.000 C 
ATOM     15  N   UNL     1      -0.356  10.117  20.267  0.00  0.00    +0.000 N 
ATOM     16  C   UNL     1      -0.015   8.873  20.951  0.00  0.00    +0.000 C 
ATOM     17  C   UNL     1       1.481   8.620  20.795  0.00  0.00    +0.000 C 
BRANCH  15  18
ATOM     18  C   UNL     1      -0.922  11.232  20.988  0.00  0.00    +0.000 A 
ATOM     19  C   UNL     1      -1.578  12.272  20.283  0.00  0.00    +0.000 A 
ATOM     20  C   UNL     1      -2.108  13.377  20.947  0.00  0.00    +0.000 A 
ATOM     21  C   UNL     1      -1.995  13.482  22.329  0.00  0.00    +0.000 A 
ATOM     22  C   UNL     1      -1.360  12.474  23.053  0.00  0.00    +0.000 A 
ATOM     23  C   UNL     1      -0.829  11.352  22.399  0.00  0.00    +0.000 A 
ATOM     24  F   UNL     1      -0.186  10.430  23.157  0.00  0.00    +0.000 F 
ENDBRANCH  15  18
ENDBRANCH   4  12
BRANCH   8  25
ATOM     25  O   UNL     1       1.720   1.419  18.813  0.00  0.00    +0.000 OA
ATOM     26  H   UNL     1       2.257   0.648  19.041  0.00  0.00    +0.000 HD
ENDBRANCH   8  25
TORSDOF 3
ENDMDL
MODEL 5
REMARK VINA RESULT:      -7.7      1.698      2.291
REMARK  Name = 
REMARK  4 active torsions:
REMARK  status: ('A' for Active; 'I' for Inactive)
REMARK    1  A    between atoms: C_1  and  C_2
REMARK    2  A    between atoms: C_4  and  N_5
REMARK    3  A    between atoms: N_8  and  C_9
REMARK    4  A    between atoms: C_21  and  O_22
REMARK                            x       y       z     vdW  Elec       q    Type
REMARK                         _______ _______ _______ _____ _____    ______ ____
ROOT
ATOM      1  C   UNL     1       2.097   3.247  18.072  0.00  0.00    +0.000 C 
ATOM      2  C   UNL     1       2.714   4.616  17.927  0.00  0.00    +0.000 A 
ATOM      3  C   UNL     1       2.108   5.711  18.568  0.00  0.00    +0.000 A 
ATOM      4  C   UNL     1       2.684   6.992  18.484  0.00  0.00    +0.000 A 
ATOM      5  N   UNL     1       3.840   7.137  17.779  0.00  0.00    +0.000 NA
ATOM      6  C   UNL     1       4.450   6.113  17.126  0.00  0.00    +0.000 A 
ATOM      7  C   UNL     1       5.627   6.351  16.403  0.00  0.00    +0.000 A 
ATOM      8  C   UNL     1       6.264   5.301  15.725  0.00  0.00    +0.000 A 
ATOM      9  C   UNL     1       5.718   4.016  15.769  0.00  0.00    +0.000 A 
ATOM     10  C   UNL     1       4.546   3.769  16.491  0.00  0.00    +0.000 A 
ATOM     11  C   UNL     1       3.896   4.816  17.179  0.00  0.00    +0.000 A 
ENDROOT
BRANCH   4  12
ATOM     12  N   UNL     1       2.113   8.146  19.134  0.00  0.00    +0.000 N 
ATOM     13  C   UNL     1       1.764   9.394  18.451  0.00  0.00    +0.000 C 
ATOM     14  C   UNL     1       0.281   9.733  18.694  0.00  0.00    +0.000 C 
ATOM     15  N   UNL     1       0.008   9.651  20.129  0.00  0.00    +0.000 N 
ATOM     16  C   UNL     1       0.347   8.375  20.753  0.00  0.00    +0.000 C 
ATOM     17  C   UNL     1       1.837   8.115  20.563  0.00  0.00    +0.000 C 
BRANCH  15  18
ATOM     18  C   UNL     1      -0.537  10.738  20.908  0.00  0.00    +0.000 A 
ATOM     19  C   UNL     1      -0.828  11.978  20.286  0.00  0.00    +0.000 A 
ATOM     20  C   UNL     1      -1.325  13.057  21.016  0.00  0.00    +0.000 A 
ATOM     21  C   UNL     1      -1.541  12.935  22.384  0.00  0.00    +0.000 A 
ATOM     22  C   UNL     1      -1.269  11.727  23.025  0.00  0.00    +0.000 A 
ATOM     23  C   UNL     1      -0.775  10.631  22.303  0.00  0.00    +0.000 A 
ATOM     24  F   UNL     1      -0.491   9.500  22.994  0.00  0.00    +0.000 F 
ENDBRANCH  15  18
ENDBRANCH   4  12
BRANCH   8  25
ATOM     25  O   UNL     1       7.401   5.512  15.031  0.00  0.00    +0.000 OA
ATOM     26  H   UNL     1       7.410   5.598  14.068  0.00  0.00    +0.000 HD
ENDBRANCH   8  25
TORSDOF 3
ENDMDL
MODEL 6
REMARK VINA RESULT:      -7.6      2.121      2.950
REMARK  Name = 
REMARK  4 active torsions:
REMARK  status: ('A' for Active; 'I' for Inactive)
REMARK    1  A    between atoms: C_1  and  C_2
REMARK    2  A    between atoms: C_4  and  N_5
REMARK    3  A    between atoms: N_8  and  C_9
REMARK    4  A    between atoms: C_21  and  O_22
REMARK                            x       y       z     vdW  Elec       q    Type
REMARK                         _______ _______ _______ _____ _____    ______ ____
ROOT
ATOM      1  C   UNL     1       5.385   6.088  16.503  0.00  0.00    +0.000 C 
ATOM      2  C   UNL     1       4.127   6.103  17.336  0.00  0.00    +0.000 A 
ATOM      3  C   UNL     1       3.626   7.335  17.796  0.00  0.00    +0.000 A 
ATOM      4  C   UNL     1       2.433   7.384  18.539  0.00  0.00    +0.000 A 
ATOM      5  N   UNL     1       1.779   6.216  18.792  0.00  0.00    +0.000 NA
ATOM      6  C   UNL     1       2.236   5.002  18.389  0.00  0.00    +0.000 A 
ATOM      7  C   UNL     1       1.514   3.844  18.709  0.00  0.00    +0.000 A 
ATOM      8  C   UNL     1       1.978   2.586  18.297  0.00  0.00    +0.000 A 
ATOM      9  C   UNL     1       3.166   2.490  17.569  0.00  0.00    +0.000 A 
ATOM     10  C   UNL     1       3.890   3.639  17.242  0.00  0.00    +0.000 A 
ATOM     11  C   UNL     1       3.435   4.912  17.648  0.00  0.00    +0.000 A 
ENDROOT
BRANCH   4  12
ATOM     12  N   UNL     1       1.866   8.620  19.021  0.00  0.00    +0.000 N 
ATOM     13  C   UNL     1       1.517   9.760  18.170  0.00  0.00    +0.000 C 
ATOM     14  C   UNL     1       0.036  10.133  18.368  0.00  0.00    +0.000 C 
ATOM     15  N   UNL     1      -0.232  10.256  19.801  0.00  0.00    +0.000 N 
ATOM     16  C   UNL     1       0.107   9.080  20.598  0.00  0.00    +0.000 C 
ATOM     17  C   UNL     1       1.597   8.792  20.442  0.00  0.00    +0.000 C 
BRANCH  15  18
ATOM     18  C   UNL     1      -0.771  11.443  20.420  0.00  0.00    +0.000 A 
ATOM     19  C   UNL     1      -0.068  12.070  21.480  0.00  0.00    +0.000 A 
ATOM     20  C   UNL     1      -0.577  13.200  22.120  0.00  0.00    +0.000 A 
ATOM     21  C   UNL     1      -1.799  13.734  21.728  0.00  0.00    +0.000 A 
ATOM     22  C   UNL     1      -2.513  13.144  20.686  0.00  0.00    +0.000 A 
ATOM     23  C   UNL     1      -2.010  12.011  20.028  0.00  0.00    +0.000 A 
ATOM     24  F   UNL     1      -2.774  11.462  19.052  0.00  0.00    +0.000 F 
ENDBRANCH  15  18
ENDBRANCH   4  12
BRANCH   8  25
ATOM     25  O   UNL     1       1.291   1.462  18.591  0.00  0.00    +0.000 OA
ATOM     26  H   UNL     1       0.350   1.476  18.812  0.00  0.00    +0.000 HD
ENDBRANCH   8  25
TORSDOF 3
ENDMDL
MODEL 7
REMARK VINA RESULT:      -7.5      1.212      1.288
REMARK  Name = 
REMARK  4 active torsions:
REMARK  status: ('A' for Active; 'I' for Inactive)
REMARK    1  A    between atoms: C_1  and  C_2
REMARK    2  A    between atoms: C_4  and  N_5
REMARK    3  A    between atoms: N_8  and  C_9
REMARK    4  A    between atoms: C_21  and  O_22
REMARK                            x       y       z     vdW  Elec       q    Type
REMARK                         _______ _______ _______ _____ _____    ______ ____
ROOT
ATOM      1  C   UNL     1       2.042   3.606  21.049  0.00  0.00    +0.000 C 
ATOM      2  C   UNL     1       2.299   4.828  20.203  0.00  0.00    +0.000 A 
ATOM      3  C   UNL     1       1.747   6.061  20.597  0.00  0.00    +0.000 A 
ATOM      4  C   UNL     1       2.003   7.226  19.851  0.00  0.00    +0.000 A 
ATOM      5  N   UNL     1       2.801   7.127  18.752  0.00  0.00    +0.000 NA
ATOM      6  C   UNL     1       3.339   5.956  18.321  0.00  0.00    +0.000 A 
ATOM      7  C   UNL     1       4.132   5.937  17.166  0.00  0.00    +0.000 A 
ATOM      8  C   UNL     1       4.692   4.733  16.713  0.00  0.00    +0.000 A 
ATOM      9  C   UNL     1       4.450   3.550  17.416  0.00  0.00    +0.000 A 
ATOM     10  C   UNL     1       3.663   3.560  18.570  0.00  0.00    +0.000 A 
ATOM     11  C   UNL     1       3.096   4.765  19.038  0.00  0.00    +0.000 A 
ENDROOT
BRANCH   4  12
ATOM     12  N   UNL     1       1.475   8.517  20.218  0.00  0.00    +0.000 N 
ATOM     13  C   UNL     1       1.338   9.649  19.298  0.00  0.00    +0.000 C 
ATOM     14  C   UNL     1      -0.122  10.138  19.277  0.00  0.00    +0.000 C 
ATOM     15  N   UNL     1      -0.575  10.332  20.655  0.00  0.00    +0.000 N 
ATOM     16  C   UNL     1      -0.442   9.163  21.520  0.00  0.00    +0.000 C 
ATOM     17  C   UNL     1       1.027   8.759  21.582  0.00  0.00    +0.000 C 
BRANCH  15  18
ATOM     18  C   UNL     1      -1.099  11.577  21.163  0.00  0.00    +0.000 A 
ATOM     19  C   UNL     1      -0.645  12.081  22.408  0.00  0.00    +0.000 A 
ATOM     20  C   UNL     1      -1.153  13.265  22.940  0.00  0.00    +0.000 A 
ATOM     21  C   UNL     1      -2.131  13.977  22.254  0.00  0.00    +0.000 A 
ATOM     22  C   UNL     1      -2.595  13.511  21.025  0.00  0.00    +0.000 A 
ATOM     23  C   UNL     1      -2.087  12.325  20.473  0.00  0.00    +0.000 A 
ATOM     24  F   UNL     1      -2.613  11.906  19.296  0.00  0.00    +0.000 F 
ENDBRANCH  15  18
ENDBRANCH   4  12
BRANCH   8  25
ATOM     25  O   UNL     1       5.464   4.699  15.607  0.00  0.00    +0.000 OA
ATOM     26  H   UNL     1       5.159   5.037  14.754  0.00  0.00    +0.000 HD
ENDBRANCH   8  25
TORSDOF 3
ENDMDL
MODEL 8
REMARK VINA RESULT:      -7.5      2.032      2.834
REMARK  Name = 
REMARK  4 active torsions:
REMARK  status: ('A' for Active; 'I' for Inactive)
REMARK    1  A    between atoms: C_1  and  C_2
REMARK    2  A    between atoms: C_4  and  N_5
REMARK    3  A    between atoms: N_8  and  C_9
REMARK    4  A    between atoms: C_21  and  O_22
REMARK                            x       y       z     vdW  Elec       q    Type
REMARK                         _______ _______ _______ _____ _____    ______ ____
ROOT
ATOM      1  C   UNL     1       5.335   5.977  16.274  0.00  0.00    +0.000 C 
ATOM      2  C   UNL     1       4.138   6.024  17.190  0.00  0.00    +0.000 A 
ATOM      3  C   UNL     1       3.660   7.271  17.631  0.00  0.00    +0.000 A 
ATOM      4  C   UNL     1       2.521   7.347  18.452  0.00  0.00    +0.000 A 
ATOM      5  N   UNL     1       1.894   6.189  18.798  0.00  0.00    +0.000 NA
ATOM      6  C   UNL     1       2.330   4.960  18.415  0.00  0.00    +0.000 A 
ATOM      7  C   UNL     1       1.640   3.815  18.833  0.00  0.00    +0.000 A 
ATOM      8  C   UNL     1       2.082   2.542  18.442  0.00  0.00    +0.000 A 
ATOM      9  C   UNL     1       3.218   2.420  17.639  0.00  0.00    +0.000 A 
ATOM     10  C   UNL     1       3.911   3.557  17.215  0.00  0.00    +0.000 A 
ATOM     11  C   UNL     1       3.476   4.844  17.598  0.00  0.00    +0.000 A 
ENDROOT
BRANCH   4  12
ATOM     12  N   UNL     1       1.980   8.600  18.920  0.00  0.00    +0.000 N 
ATOM     13  C   UNL     1       1.731   9.766  18.067  0.00  0.00    +0.000 C 
ATOM     14  C   UNL     1       0.258  10.200  18.185  0.00  0.00    +0.000 C 
ATOM     15  N   UNL     1      -0.087  10.316  19.602  0.00  0.00    +0.000 N 
ATOM     16  C   UNL     1       0.154   9.116  20.399  0.00  0.00    +0.000 C 
ATOM     17  C   UNL     1       1.636   8.765  20.325  0.00  0.00    +0.000 C 
BRANCH  15  18
ATOM     18  C   UNL     1      -0.610  11.518  20.208  0.00  0.00    +0.000 A 
ATOM     19  C   UNL     1      -1.991  11.822  20.100  0.00  0.00    +0.000 A 
ATOM     20  C   UNL     1      -2.522  12.990  20.646  0.00  0.00    +0.000 A 
ATOM     21  C   UNL     1      -1.695  13.890  21.309  0.00  0.00    +0.000 A 
ATOM     22  C   UNL     1      -0.334  13.618  21.436  0.00  0.00    +0.000 A 
ATOM     23  C   UNL     1       0.214  12.444  20.898  0.00  0.00    +0.000 A 
ATOM     24  F   UNL     1       1.551  12.262  21.020  0.00  0.00    +0.000 F 
ENDBRANCH  15  18
ENDBRANCH   4  12
BRANCH   8  25
ATOM     25  O   UNL     1       1.424   1.429  18.830  0.00  0.00    +0.000 OA
ATOM     26  H   UNL     1       1.767   0.541  18.659  0.00  0.00    +0.000 HD
ENDBRANCH   8  25
TORSDOF 3
ENDMDL
MODEL 9
REMARK VINA RESULT:      -7.5      1.352      1.392
REMARK  Name = 
REMARK  4 active torsions:
REMARK  status: ('A' for Active; 'I' for Inactive)
REMARK    1  A    between atoms: C_1  and  C_2
REMARK    2  A    between atoms: C_4  and  N_5
REMARK    3  A    between atoms: N_8  and  C_9
REMARK    4  A    between atoms: C_21  and  O_22
REMARK                            x       y       z     vdW  Elec       q    Type
REMARK                         _______ _______ _______ _____ _____    ______ ____
ROOT
ATOM      1  C   UNL     1       1.465   3.371  21.242  0.00  0.00    +0.000 C 
ATOM      2  C   UNL     1       1.976   4.454  20.325  0.00  0.00    +0.000 A 
ATOM      3  C   UNL     1       1.579   5.785  20.550  0.00  0.00    +0.000 A 
ATOM      4  C   UNL     1       2.073   6.821  19.736  0.00  0.00    +0.000 A 
ATOM      5  N   UNL     1       2.943   6.502  18.739  0.00  0.00    +0.000 NA
ATOM      6  C   UNL     1       3.337   5.230  18.470  0.00  0.00    +0.000 A 
ATOM      7  C   UNL     1       4.221   4.984  17.411  0.00  0.00    +0.000 A 
ATOM      8  C   UNL     1       4.634   3.674  17.125  0.00  0.00    +0.000 A 
ATOM      9  C   UNL     1       4.157   2.614  17.898  0.00  0.00    +0.000 A 
ATOM     10  C   UNL     1       3.278   2.850  18.959  0.00  0.00    +0.000 A 
ATOM     11  C   UNL     1       2.857   4.163  19.259  0.00  0.00    +0.000 A 
ENDROOT
BRANCH   4  12
ATOM     12  N   UNL     1       1.711   8.204  19.933  0.00  0.00    +0.000 N 
ATOM     13  C   UNL     1       1.711   9.219  18.876  0.00  0.00    +0.000 C 
ATOM     14  C   UNL     1       0.323   9.879  18.779  0.00  0.00    +0.000 C 
ATOM     15  N   UNL     1      -0.095  10.299  20.117  0.00  0.00    +0.000 N 
ATOM     16  C   UNL     1      -0.105   9.242  21.123  0.00  0.00    +0.000 C 
ATOM     17  C   UNL     1       1.303   8.670  21.250  0.00  0.00    +0.000 C 
BRANCH  15  18
ATOM     18  C   UNL     1      -0.457  11.654  20.459  0.00  0.00    +0.000 A 
ATOM     19  C   UNL     1      -1.809  12.071  20.365  0.00  0.00    +0.000 A 
ATOM     20  C   UNL     1      -2.187  13.380  20.658  0.00  0.00    +0.000 A 
ATOM     21  C   UNL     1      -1.231  14.313  21.045  0.00  0.00    +0.000 A 
ATOM     22  C   UNL     1       0.106  13.935  21.151  0.00  0.00    +0.000 A 
ATOM     23  C   UNL     1       0.500  12.619  20.868  0.00  0.00    +0.000 A 
ATOM     24  F   UNL     1       1.822  12.328  20.948  0.00  0.00    +0.000 F 
ENDBRANCH  15  18
ENDBRANCH   4  12
BRANCH   8  25
ATOM     25  O   UNL     1       5.490   3.421  16.113  0.00  0.00    +0.000 OA
ATOM     26  H   UNL     1       6.395   3.760  16.105  0.00  0.00    +0.000 HD
ENDBRANCH   8  25
TORSDOF 3
ENDMDL
