MODEL 1
REMARK VINA RESULT:      -5.5      0.000      0.000
REMARK  Name = 
REMARK  9 active torsions:
REMARK  status: ('A' for Active; 'I' for Inactive)
REMARK    1  A    between atoms: C_1  and  N_2
REMARK    2  A    between atoms: N_5  and  C_6
REMARK    3  A    between atoms: C_6  and  C_7
REMARK    4  A    between atoms: C_7  and  C_8
REMARK    5  A    between atoms: C_7  and  C_9
REMARK    6  A    between atoms: C_7  and  C_10
REMARK    7  A    between atoms: C_12  and  C_13
REMARK    8  A    between atoms: C_13  and  C_14
REMARK    9  A    between atoms: C_14  and  O_15
REMARK                            x       y       z     vdW  Elec       q    Type
REMARK                         _______ _______ _______ _____ _____    ______ ____
ROOT
ATOM      1  C   UNL     1       0.815   3.121  19.925  0.00  0.00    +0.000 C 
ATOM      2  N   UNL     1       1.919   3.437  19.036  0.00  0.00    +0.000 NA
ATOM      3  C   UNL     1       3.172   2.780  19.438  0.00  0.00    +0.000 C 
ATOM      4  C   UNL     1       4.279   2.975  18.377  0.00  0.00    +0.000 C 
ATOM      5  N   UNL     1       4.545   4.350  17.915  0.00  0.00    +0.000 NA
ATOM      6  C   UNL     1       3.239   5.010  17.665  0.00  0.00    +0.000 C 
ATOM      7  C   UNL     1       2.137   4.880  18.776  0.00  0.00    +0.000 C 
ENDROOT
BRANCH   5   8
ATOM      8  C   UNL     1       5.446   5.172  18.739  0.00  0.00    +0.000 C 
BRANCH   8   9
ATOM      9  C   UNL     1       6.852   5.576  18.178  0.00  0.00    +0.000 C 
ATOM     10  C   UNL     1       7.374   4.525  17.184  0.00  0.00    +0.000 C 
ATOM     11  C   UNL     1       6.693   6.917  17.422  0.00  0.00    +0.000 C 
ATOM     12  C   UNL     1       7.897   5.804  19.280  0.00  0.00    +0.000 C 
ENDBRANCH   8   9
ENDBRANCH   5   8
BRANCH   7  13
ATOM     13  C   UNL     1       2.399   5.710  20.056  0.00  0.00    +0.000 C 
BRANCH  13  14
ATOM     14  C   UNL     1       2.209   7.212  19.871  0.00  0.00    +0.000 C 
BRANCH  14  15
ATOM     15  O   UNL     1       1.739   7.793  21.082  0.00  0.00    +0.000 OA
ATOM     16  H   UNL     1       1.941   8.742  21.054  0.00  0.00    +0.000 HD
ENDBRANCH  14  15
ENDBRANCH  13  14
ENDBRANCH   7  13
TORSDOF 5
ENDMDL
MODEL 2
REMARK VINA RESULT:      -5.5      1.814      2.392
REMARK  Name = 
REMARK  9 active torsions:
REMARK  status: ('A' for Active; 'I' for Inactive)
REMARK    1  A    between atoms: C_1  and  N_2
REMARK    2  A    between atoms: N_5  and  C_6
REMARK    3  A    between atoms: C_6  and  C_7
REMARK    4  A    between atoms: C_7  and  C_8
REMARK    5  A    between atoms: C_7  and  C_9
REMARK    6  A    between atoms: C_7  and  C_10
REMARK    7  A    between atoms: C_12  and  C_13
REMARK    8  A    between atoms: C_13  and  C_14
REMARK    9  A    between atoms: C_14  and  O_15
REMARK                            x       y       z     vdW  Elec       q    Type
REMARK                         _______ _______ _______ _____ _____    ______ ____
ROOT
ATOM      1  C   UNL     1       1.121   3.054  18.230  0.00  0.00    +0.000 C 
ATOM      2  N   UNL     1       2.085   4.118  18.013  0.00  0.00    +0.000 NA
ATOM      3  C   UNL     1       3.282   3.656  17.294  0.00  0.00    +0.000 C 
ATOM      4  C   UNL     1       4.201   4.838  16.907  0.00  0.00    +0.000 C 
ATOM      5  N   UNL     1       4.575   5.786  17.972  0.00  0.00    +0.000 NA
ATOM      6  C   UNL     1       3.353   6.103  18.754  0.00  0.00    +0.000 C 
ATOM      7  C   UNL     1       2.457   4.899  19.216  0.00  0.00    +0.000 C 
ENDROOT
BRANCH   5   8
ATOM      8  C   UNL     1       5.715   5.420  18.828  0.00  0.00    +0.000 C 
BRANCH   8   9
ATOM      9  C   UNL     1       7.175   5.675  18.321  0.00  0.00    +0.000 C 
ATOM     10  C   UNL     1       7.258   6.977  17.506  0.00  0.00    +0.000 C 
ATOM     11  C   UNL     1       8.089   5.824  19.561  0.00  0.00    +0.000 C 
ATOM     12  C   UNL     1       7.735   4.513  17.488  0.00  0.00    +0.000 C 
ENDBRANCH   8   9
ENDBRANCH   5   8
BRANCH   7  13
ATOM     13  C   UNL     1       3.057   4.038  20.355  0.00  0.00    +0.000 C 
BRANCH  13  14
ATOM     14  C   UNL     1       2.092   3.775  21.506  0.00  0.00    +0.000 C 
BRANCH  14  15
ATOM     15  O   UNL     1       2.506   2.620  22.229  0.00  0.00    +0.000 OA
ATOM     16  H   UNL     1       3.179   2.163  21.700  0.00  0.00    +0.000 HD
ENDBRANCH  14  15
ENDBRANCH  13  14
ENDBRANCH   7  13
TORSDOF 5
ENDMDL
MODEL 3
REMARK VINA RESULT:      -5.5      2.408      3.391
REMARK  Name = 
REMARK  9 active torsions:
REMARK  status: ('A' for Active; 'I' for Inactive)
REMARK    1  A    between atoms: C_1  and  N_2
REMARK    2  A    between atoms: N_5  and  C_6
REMARK    3  A    between atoms: C_6  and  C_7
REMARK    4  A    between atoms: C_7  and  C_8
REMARK    5  A    between atoms: C_7  and  C_9
REMARK    6  A    between atoms: C_7  and  C_10
REMARK    7  A    between atoms: C_12  and  C_13
REMARK    8  A    between atoms: C_13  and  C_14
REMARK    9  A    between atoms: C_14  and  O_15
REMARK                            x       y       z     vdW  Elec       q    Type
REMARK                         _______ _______ _______ _____ _____    ______ ____
ROOT
ATOM      1  C   UNL     1       1.738   5.366  20.823  0.00  0.00    +0.000 C 
ATOM      2  N   UNL     1       2.988   4.902  20.247  0.00  0.00    +0.000 NA
ATOM      3  C   UNL     1       3.621   5.912  19.386  0.00  0.00    +0.000 C 
ATOM      4  C   UNL     1       5.034   5.472  18.942  0.00  0.00    +0.000 C 
ATOM      5  N   UNL     1       5.174   4.129  18.347  0.00  0.00    +0.000 NA
ATOM      6  C   UNL     1       4.394   3.177  19.178  0.00  0.00    +0.000 C 
ATOM      7  C   UNL     1       2.929   3.587  19.567  0.00  0.00    +0.000 C 
ENDROOT
BRANCH   5   8
ATOM      8  C   UNL     1       4.881   3.998  16.911  0.00  0.00    +0.000 C 
BRANCH   8   9
ATOM      9  C   UNL     1       5.789   4.734  15.868  0.00  0.00    +0.000 C 
ATOM     10  C   UNL     1       7.258   4.745  16.322  0.00  0.00    +0.000 C 
ATOM     11  C   UNL     1       5.703   3.957  14.532  0.00  0.00    +0.000 C 
ATOM     12  C   UNL     1       5.331   6.172  15.581  0.00  0.00    +0.000 C 
ENDBRANCH   8   9
ENDBRANCH   5   8
BRANCH   7  13
ATOM     13  C   UNL     1       1.906   3.533  18.406  0.00  0.00    +0.000 C 
BRANCH  13  14
ATOM     14  C   UNL     1       0.885   2.406  18.531  0.00  0.00    +0.000 C 
BRANCH  14  15
ATOM     15  O   UNL     1       1.525   1.224  19.001  0.00  0.00    +0.000 OA
ATOM     16  H   UNL     1       0.836   0.561  19.171  0.00  0.00    +0.000 HD
ENDBRANCH  14  15
ENDBRANCH  13  14
ENDBRANCH   7  13
TORSDOF 5
ENDMDL
MODEL 4
REMARK VINA RESULT:      -5.5      0.132      1.146
REMARK  Name = 
REMARK  9 active torsions:
REMARK  status: ('A' for Active; 'I' for Inactive)
REMARK    1  A    between atoms: C_1  and  N_2
REMARK    2  A    between atoms: N_5  and  C_6
REMARK    3  A    between atoms: C_6  and  C_7
REMARK    4  A    between atoms: C_7  and  C_8
REMARK    5  A    between atoms: C_7  and  C_9
REMARK    6  A    between atoms: C_7  and  C_10
REMARK    7  A    between atoms: C_12  and  C_13
REMARK    8  A    between atoms: C_13  and  C_14
REMARK    9  A    between atoms: C_14  and  O_15
REMARK                            x       y       z     vdW  Elec       q    Type
REMARK                         _______ _______ _______ _____ _____    ______ ____
ROOT
ATOM      1  C   UNL     1       0.802   3.250  19.897  0.00  0.00    +0.000 C 
ATOM      2  N   UNL     1       1.949   3.484  19.037  0.00  0.00    +0.000 NA
ATOM      3  C   UNL     1       3.154   2.779  19.501  0.00  0.00    +0.000 C 
ATOM      4  C   UNL     1       4.303   2.886  18.473  0.00  0.00    +0.000 C 
ATOM      5  N   UNL     1       4.652   4.230  17.979  0.00  0.00    +0.000 NA
ATOM      6  C   UNL     1       3.390   4.945  17.664  0.00  0.00    +0.000 C 
ATOM      7  C   UNL     1       2.247   4.905  18.740  0.00  0.00    +0.000 C 
ENDROOT
BRANCH   5   8
ATOM      8  C   UNL     1       5.565   5.034  18.808  0.00  0.00    +0.000 C 
BRANCH   8   9
ATOM      9  C   UNL     1       6.867   5.629  18.169  0.00  0.00    +0.000 C 
ATOM     10  C   UNL     1       7.913   5.955  19.247  0.00  0.00    +0.000 C 
ATOM     11  C   UNL     1       7.464   4.557  17.226  0.00  0.00    +0.000 C 
ATOM     12  C   UNL     1       6.601   6.878  17.316  0.00  0.00    +0.000 C 
ENDBRANCH   8   9
ENDBRANCH   5   8
BRANCH   7  13
ATOM     13  C   UNL     1       2.508   5.762  20.003  0.00  0.00    +0.000 C 
BRANCH  13  14
ATOM     14  C   UNL     1       2.301   7.258  19.790  0.00  0.00    +0.000 C 
BRANCH  14  15
ATOM     15  O   UNL     1       1.770   7.846  20.973  0.00  0.00    +0.000 OA
ATOM     16  H   UNL     1       2.222   7.445  21.733  0.00  0.00    +0.000 HD
ENDBRANCH  14  15
ENDBRANCH  13  14
ENDBRANCH   7  13
TORSDOF 5
ENDMDL
MODEL 5
REMARK VINA RESULT:      -5.5      1.004      1.490
REMARK  Name = 
REMARK  9 active torsions:
REMARK  status: ('A' for Active; 'I' for Inactive)
REMARK    1  A    between atoms: C_1  and  N_2
REMARK    2  A    between atoms: N_5  and  C_6
REMARK    3  A    between atoms: C_6  and  C_7
REMARK    4  A    between atoms: C_7  and  C_8
REMARK    5  A    between atoms: C_7  and  C_9
REMARK    6  A    between atoms: C_7  and  C_10
REMARK    7  A    between atoms: C_12  and  C_13
REMARK    8  A    between atoms: C_13  and  C_14
REMARK    9  A    between atoms: C_14  and  O_15
REMARK                            x       y       z     vdW  Elec       q    Type
REMARK                         _______ _______ _______ _____ _____    ______ ____
ROOT
ATOM      1  C   UNL     1       0.761   3.501  19.775  0.00  0.00    +0.000 C 
ATOM      2  N   UNL     1       2.074   3.419  19.161  0.00  0.00    +0.000 NA
ATOM      3  C   UNL     1       3.137   3.141  20.139  0.00  0.00    +0.000 C 
ATOM      4  C   UNL     1       4.489   2.869  19.442  0.00  0.00    +0.000 C 
ATOM      5  N   UNL     1       4.953   3.852  18.446  0.00  0.00    +0.000 NA
ATOM      6  C   UNL     1       3.800   4.204  17.579  0.00  0.00    +0.000 C 
ATOM      7  C   UNL     1       2.443   4.557  18.286  0.00  0.00    +0.000 C 
ENDROOT
BRANCH   5   8
ATOM      8  C   UNL     1       5.661   5.038  18.953  0.00  0.00    +0.000 C 
BRANCH   8   9
ATOM      9  C   UNL     1       6.902   5.589  18.170  0.00  0.00    +0.000 C 
ATOM     10  C   UNL     1       6.551   6.882  17.415  0.00  0.00    +0.000 C 
ATOM     11  C   UNL     1       8.006   5.919  19.203  0.00  0.00    +0.000 C 
ATOM     12  C   UNL     1       7.497   4.567  17.189  0.00  0.00    +0.000 C 
ENDBRANCH   8   9
ENDBRANCH   5   8
BRANCH   7  13
ATOM     13  C   UNL     1       2.420   5.928  19.006  0.00  0.00    +0.000 C 
BRANCH  13  14
ATOM     14  C   UNL     1       2.725   7.112  18.094  0.00  0.00    +0.000 C 
BRANCH  14  15
ATOM     15  O   UNL     1       2.269   8.318  18.699  0.00  0.00    +0.000 OA
ATOM     16  H   UNL     1       2.077   8.129  19.631  0.00  0.00    +0.000 HD
ENDBRANCH  14  15
ENDBRANCH  13  14
ENDBRANCH   7  13
TORSDOF 5
ENDMDL
MODEL 6
REMARK VINA RESULT:      -5.4      1.740      2.232
REMARK  Name = 
REMARK  9 active torsions:
REMARK  status: ('A' for Active; 'I' for Inactive)
REMARK    1  A    between atoms: C_1  and  N_2
REMARK    2  A    between atoms: N_5  and  C_6
REMARK    3  A    between atoms: C_6  and  C_7
REMARK    4  A    between atoms: C_7  and  C_8
REMARK    5  A    between atoms: C_7  and  C_9
REMARK    6  A    between atoms: C_7  and  C_10
REMARK    7  A    between atoms: C_12  and  C_13
REMARK    8  A    between atoms: C_13  and  C_14
REMARK    9  A    between atoms: C_14  and  O_15
REMARK                            x       y       z     vdW  Elec       q    Type
REMARK                         _______ _______ _______ _____ _____    ______ ____
ROOT
ATOM      1  C   UNL     1       1.475   2.296  18.365  0.00  0.00    +0.000 C 
ATOM      2  N   UNL     1       2.323   3.396  17.941  0.00  0.00    +0.000 NA
ATOM      3  C   UNL     1       3.644   2.944  17.481  0.00  0.00    +0.000 C 
ATOM      4  C   UNL     1       4.454   4.103  16.858  0.00  0.00    +0.000 C 
ATOM      5  N   UNL     1       4.581   5.345  17.643  0.00  0.00    +0.000 NA
ATOM      6  C   UNL     1       3.244   5.671  18.202  0.00  0.00    +0.000 C 
ATOM      7  C   UNL     1       2.451   4.513  18.906  0.00  0.00    +0.000 C 
ENDROOT
BRANCH   5   8
ATOM      8  C   UNL     1       5.645   5.391  18.659  0.00  0.00    +0.000 C 
BRANCH   8   9
ATOM      9  C   UNL     1       7.113   5.723  18.224  0.00  0.00    +0.000 C 
ATOM     10  C   UNL     1       8.041   5.830  19.445  0.00  0.00    +0.000 C 
ATOM     11  C   UNL     1       7.618   4.560  17.335  0.00  0.00    +0.000 C 
ATOM     12  C   UNL     1       7.217   7.006  17.385  0.00  0.00    +0.000 C 
ENDBRANCH   8   9
ENDBRANCH   5   8
BRANCH   7  13
ATOM     13  C   UNL     1       3.008   4.083  20.284  0.00  0.00    +0.000 C 
BRANCH  13  14
ATOM     14  C   UNL     1       1.961   4.047  21.393  0.00  0.00    +0.000 C 
BRANCH  14  15
ATOM     15  O   UNL     1       2.192   2.927  22.241  0.00  0.00    +0.000 OA
ATOM     16  H   UNL     1       3.001   3.101  22.748  0.00  0.00    +0.000 HD
ENDBRANCH  14  15
ENDBRANCH  13  14
ENDBRANCH   7  13
TORSDOF 5
ENDMDL
MODEL 7
REMARK VINA RESULT:      -5.4      2.515      5.341
REMARK  Name = 
REMARK  9 active torsions:
REMARK  status: ('A' for Active; 'I' for Inactive)
REMARK    1  A    between atoms: C_1  and  N_2
REMARK    2  A    between atoms: N_5  and  C_6
REMARK    3  A    between atoms: C_6  and  C_7
REMARK    4  A    between atoms: C_7  and  C_8
REMARK    5  A    between atoms: C_7  and  C_9
REMARK    6  A    between atoms: C_7  and  C_10
REMARK    7  A    between atoms: C_12  and  C_13
REMARK    8  A    between atoms: C_13  and  C_14
REMARK    9  A    between atoms: C_14  and  O_15
REMARK                            x       y       z     vdW  Elec       q    Type
REMARK                         _______ _______ _______ _____ _____    ______ ____
ROOT
ATOM      1  C   UNL     1       5.685   7.079  16.643  0.00  0.00    +0.000 C 
ATOM      2  N   UNL     1       4.752   5.987  16.858  0.00  0.00    +0.000 NA
ATOM      3  C   UNL     1       3.655   6.355  17.766  0.00  0.00    +0.000 C 
ATOM      4  C   UNL     1       2.577   5.249  17.829  0.00  0.00    +0.000 C 
ATOM      5  N   UNL     1       3.029   3.872  18.101  0.00  0.00    +0.000 NA
ATOM      6  C   UNL     1       4.226   3.609  17.262  0.00  0.00    +0.000 C 
ATOM      7  C   UNL     1       5.359   4.696  17.257  0.00  0.00    +0.000 C 
ENDROOT
BRANCH   5   8
ATOM      8  C   UNL     1       3.232   3.498  19.509  0.00  0.00    +0.000 C 
BRANCH   8   9
ATOM      9  C   UNL     1       2.020   3.535  20.501  0.00  0.00    +0.000 C 
ATOM     10  C   UNL     1       1.699   4.977  20.928  0.00  0.00    +0.000 C 
ATOM     11  C   UNL     1       0.785   2.966  19.761  0.00  0.00    +0.000 C 
ATOM     12  C   UNL     1       2.236   2.666  21.749  0.00  0.00    +0.000 C 
ENDBRANCH   8   9
ENDBRANCH   5   8
BRANCH   7  13
ATOM     13  C   UNL     1       6.193   4.776  18.559  0.00  0.00    +0.000 C 
BRANCH  13  14
ATOM     14  C   UNL     1       7.699   4.846  18.328  0.00  0.00    +0.000 C 
BRANCH  14  15
ATOM     15  O   UNL     1       8.041   4.133  17.144  0.00  0.00    +0.000 OA
ATOM     16  H   UNL     1       8.101   4.774  16.417  0.00  0.00    +0.000 HD
ENDBRANCH  14  15
ENDBRANCH  13  14
ENDBRANCH   7  13
TORSDOF 5
ENDMDL
MODEL 8
REMARK VINA RESULT:      -5.4      1.424      1.982
REMARK  Name = 
REMARK  9 active torsions:
REMARK  status: ('A' for Active; 'I' for Inactive)
REMARK    1  A    between atoms: C_1  and  N_2
REMARK    2  A    between atoms: N_5  and  C_6
REMARK    3  A    between atoms: C_6  and  C_7
REMARK    4  A    between atoms: C_7  and  C_8
REMARK    5  A    between atoms: C_7  and  C_9
REMARK    6  A    between atoms: C_7  and  C_10
REMARK    7  A    between atoms: C_12  and  C_13
REMARK    8  A    between atoms: C_13  and  C_14
REMARK    9  A    between atoms: C_14  and  O_15
REMARK                            x       y       z     vdW  Elec       q    Type
REMARK                         _______ _______ _______ _____ _____    ______ ____
ROOT
ATOM      1  C   UNL     1       1.366   2.567  20.942  0.00  0.00    +0.000 C 
ATOM      2  N   UNL     1       1.897   2.808  19.612  0.00  0.00    +0.000 NA
ATOM      3  C   UNL     1       3.250   2.258  19.437  0.00  0.00    +0.000 C 
ATOM      4  C   UNL     1       3.714   2.355  17.966  0.00  0.00    +0.000 C 
ATOM      5  N   UNL     1       3.604   3.667  17.302  0.00  0.00    +0.000 NA
ATOM      6  C   UNL     1       2.274   4.238  17.635  0.00  0.00    +0.000 C 
ATOM      7  C   UNL     1       1.830   4.211  19.141  0.00  0.00    +0.000 C 
ENDROOT
BRANCH   5   8
ATOM      8  C   UNL     1       4.700   4.625  17.520  0.00  0.00    +0.000 C 
BRANCH   8   9
ATOM      9  C   UNL     1       5.537   5.131  16.296  0.00  0.00    +0.000 C 
ATOM     10  C   UNL     1       5.128   6.559  15.899  0.00  0.00    +0.000 C 
ATOM     11  C   UNL     1       7.026   5.155  16.717  0.00  0.00    +0.000 C 
ATOM     12  C   UNL     1       5.432   4.208  15.072  0.00  0.00    +0.000 C 
ENDBRANCH   8   9
ENDBRANCH   5   8
BRANCH   7  13
ATOM     13  C   UNL     1       2.575   5.211  20.058  0.00  0.00    +0.000 C 
BRANCH  13  14
ATOM     14  C   UNL     1       1.668   6.253  20.705  0.00  0.00    +0.000 C 
BRANCH  14  15
ATOM     15  O   UNL     1       2.207   7.555  20.504  0.00  0.00    +0.000 OA
ATOM     16  H   UNL     1       1.938   8.108  21.255  0.00  0.00    +0.000 HD
ENDBRANCH  14  15
ENDBRANCH  13  14
ENDBRANCH   7  13
TORSDOF 5
ENDMDL
MODEL 9
REMARK VINA RESULT:      -5.4      2.192      5.154
REMARK  Name = 
REMARK  9 active torsions:
REMARK  status: ('A' for Active; 'I' for Inactive)
REMARK    1  A    between atoms: C_1  and  N_2
REMARK    2  A    between atoms: N_5  and  C_6
REMARK    3  A    between atoms: C_6  and  C_7
REMARK    4  A    between atoms: C_7  and  C_8
REMARK    5  A    between atoms: C_7  and  C_9
REMARK    6  A    between atoms: C_7  and  C_10
REMARK    7  A    between atoms: C_12  and  C_13
REMARK    8  A    between atoms: C_13  and  C_14
REMARK    9  A    between atoms: C_14  and  O_15
REMARK                            x       y       z     vdW  Elec       q    Type
REMARK                         _______ _______ _______ _____ _____    ______ ____
ROOT
ATOM      1  C   UNL     1       6.838   5.151  15.832  0.00  0.00    +0.000 C 
ATOM      2  N   UNL     1       5.853   4.443  16.629  0.00  0.00    +0.000 NA
ATOM      3  C   UNL     1       4.494   4.977  16.451  0.00  0.00    +0.000 C 
ATOM      4  C   UNL     1       3.441   4.091  17.156  0.00  0.00    +0.000 C 
ATOM      5  N   UNL     1       3.677   3.749  18.570  0.00  0.00    +0.000 NA
ATOM      6  C   UNL     1       5.101   3.357  18.716  0.00  0.00    +0.000 C 
ATOM      7  C   UNL     1       6.180   4.296  18.067  0.00  0.00    +0.000 C 
ENDROOT
BRANCH   5   8
ATOM      8  C   UNL     1       3.255   4.734  19.579  0.00  0.00    +0.000 C 
BRANCH   8   9
ATOM      9  C   UNL     1       1.985   4.450  20.452  0.00  0.00    +0.000 C 
ATOM     10  C   UNL     1       2.354   3.689  21.736  0.00  0.00    +0.000 C 
ATOM     11  C   UNL     1       1.375   5.813  20.858  0.00  0.00    +0.000 C 
ATOM     12  C   UNL     1       0.894   3.679  19.693  0.00  0.00    +0.000 C 
ENDBRANCH   8   9
ENDBRANCH   5   8
BRANCH   7  13
ATOM     13  C   UNL     1       6.396   5.645  18.796  0.00  0.00    +0.000 C 
BRANCH  13  14
ATOM     14  C   UNL     1       7.836   5.890  19.234  0.00  0.00    +0.000 C 
BRANCH  14  15
ATOM     15  O   UNL     1       8.019   5.437  20.572  0.00  0.00    +0.000 OA
ATOM     16  H   UNL     1       7.196   5.607  21.058  0.00  0.00    +0.000 HD
ENDBRANCH  14  15
ENDBRANCH  13  14
ENDBRANCH   7  13
TORSDOF 5
ENDMDL
