MODEL 1
REMARK VINA RESULT:      -9.1      0.000      0.000
REMARK  Name = 
REMARK  10 active torsions:
REMARK  status: ('A' for Active; 'I' for Inactive)
REMARK    1  A    between atoms: C_1  and  C_2
REMARK    2  A    between atoms: C_4  and  N_5
REMARK    3  A    between atoms: C_7  and  C_8
REMARK    4  A    between atoms: C_9  and  C_10
REMARK    5  A    between atoms: C_10  and  N_11
REMARK    6  A    between atoms: C_12  and  C_14
REMARK    7  A    between atoms: N_17  and  C_18
REMARK    8  A    between atoms: C_18  and  C_19
REMARK    9  A    between atoms: C_22  and  C_23
REMARK   10  A    between atoms: N_29  and  C_30
REMARK                            x       y       z     vdW  Elec       q    Type
REMARK                         _______ _______ _______ _____ _____    ______ ____
ROOT
ATOM      1  C   UNL     1       3.352   4.497  19.816  0.00  0.00    +0.000 A 
ATOM      2  C   UNL     1       3.811   3.192  20.105  0.00  0.00    +0.000 A 
ATOM      3  N   UNL     1       4.870   2.838  19.368  0.00  0.00    +0.000 NA
ATOM      4  N   UNL     1       5.107   3.928  18.611  0.00  0.00    +0.000 N 
ATOM      5  C   UNL     1       4.228   4.947  18.846  0.00  0.00    +0.000 A 
ENDROOT
BRANCH   1   7
ATOM      6  N   UNL     1       2.320   6.583  20.259  0.00  0.00    +0.000 N 
ATOM      7  C   UNL     1       2.246   5.214  20.428  0.00  0.00    +0.000 C 
ATOM      8  O   UNL     1       1.334   4.644  21.005  0.00  0.00    +0.000 OA
ATOM      9  H   UNL     1       2.960   6.925  19.569  0.00  0.00    +0.000 HD
BRANCH   6  10
ATOM     10  C   UNL     1       1.282   7.478  20.723  0.00  0.00    +0.000 C 
BRANCH  10  18
ATOM     11  C   UNL     1       2.320   7.791  17.887  0.00  0.00    +0.000 C 
ATOM     12  C   UNL     1       1.802   8.948  18.697  0.00  0.00    +0.000 A 
ATOM     13  C   UNL     1       1.804  10.214  18.098  0.00  0.00    +0.000 A 
ATOM     14  C   UNL     1       1.346  11.311  18.801  0.00  0.00    +0.000 A 
ATOM     15  N   UNL     1       0.862  11.212  20.044  0.00  0.00    +0.000 NA
ATOM     16  C   UNL     1       0.835   9.985  20.636  0.00  0.00    +0.000 A 
ATOM     17  C   UNL     1       0.241   9.979  22.015  0.00  0.00    +0.000 C 
ATOM     18  C   UNL     1       1.309   8.814  20.014  0.00  0.00    +0.000 A 
BRANCH  14  19
ATOM     19  N   UNL     1       1.305  12.566  18.198  0.00  0.00    +0.000 N 
ATOM     20  H   UNL     1       0.367  12.949  18.167  0.00  0.00    +0.000 HD
ATOM     21  H   UNL     1       1.722  12.477  17.275  0.00  0.00    +0.000 HD
ENDBRANCH  14  19
ENDBRANCH  10  18
ENDBRANCH   6  10
ENDBRANCH   1   7
BRANCH   4  22
ATOM     22  C   UNL     1       6.283   3.987  17.754  0.00  0.00    +0.000 C 
BRANCH  22  23
ATOM     23  C   UNL     1       6.993   5.316  17.828  0.00  0.00    +0.000 A 
ATOM     24  C   UNL     1       6.812   6.264  16.813  0.00  0.00    +0.000 A 
ATOM     25  C   UNL     1       7.322   7.552  16.958  0.00  0.00    +0.000 A 
ATOM     26  C   UNL     1       8.030   7.917  18.115  0.00  0.00    +0.000 A 
ATOM     27  C   UNL     1       8.268   6.964  19.108  0.00  0.00    +0.000 A 
ATOM     28  C   UNL     1       7.754   5.669  18.958  0.00  0.00    +0.000 A 
BRANCH  26  29
ATOM     29  C   UNL     1       8.358   9.363  18.272  0.00  0.00    +0.000 C 
ATOM     30  O   UNL     1       7.856  10.114  17.441  0.00  0.00    +0.000 OA
ATOM     31  N   UNL     1       9.201   9.701  19.314  0.00  0.00    +0.000 N 
ATOM     32  C   UNL     1       9.556  11.012  19.587  0.00  0.00    +0.000 A 
ATOM     33  C   UNL     1      10.441  11.427  20.614  0.00  0.00    +0.000 A 
ATOM     34  C   UNL     1      10.491  12.802  20.525  0.00  0.00    +0.000 A 
ATOM     35  N   UNL     1       9.655  13.128  19.501  0.00  0.00    +0.000 N 
ATOM     36  C   UNL     1       9.295  14.441  19.025  0.00  0.00    +0.000 C 
ATOM     37  N   UNL     1       9.095  12.067  18.923  0.00  0.00    +0.000 NA
ATOM     38  H   UNL     1       9.621   8.987  19.886  0.00  0.00    +0.000 HD
ENDBRANCH  26  29
ENDBRANCH  22  23
ENDBRANCH   4  22
TORSDOF 7
ENDMDL
MODEL 2
REMARK VINA RESULT:      -8.2      4.929     10.718
REMARK  Name = 
REMARK  10 active torsions:
REMARK  status: ('A' for Active; 'I' for Inactive)
REMARK    1  A    between atoms: C_1  and  C_2
REMARK    2  A    between atoms: C_4  and  N_5
REMARK    3  A    between atoms: C_7  and  C_8
REMARK    4  A    between atoms: C_9  and  C_10
REMARK    5  A    between atoms: C_10  and  N_11
REMARK    6  A    between atoms: C_12  and  C_14
REMARK    7  A    between atoms: N_17  and  C_18
REMARK    8  A    between atoms: C_18  and  C_19
REMARK    9  A    between atoms: C_22  and  C_23
REMARK   10  A    between atoms: N_29  and  C_30
REMARK                            x       y       z     vdW  Elec       q    Type
REMARK                         _______ _______ _______ _____ _____    ______ ____
ROOT
ATOM      1  C   UNL     1       2.073   7.315  19.873  0.00  0.00    +0.000 A 
ATOM      2  C   UNL     1       1.438   7.921  20.981  0.00  0.00    +0.000 A 
ATOM      3  N   UNL     1       0.990   9.153  20.714  0.00  0.00    +0.000 NA
ATOM      4  N   UNL     1       1.321   9.337  19.420  0.00  0.00    +0.000 N 
ATOM      5  C   UNL     1       1.968   8.264  18.874  0.00  0.00    +0.000 A 
ENDROOT
BRANCH   1   7
ATOM      6  N   UNL     1       3.963   5.992  19.334  0.00  0.00    +0.000 N 
ATOM      7  C   UNL     1       2.659   5.989  19.791  0.00  0.00    +0.000 C 
ATOM      8  O   UNL     1       2.055   4.982  20.125  0.00  0.00    +0.000 OA
ATOM      9  H   UNL     1       4.442   6.872  19.327  0.00  0.00    +0.000 HD
BRANCH   6  10
ATOM     10  C   UNL     1       4.758   4.787  19.249  0.00  0.00    +0.000 C 
BRANCH  10  18
ATOM     11  C   UNL     1       7.571   5.544  18.394  0.00  0.00    +0.000 C 
ATOM     12  C   UNL     1       6.583   4.895  17.462  0.00  0.00    +0.000 A 
ATOM     13  C   UNL     1       7.001   4.635  16.151  0.00  0.00    +0.000 A 
ATOM     14  C   UNL     1       6.130   4.047  15.254  0.00  0.00    +0.000 A 
ATOM     15  N   UNL     1       4.890   3.680  15.597  0.00  0.00    +0.000 NA
ATOM     16  C   UNL     1       4.474   3.909  16.874  0.00  0.00    +0.000 A 
ATOM     17  C   UNL     1       3.082   3.427  17.164  0.00  0.00    +0.000 C 
ATOM     18  C   UNL     1       5.276   4.530  17.851  0.00  0.00    +0.000 A 
BRANCH  14  19
ATOM     19  N   UNL     1       6.550   3.746  13.961  0.00  0.00    +0.000 N 
ATOM     20  H   UNL     1       6.134   2.892  13.608  0.00  0.00    +0.000 HD
ATOM     21  H   UNL     1       7.566   3.711  13.968  0.00  0.00    +0.000 HD
ENDBRANCH  14  19
ENDBRANCH  10  18
ENDBRANCH   6  10
ENDBRANCH   1   7
BRANCH   4  22
ATOM     22  C   UNL     1       0.880  10.528  18.709  0.00  0.00    +0.000 C 
BRANCH  22  23
ATOM     23  C   UNL     1      -0.445  11.049  19.208  0.00  0.00    +0.000 A 
ATOM     24  C   UNL     1      -0.498  11.824  20.373  0.00  0.00    +0.000 A 
ATOM     25  C   UNL     1      -1.685  12.451  20.744  0.00  0.00    +0.000 A 
ATOM     26  C   UNL     1      -2.845  12.311  19.964  0.00  0.00    +0.000 A 
ATOM     27  C   UNL     1      -2.820  11.493  18.832  0.00  0.00    +0.000 A 
ATOM     28  C   UNL     1      -1.625  10.862  18.463  0.00  0.00    +0.000 A 
BRANCH  26  29
ATOM     29  C   UNL     1      -4.004  13.177  20.323  0.00  0.00    +0.000 C 
ATOM     30  O   UNL     1      -4.033  13.569  21.486  0.00  0.00    +0.000 OA
ATOM     31  N   UNL     1      -4.925  13.430  19.325  0.00  0.00    +0.000 N 
ATOM     32  C   UNL     1      -6.028  14.246  19.521  0.00  0.00    +0.000 A 
ATOM     33  C   UNL     1      -7.030  14.520  18.556  0.00  0.00    +0.000 A 
ATOM     34  C   UNL     1      -7.914  15.377  19.175  0.00  0.00    +0.000 A 
ATOM     35  N   UNL     1      -7.409  15.577  20.424  0.00  0.00    +0.000 N 
ATOM     36  C   UNL     1      -7.915  16.438  21.465  0.00  0.00    +0.000 C 
ATOM     37  N   UNL     1      -6.285  14.899  20.649  0.00  0.00    +0.000 NA
ATOM     38  H   UNL     1      -4.842  12.986  18.425  0.00  0.00    +0.000 HD
ENDBRANCH  26  29
ENDBRANCH  22  23
ENDBRANCH   4  22
TORSDOF 7
ENDMDL
MODEL 3
REMARK VINA RESULT:      -8.1      1.056      1.761
REMARK  Name = 
REMARK  10 active torsions:
REMARK  status: ('A' for Active; 'I' for Inactive)
REMARK    1  A    between atoms: C_1  and  C_2
REMARK    2  A    between atoms: C_4  and  N_5
REMARK    3  A    between atoms: C_7  and  C_8
REMARK    4  A    between atoms: C_9  and  C_10
REMARK    5  A    between atoms: C_10  and  N_11
REMARK    6  A    between atoms: C_12  and  C_14
REMARK    7  A    between atoms: N_17  and  C_18
REMARK    8  A    between atoms: C_18  and  C_19
REMARK    9  A    between atoms: C_22  and  C_23
REMARK   10  A    between atoms: N_29  and  C_30
REMARK                            x       y       z     vdW  Elec       q    Type
REMARK                         _______ _______ _______ _____ _____    ______ ____
ROOT
ATOM      1  C   UNL     1       3.034   5.153  19.693  0.00  0.00    +0.000 A 
ATOM      2  C   UNL     1       2.990   3.752  19.508  0.00  0.00    +0.000 A 
ATOM      3  N   UNL     1       4.006   3.294  18.767  0.00  0.00    +0.000 NA
ATOM      4  N   UNL     1       4.719   4.403  18.488  0.00  0.00    +0.000 N 
ATOM      5  C   UNL     1       4.179   5.538  19.022  0.00  0.00    +0.000 A 
ENDROOT
BRANCH   1   7
ATOM      6  N   UNL     1       2.481   7.317  20.483  0.00  0.00    +0.000 N 
ATOM      7  C   UNL     1       2.114   5.985  20.449  0.00  0.00    +0.000 C 
ATOM      8  O   UNL     1       1.105   5.540  20.972  0.00  0.00    +0.000 OA
ATOM      9  H   UNL     1       3.174   7.617  19.826  0.00  0.00    +0.000 HD
BRANCH   6  10
ATOM     10  C   UNL     1       1.665   8.329  21.116  0.00  0.00    +0.000 C 
BRANCH  10  18
ATOM     11  C   UNL     1      -0.755   9.966  21.943  0.00  0.00    +0.000 C 
ATOM     12  C   UNL     1      -0.286   9.869  20.516  0.00  0.00    +0.000 A 
ATOM     13  C   UNL     1      -1.009  10.573  19.545  0.00  0.00    +0.000 A 
ATOM     14  C   UNL     1      -0.625  10.511  18.220  0.00  0.00    +0.000 A 
ATOM     15  N   UNL     1       0.447   9.819  17.818  0.00  0.00    +0.000 NA
ATOM     16  C   UNL     1       1.172   9.142  18.752  0.00  0.00    +0.000 A 
ATOM     17  C   UNL     1       2.373   8.428  18.201  0.00  0.00    +0.000 C 
ATOM     18  C   UNL     1       0.843   9.118  20.121  0.00  0.00    +0.000 A 
BRANCH  14  19
ATOM     19  N   UNL     1      -1.312  11.243  17.254  0.00  0.00    +0.000 N 
ATOM     20  H   UNL     1      -0.952  12.185  17.154  0.00  0.00    +0.000 HD
ATOM     21  H   UNL     1      -2.298  11.225  17.499  0.00  0.00    +0.000 HD
ENDBRANCH  14  19
ENDBRANCH  10  18
ENDBRANCH   6  10
ENDBRANCH   1   7
BRANCH   4  22
ATOM     22  C   UNL     1       5.997   4.302  17.797  0.00  0.00    +0.000 C 
BRANCH  22  23
ATOM     23  C   UNL     1       6.772   5.597  17.809  0.00  0.00    +0.000 A 
ATOM     24  C   UNL     1       6.424   6.628  16.927  0.00  0.00    +0.000 A 
ATOM     25  C   UNL     1       7.016   7.883  17.049  0.00  0.00    +0.000 A 
ATOM     26  C   UNL     1       7.971   8.132  18.047  0.00  0.00    +0.000 A 
ATOM     27  C   UNL     1       8.369   7.096  18.896  0.00  0.00    +0.000 A 
ATOM     28  C   UNL     1       7.773   5.834  18.770  0.00  0.00    +0.000 A 
BRANCH  26  29
ATOM     29  C   UNL     1       8.396   9.550  18.231  0.00  0.00    +0.000 C 
ATOM     30  O   UNL     1       8.042  10.327  17.350  0.00  0.00    +0.000 OA
ATOM     31  N   UNL     1       9.151   9.833  19.353  0.00  0.00    +0.000 N 
ATOM     32  C   UNL     1       9.580  11.115  19.655  0.00  0.00    +0.000 A 
ATOM     33  C   UNL     1      10.386  11.472  20.766  0.00  0.00    +0.000 A 
ATOM     34  C   UNL     1      10.554  12.838  20.677  0.00  0.00    +0.000 A 
ATOM     35  N   UNL     1       9.855  13.216  19.570  0.00  0.00    +0.000 N 
ATOM     36  C   UNL     1       9.651  14.547  19.054  0.00  0.00    +0.000 C 
ATOM     37  N   UNL     1       9.274  12.195  18.943  0.00  0.00    +0.000 NA
ATOM     38  H   UNL     1       9.453   9.095  19.968  0.00  0.00    +0.000 HD
ENDBRANCH  26  29
ENDBRANCH  22  23
ENDBRANCH   4  22
TORSDOF 7
ENDMDL
MODEL 4
REMARK VINA RESULT:      -8.1      4.432      8.957
REMARK  Name = 
REMARK  10 active torsions:
REMARK  status: ('A' for Active; 'I' for Inactive)
REMARK    1  A    between atoms: C_1  and  C_2
REMARK    2  A    between atoms: C_4  and  N_5
REMARK    3  A    between atoms: C_7  and  C_8
REMARK    4  A    between atoms: C_9  and  C_10
REMARK    5  A    between atoms: C_10  and  N_11
REMARK    6  A    between atoms: C_12  and  C_14
REMARK    7  A    between atoms: N_17  and  C_18
REMARK    8  A    between atoms: C_18  and  C_19
REMARK    9  A    between atoms: C_22  and  C_23
REMARK   10  A    between atoms: N_29  and  C_30
REMARK                            x       y       z     vdW  Elec       q    Type
REMARK                         _______ _______ _______ _____ _____    ______ ____
ROOT
ATOM      1  C   UNL     1       2.236   7.334  19.579  0.00  0.00    +0.000 A 
ATOM      2  C   UNL     1       1.562   7.786  20.737  0.00  0.00    +0.000 A 
ATOM      3  N   UNL     1       0.900   8.931  20.538  0.00  0.00    +0.000 NA
ATOM      4  N   UNL     1       1.132   9.211  19.240  0.00  0.00    +0.000 N 
ATOM      5  C   UNL     1       1.923   8.282  18.624  0.00  0.00    +0.000 A 
ENDROOT
BRANCH   1   7
ATOM      6  N   UNL     1       4.343   6.384  19.059  0.00  0.00    +0.000 N 
ATOM      7  C   UNL     1       3.034   6.130  19.420  0.00  0.00    +0.000 C 
ATOM      8  O   UNL     1       2.583   5.013  19.618  0.00  0.00    +0.000 OA
ATOM      9  H   UNL     1       4.673   7.324  19.165  0.00  0.00    +0.000 HD
BRANCH   6  10
ATOM     10  C   UNL     1       5.327   5.333  18.922  0.00  0.00    +0.000 C 
BRANCH  10  18
ATOM     11  C   UNL     1       3.980   3.574  16.847  0.00  0.00    +0.000 C 
ATOM     12  C   UNL     1       5.218   4.377  16.553  0.00  0.00    +0.000 A 
ATOM     13  C   UNL     1       5.752   4.299  15.261  0.00  0.00    +0.000 A 
ATOM     14  C   UNL     1       6.892   5.011  14.942  0.00  0.00    +0.000 A 
ATOM     15  N   UNL     1       7.503   5.813  15.821  0.00  0.00    +0.000 NA
ATOM     16  C   UNL     1       6.985   5.915  17.077  0.00  0.00    +0.000 A 
ATOM     17  C   UNL     1       7.725   6.868  17.973  0.00  0.00    +0.000 C 
ATOM     18  C   UNL     1       5.848   5.206  17.507  0.00  0.00    +0.000 A 
BRANCH  14  19
ATOM     19  N   UNL     1       7.406   4.973  13.648  0.00  0.00    +0.000 N 
ATOM     20  H   UNL     1       6.684   5.058  12.943  0.00  0.00    +0.000 HD
ATOM     21  H   UNL     1       7.942   4.114  13.557  0.00  0.00    +0.000 HD
ENDBRANCH  14  19
ENDBRANCH  10  18
ENDBRANCH   6  10
ENDBRANCH   1   7
BRANCH   4  22
ATOM     22  C   UNL     1       0.461  10.331  18.596  0.00  0.00    +0.000 C 
BRANCH  22  23
ATOM     23  C   UNL     1       0.238  11.494  19.532  0.00  0.00    +0.000 A 
ATOM     24  C   UNL     1      -0.968  11.602  20.236  0.00  0.00    +0.000 A 
ATOM     25  C   UNL     1      -1.116  12.570  21.227  0.00  0.00    +0.000 A 
ATOM     26  C   UNL     1      -0.066  13.452  21.530  0.00  0.00    +0.000 A 
ATOM     27  C   UNL     1       1.120  13.392  20.795  0.00  0.00    +0.000 A 
ATOM     28  C   UNL     1       1.265  12.419  19.798  0.00  0.00    +0.000 A 
BRANCH  26  29
ATOM     29  C   UNL     1      -0.240  14.312  22.736  0.00  0.00    +0.000 C 
ATOM     30  O   UNL     1      -0.780  13.774  23.698  0.00  0.00    +0.000 OA
ATOM     31  N   UNL     1       0.205  15.617  22.639  0.00  0.00    +0.000 N 
ATOM     32  C   UNL     1       0.132  16.507  23.698  0.00  0.00    +0.000 A 
ATOM     33  C   UNL     1       0.534  17.866  23.660  0.00  0.00    +0.000 A 
ATOM     34  C   UNL     1       0.295  18.359  24.925  0.00  0.00    +0.000 A 
ATOM     35  N   UNL     1      -0.204  17.308  25.633  0.00  0.00    +0.000 N 
ATOM     36  C   UNL     1      -0.567  17.262  27.028  0.00  0.00    +0.000 C 
ATOM     37  N   UNL     1      -0.317  16.195  24.910  0.00  0.00    +0.000 NA
ATOM     38  H   UNL     1       0.560  15.976  21.768  0.00  0.00    +0.000 HD
ENDBRANCH  26  29
ENDBRANCH  22  23
ENDBRANCH   4  22
TORSDOF 7
ENDMDL
MODEL 5
REMARK VINA RESULT:      -8.1      3.028      9.506
REMARK  Name = 
REMARK  10 active torsions:
REMARK  status: ('A' for Active; 'I' for Inactive)
REMARK    1  A    between atoms: C_1  and  C_2
REMARK    2  A    between atoms: C_4  and  N_5
REMARK    3  A    between atoms: C_7  and  C_8
REMARK    4  A    between atoms: C_9  and  C_10
REMARK    5  A    between atoms: C_10  and  N_11
REMARK    6  A    between atoms: C_12  and  C_14
REMARK    7  A    between atoms: N_17  and  C_18
REMARK    8  A    between atoms: C_18  and  C_19
REMARK    9  A    between atoms: C_22  and  C_23
REMARK   10  A    between atoms: N_29  and  C_30
REMARK                            x       y       z     vdW  Elec       q    Type
REMARK                         _______ _______ _______ _____ _____    ______ ____
ROOT
ATOM      1  C   UNL     1       2.998  14.395  19.075  0.00  0.00    +0.000 A 
ATOM      2  C   UNL     1       2.038  14.815  20.025  0.00  0.00    +0.000 A 
ATOM      3  N   UNL     1       0.958  14.027  20.055  0.00  0.00    +0.000 NA
ATOM      4  N   UNL     1       1.228  13.082  19.133  0.00  0.00    +0.000 N 
ATOM      5  C   UNL     1       2.438  13.258  18.523  0.00  0.00    +0.000 A 
ENDROOT
BRANCH   1   7
ATOM      6  N   UNL     1       5.071  15.188  19.902  0.00  0.00    +0.000 N 
ATOM      7  C   UNL     1       4.288  14.993  18.781  0.00  0.00    +0.000 C 
ATOM      8  O   UNL     1       4.642  15.264  17.644  0.00  0.00    +0.000 OA
ATOM      9  H   UNL     1       4.798  14.710  20.739  0.00  0.00    +0.000 HD
BRANCH   6  10
ATOM     10  C   UNL     1       6.422  15.700  19.825  0.00  0.00    +0.000 C 
BRANCH  10  18
ATOM     11  C   UNL     1       7.093  15.181  22.740  0.00  0.00    +0.000 C 
ATOM     12  C   UNL     1       7.764  14.452  21.607  0.00  0.00    +0.000 A 
ATOM     13  C   UNL     1       8.734  13.496  21.934  0.00  0.00    +0.000 A 
ATOM     14  C   UNL     1       9.386  12.805  20.931  0.00  0.00    +0.000 A 
ATOM     15  N   UNL     1       9.104  12.989  19.637  0.00  0.00    +0.000 NA
ATOM     16  C   UNL     1       8.150  13.902  19.302  0.00  0.00    +0.000 A 
ATOM     17  C   UNL     1       7.887  14.006  17.827  0.00  0.00    +0.000 C 
ATOM     18  C   UNL     1       7.454  14.679  20.248  0.00  0.00    +0.000 A 
BRANCH  14  19
ATOM     19  N   UNL     1      10.321  11.822  21.248  0.00  0.00    +0.000 N 
ATOM     20  H   UNL     1       9.900  10.905  21.342  0.00  0.00    +0.000 HD
ATOM     21  H   UNL     1      10.805  12.119  22.091  0.00  0.00    +0.000 HD
ENDBRANCH  14  19
ENDBRANCH  10  18
ENDBRANCH   6  10
ENDBRANCH   1   7
BRANCH   4  22
ATOM     22  C   UNL     1       0.335  11.945  18.960  0.00  0.00    +0.000 C 
BRANCH  22  23
ATOM     23  C   UNL     1       1.054  10.621  19.036  0.00  0.00    +0.000 A 
ATOM     24  C   UNL     1       0.896   9.805  20.163  0.00  0.00    +0.000 A 
ATOM     25  C   UNL     1       1.413   8.511  20.169  0.00  0.00    +0.000 A 
ATOM     26  C   UNL     1       2.103   8.009  19.053  0.00  0.00    +0.000 A 
ATOM     27  C   UNL     1       2.317   8.834  17.946  0.00  0.00    +0.000 A 
ATOM     28  C   UNL     1       1.798  10.135  17.945  0.00  0.00    +0.000 A 
BRANCH  26  29
ATOM     29  C   UNL     1       2.439   6.556  19.069  0.00  0.00    +0.000 C 
ATOM     30  O   UNL     1       2.875   6.102  18.016  0.00  0.00    +0.000 OA
ATOM     31  N   UNL     1       2.208   5.877  20.251  0.00  0.00    +0.000 N 
ATOM     32  C   UNL     1       2.510   4.533  20.405  0.00  0.00    +0.000 A 
ATOM     33  C   UNL     1       2.267   3.766  21.572  0.00  0.00    +0.000 A 
ATOM     34  C   UNL     1       2.729   2.499  21.284  0.00  0.00    +0.000 A 
ATOM     35  N   UNL     1       3.219   2.574  20.015  0.00  0.00    +0.000 N 
ATOM     36  C   UNL     1       3.873   1.542  19.248  0.00  0.00    +0.000 C 
ATOM     37  N   UNL     1       3.086   3.783  19.472  0.00  0.00    +0.000 NA
ATOM     38  H   UNL     1       1.768   6.337  21.030  0.00  0.00    +0.000 HD
ENDBRANCH  26  29
ENDBRANCH  22  23
ENDBRANCH   4  22
TORSDOF 7
ENDMDL
MODEL 6
REMARK VINA RESULT:      -8.0      1.333      2.496
REMARK  Name = 
REMARK  10 active torsions:
REMARK  status: ('A' for Active; 'I' for Inactive)
REMARK    1  A    between atoms: C_1  and  C_2
REMARK    2  A    between atoms: C_4  and  N_5
REMARK    3  A    between atoms: C_7  and  C_8
REMARK    4  A    between atoms: C_9  and  C_10
REMARK    5  A    between atoms: C_10  and  N_11
REMARK    6  A    between atoms: C_12  and  C_14
REMARK    7  A    between atoms: N_17  and  C_18
REMARK    8  A    between atoms: C_18  and  C_19
REMARK    9  A    between atoms: C_22  and  C_23
REMARK   10  A    between atoms: N_29  and  C_30
REMARK                            x       y       z     vdW  Elec       q    Type
REMARK                         _______ _______ _______ _____ _____    ______ ____
ROOT
ATOM      1  C   UNL     1       3.924   5.167  19.283  0.00  0.00    +0.000 A 
ATOM      2  C   UNL     1       4.709   4.013  19.505  0.00  0.00    +0.000 A 
ATOM      3  N   UNL     1       5.864   4.033  18.830  0.00  0.00    +0.000 NA
ATOM      4  N   UNL     1       5.832   5.214  18.183  0.00  0.00    +0.000 N 
ATOM      5  C   UNL     1       4.693   5.929  18.425  0.00  0.00    +0.000 A 
ENDROOT
BRANCH   1   7
ATOM      6  N   UNL     1       2.487   6.835  20.159  0.00  0.00    +0.000 N 
ATOM      7  C   UNL     1       2.630   5.494  19.858  0.00  0.00    +0.000 C 
ATOM      8  O   UNL     1       1.756   4.658  20.025  0.00  0.00    +0.000 OA
ATOM      9  H   UNL     1       3.153   7.467  19.759  0.00  0.00    +0.000 HD
BRANCH   6  10
ATOM     10  C   UNL     1       1.251   7.387  20.668  0.00  0.00    +0.000 C 
BRANCH  10  18
ATOM     11  C   UNL     1       0.486   9.393  22.814  0.00  0.00    +0.000 C 
ATOM     12  C   UNL     1       0.750   9.789  21.387  0.00  0.00    +0.000 A 
ATOM     13  C   UNL     1       0.636  11.145  21.057  0.00  0.00    +0.000 A 
ATOM     14  C   UNL     1       0.861  11.560  19.759  0.00  0.00    +0.000 A 
ATOM     15  N   UNL     1       1.221  10.712  18.790  0.00  0.00    +0.000 NA
ATOM     16  C   UNL     1       1.354   9.391  19.097  0.00  0.00    +0.000 A 
ATOM     17  C   UNL     1       1.794   8.532  17.947  0.00  0.00    +0.000 C 
ATOM     18  C   UNL     1       1.115   8.867  20.382  0.00  0.00    +0.000 A 
BRANCH  14  19
ATOM     19  N   UNL     1       0.792  12.912  19.431  0.00  0.00    +0.000 N 
ATOM     20  H   UNL     1       1.464  13.469  19.946  0.00  0.00    +0.000 HD
ATOM     21  H   UNL     1      -0.166  13.216  19.584  0.00  0.00    +0.000 HD
ENDBRANCH  14  19
ENDBRANCH  10  18
ENDBRANCH   6  10
ENDBRANCH   1   7
BRANCH   4  22
ATOM     22  C   UNL     1       6.991   5.673  17.429  0.00  0.00    +0.000 C 
BRANCH  22  23
ATOM     23  C   UNL     1       7.445   7.053  17.838  0.00  0.00    +0.000 A 
ATOM     24  C   UNL     1       8.366   7.204  18.882  0.00  0.00    +0.000 A 
ATOM     25  C   UNL     1       8.920   8.454  19.151  0.00  0.00    +0.000 A 
ATOM     26  C   UNL     1       8.561   9.577  18.388  0.00  0.00    +0.000 A 
ATOM     27  C   UNL     1       7.599   9.450  17.383  0.00  0.00    +0.000 A 
ATOM     28  C   UNL     1       7.043   8.192  17.117  0.00  0.00    +0.000 A 
BRANCH  26  29
ATOM     29  C   UNL     1       9.352  10.821  18.612  0.00  0.00    +0.000 C 
ATOM     30  O   UNL     1      10.434  10.668  19.171  0.00  0.00    +0.000 OA
ATOM     31  N   UNL     1       8.782  12.006  18.188  0.00  0.00    +0.000 N 
ATOM     32  C   UNL     1       9.428  13.226  18.307  0.00  0.00    +0.000 A 
ATOM     33  C   UNL     1       8.891  14.482  17.928  0.00  0.00    +0.000 A 
ATOM     34  C   UNL     1       9.874  15.406  18.212  0.00  0.00    +0.000 A 
ATOM     35  N   UNL     1      10.914  14.683  18.713  0.00  0.00    +0.000 N 
ATOM     36  C   UNL     1      12.217  15.154  19.116  0.00  0.00    +0.000 C 
ATOM     37  N   UNL     1      10.659  13.378  18.785  0.00  0.00    +0.000 NA
ATOM     38  H   UNL     1       7.847  12.022  17.814  0.00  0.00    +0.000 HD
ENDBRANCH  26  29
ENDBRANCH  22  23
ENDBRANCH   4  22
TORSDOF 7
ENDMDL
MODEL 7
REMARK VINA RESULT:      -8.0      2.583      9.487
REMARK  Name = 
REMARK  10 active torsions:
REMARK  status: ('A' for Active; 'I' for Inactive)
REMARK    1  A    between atoms: C_1  and  C_2
REMARK    2  A    between atoms: C_4  and  N_5
REMARK    3  A    between atoms: C_7  and  C_8
REMARK    4  A    between atoms: C_9  and  C_10
REMARK    5  A    between atoms: C_10  and  N_11
REMARK    6  A    between atoms: C_12  and  C_14
REMARK    7  A    between atoms: N_17  and  C_18
REMARK    8  A    between atoms: C_18  and  C_19
REMARK    9  A    between atoms: C_22  and  C_23
REMARK   10  A    between atoms: N_29  and  C_30
REMARK                            x       y       z     vdW  Elec       q    Type
REMARK                         _______ _______ _______ _____ _____    ______ ____
ROOT
ATOM      1  C   UNL     1       3.781  14.583  19.612  0.00  0.00    +0.000 A 
ATOM      2  C   UNL     1       3.050  14.612  18.402  0.00  0.00    +0.000 A 
ATOM      3  N   UNL     1       1.918  13.902  18.462  0.00  0.00    +0.000 NA
ATOM      4  N   UNL     1       1.909  13.426  19.723  0.00  0.00    +0.000 N 
ATOM      5  C   UNL     1       3.001  13.809  20.450  0.00  0.00    +0.000 A 
ENDROOT
BRANCH   1   7
ATOM      6  N   UNL     1       6.038  14.377  20.304  0.00  0.00    +0.000 N 
ATOM      7  C   UNL     1       5.037  15.247  19.915  0.00  0.00    +0.000 C 
ATOM      8  O   UNL     1       5.184  16.454  19.805  0.00  0.00    +0.000 OA
ATOM      9  H   UNL     1       5.892  13.403  20.123  0.00  0.00    +0.000 HD
BRANCH   6  10
ATOM     10  C   UNL     1       7.387  14.821  20.578  0.00  0.00    +0.000 C 
BRANCH  10  18
ATOM     11  C   UNL     1       8.774  12.356  21.679  0.00  0.00    +0.000 C 
ATOM     12  C   UNL     1       9.067  12.912  20.313  0.00  0.00    +0.000 A 
ATOM     13  C   UNL     1      10.021  12.248  19.531  0.00  0.00    +0.000 A 
ATOM     14  C   UNL     1      10.332  12.723  18.272  0.00  0.00    +0.000 A 
ATOM     15  N   UNL     1       9.728  13.793  17.742  0.00  0.00    +0.000 NA
ATOM     16  C   UNL     1       8.785  14.440  18.482  0.00  0.00    +0.000 A 
ATOM     17  C   UNL     1       8.145  15.605  17.782  0.00  0.00    +0.000 C 
ATOM     18  C   UNL     1       8.422  14.053  19.786  0.00  0.00    +0.000 A 
BRANCH  14  19
ATOM     19  N   UNL     1      11.248  12.045  17.471  0.00  0.00    +0.000 N 
ATOM     20  H   UNL     1      11.192  12.325  16.498  0.00  0.00    +0.000 HD
ATOM     21  H   UNL     1      11.089  11.049  17.600  0.00  0.00    +0.000 HD
ENDBRANCH  14  19
ENDBRANCH  10  18
ENDBRANCH   6  10
ENDBRANCH   1   7
BRANCH   4  22
ATOM     22  C   UNL     1       0.753  12.698  20.228  0.00  0.00    +0.000 C 
BRANCH  22  23
ATOM     23  C   UNL     1       0.902  11.203  20.100  0.00  0.00    +0.000 A 
ATOM     24  C   UNL     1       1.217  10.635  18.859  0.00  0.00    +0.000 A 
ATOM     25  C   UNL     1       1.527   9.280  18.767  0.00  0.00    +0.000 A 
ATOM     26  C   UNL     1       1.522   8.464  19.909  0.00  0.00    +0.000 A 
ATOM     27  C   UNL     1       1.153   9.005  21.143  0.00  0.00    +0.000 A 
ATOM     28  C   UNL     1       0.840  10.368  21.232  0.00  0.00    +0.000 A 
BRANCH  26  29
ATOM     29  C   UNL     1       2.062   7.083  19.749  0.00  0.00    +0.000 C 
ATOM     30  O   UNL     1       1.777   6.295  20.647  0.00  0.00    +0.000 OA
ATOM     31  N   UNL     1       2.835   6.842  18.629  0.00  0.00    +0.000 N 
ATOM     32  C   UNL     1       3.366   5.594  18.348  0.00  0.00    +0.000 A 
ATOM     33  C   UNL     1       4.195   5.283  17.241  0.00  0.00    +0.000 A 
ATOM     34  C   UNL     1       4.476   3.938  17.355  0.00  0.00    +0.000 A 
ATOM     35  N   UNL     1       3.815   3.525  18.472  0.00  0.00    +0.000 N 
ATOM     36  C   UNL     1       3.724   2.191  19.014  0.00  0.00    +0.000 C 
ATOM     37  N   UNL     1       3.154   4.506  19.083  0.00  0.00    +0.000 NA
ATOM     38  H   UNL     1       3.072   7.590  17.998  0.00  0.00    +0.000 HD
ENDBRANCH  26  29
ENDBRANCH  22  23
ENDBRANCH   4  22
TORSDOF 7
ENDMDL
MODEL 8
REMARK VINA RESULT:      -8.0      4.683      9.948
REMARK  Name = 
REMARK  10 active torsions:
REMARK  status: ('A' for Active; 'I' for Inactive)
REMARK    1  A    between atoms: C_1  and  C_2
REMARK    2  A    between atoms: C_4  and  N_5
REMARK    3  A    between atoms: C_7  and  C_8
REMARK    4  A    between atoms: C_9  and  C_10
REMARK    5  A    between atoms: C_10  and  N_11
REMARK    6  A    between atoms: C_12  and  C_14
REMARK    7  A    between atoms: N_17  and  C_18
REMARK    8  A    between atoms: C_18  and  C_19
REMARK    9  A    between atoms: C_22  and  C_23
REMARK   10  A    between atoms: N_29  and  C_30
REMARK                            x       y       z     vdW  Elec       q    Type
REMARK                         _______ _______ _______ _____ _____    ______ ____
ROOT
ATOM      1  C   UNL     1       2.169   7.316  19.655  0.00  0.00    +0.000 A 
ATOM      2  C   UNL     1       1.445   7.682  20.814  0.00  0.00    +0.000 A 
ATOM      3  N   UNL     1       0.906   8.903  20.726  0.00  0.00    +0.000 NA
ATOM      4  N   UNL     1       1.268   9.322  19.497  0.00  0.00    +0.000 N 
ATOM      5  C   UNL     1       2.022   8.406  18.818  0.00  0.00    +0.000 A 
ENDROOT
BRANCH   1   7
ATOM      6  N   UNL     1       4.223   6.233  19.184  0.00  0.00    +0.000 N 
ATOM      7  C   UNL     1       2.866   6.070  19.391  0.00  0.00    +0.000 C 
ATOM      8  O   UNL     1       2.299   4.989  19.384  0.00  0.00    +0.000 OA
ATOM      9  H   UNL     1       4.624   7.111  19.454  0.00  0.00    +0.000 HD
BRANCH   6  10
ATOM     10  C   UNL     1       5.116   5.115  18.980  0.00  0.00    +0.000 C 
BRANCH  10  18
ATOM     11  C   UNL     1       3.804   3.544  16.738  0.00  0.00    +0.000 C 
ATOM     12  C   UNL     1       5.070   4.333  16.546  0.00  0.00    +0.000 A 
ATOM     13  C   UNL     1       5.650   4.333  15.271  0.00  0.00    +0.000 A 
ATOM     14  C   UNL     1       6.818   5.035  15.044  0.00  0.00    +0.000 A 
ATOM     15  N   UNL     1       7.415   5.756  16.000  0.00  0.00    +0.000 NA
ATOM     16  C   UNL     1       6.855   5.782  17.241  0.00  0.00    +0.000 A 
ATOM     17  C   UNL     1       7.584   6.648  18.228  0.00  0.00    +0.000 C 
ATOM     18  C   UNL     1       5.685   5.075  17.579  0.00  0.00    +0.000 A 
BRANCH  14  19
ATOM     19  N   UNL     1       7.378   5.075  13.770  0.00  0.00    +0.000 N 
ATOM     20  H   UNL     1       7.716   4.169  13.468  0.00  0.00    +0.000 HD
ATOM     21  H   UNL     1       8.108   5.783  13.778  0.00  0.00    +0.000 HD
ENDBRANCH  14  19
ENDBRANCH  10  18
ENDBRANCH   6  10
ENDBRANCH   1   7
BRANCH   4  22
ATOM     22  C   UNL     1       0.756  10.577  18.966  0.00  0.00    +0.000 C 
BRANCH  22  23
ATOM     23  C   UNL     1      -0.141  11.300  19.940  0.00  0.00    +0.000 A 
ATOM     24  C   UNL     1       0.412  11.933  21.061  0.00  0.00    +0.000 A 
ATOM     25  C   UNL     1      -0.381  12.746  21.868  0.00  0.00    +0.000 A 
ATOM     26  C   UNL     1      -1.741  12.938  21.576  0.00  0.00    +0.000 A 
ATOM     27  C   UNL     1      -2.317  12.266  20.495  0.00  0.00    +0.000 A 
ATOM     28  C   UNL     1      -1.517  11.448  19.687  0.00  0.00    +0.000 A 
BRANCH  26  29
ATOM     29  C   UNL     1      -2.457  13.979  22.369  0.00  0.00    +0.000 C 
ATOM     30  O   UNL     1      -2.987  13.587  23.404  0.00  0.00    +0.000 OA
ATOM     31  N   UNL     1      -2.465  15.260  21.850  0.00  0.00    +0.000 N 
ATOM     32  C   UNL     1      -3.066  16.323  22.505  0.00  0.00    +0.000 A 
ATOM     33  C   UNL     1      -3.143  17.652  22.017  0.00  0.00    +0.000 A 
ATOM     34  C   UNL     1      -3.810  18.365  22.991  0.00  0.00    +0.000 A 
ATOM     35  N   UNL     1      -4.073  17.466  23.980  0.00  0.00    +0.000 N 
ATOM     36  C   UNL     1      -4.702  17.701  25.257  0.00  0.00    +0.000 C 
ATOM     37  N   UNL     1      -3.642  16.237  23.700  0.00  0.00    +0.000 NA
ATOM     38  H   UNL     1      -2.065  15.451  20.946  0.00  0.00    +0.000 HD
ENDBRANCH  26  29
ENDBRANCH  22  23
ENDBRANCH   4  22
TORSDOF 7
ENDMDL
MODEL 9
REMARK VINA RESULT:      -8.0      3.100      6.833
REMARK  Name = 
REMARK  10 active torsions:
REMARK  status: ('A' for Active; 'I' for Inactive)
REMARK    1  A    between atoms: C_1  and  C_2
REMARK    2  A    between atoms: C_4  and  N_5
REMARK    3  A    between atoms: C_7  and  C_8
REMARK    4  A    between atoms: C_9  and  C_10
REMARK    5  A    between atoms: C_10  and  N_11
REMARK    6  A    between atoms: C_12  and  C_14
REMARK    7  A    between atoms: N_17  and  C_18
REMARK    8  A    between atoms: C_18  and  C_19
REMARK    9  A    between atoms: C_22  and  C_23
REMARK   10  A    between atoms: N_29  and  C_30
REMARK                            x       y       z     vdW  Elec       q    Type
REMARK                         _______ _______ _______ _____ _____    ______ ____
ROOT
ATOM      1  C   UNL     1       1.891   7.458  20.070  0.00  0.00    +0.000 A 
ATOM      2  C   UNL     1       1.233   8.038  21.179  0.00  0.00    +0.000 A 
ATOM      3  N   UNL     1       0.701   9.233  20.900  0.00  0.00    +0.000 NA
ATOM      4  N   UNL     1       1.002   9.419  19.600  0.00  0.00    +0.000 N 
ATOM      5  C   UNL     1       1.710   8.383  19.059  0.00  0.00    +0.000 A 
ENDROOT
BRANCH   1   7
ATOM      6  N   UNL     1       3.822   6.241  19.435  0.00  0.00    +0.000 N 
ATOM      7  C   UNL     1       2.563   6.172  19.999  0.00  0.00    +0.000 C 
ATOM      8  O   UNL     1       2.060   5.145  20.426  0.00  0.00    +0.000 OA
ATOM      9  H   UNL     1       4.236   7.149  19.349  0.00  0.00    +0.000 HD
BRANCH   6  10
ATOM     10  C   UNL     1       4.692   5.089  19.339  0.00  0.00    +0.000 C 
BRANCH  10  18
ATOM     11  C   UNL     1       7.448   6.108  18.575  0.00  0.00    +0.000 C 
ATOM     12  C   UNL     1       6.545   5.397  17.604  0.00  0.00    +0.000 A 
ATOM     13  C   UNL     1       7.017   5.204  16.300  0.00  0.00    +0.000 A 
ATOM     14  C   UNL     1       6.225   4.562  15.368  0.00  0.00    +0.000 A 
ATOM     15  N   UNL     1       5.014   4.080  15.670  0.00  0.00    +0.000 NA
ATOM     16  C   UNL     1       4.547   4.244  16.939  0.00  0.00    +0.000 A 
ATOM     17  C   UNL     1       3.195   3.635  17.182  0.00  0.00    +0.000 C 
ATOM     18  C   UNL     1       5.265   4.910  17.950  0.00  0.00    +0.000 A 
BRANCH  14  19
ATOM     19  N   UNL     1       6.702   4.328  14.080  0.00  0.00    +0.000 N 
ATOM     20  H   UNL     1       7.708   4.210  14.057  0.00  0.00    +0.000 HD
ATOM     21  H   UNL     1       6.385   5.094  13.492  0.00  0.00    +0.000 HD
ENDBRANCH  14  19
ENDBRANCH  10  18
ENDBRANCH   6  10
ENDBRANCH   1   7
BRANCH   4  22
ATOM     22  C   UNL     1       0.473  10.568  18.878  0.00  0.00    +0.000 C 
BRANCH  22  23
ATOM     23  C   UNL     1       1.320  11.805  19.049  0.00  0.00    +0.000 A 
ATOM     24  C   UNL     1       1.430  12.407  20.308  0.00  0.00    +0.000 A 
ATOM     25  C   UNL     1       2.342  13.441  20.513  0.00  0.00    +0.000 A 
ATOM     26  C   UNL     1       3.156  13.897  19.464  0.00  0.00    +0.000 A 
ATOM     27  C   UNL     1       3.014  13.344  18.189  0.00  0.00    +0.000 A 
ATOM     28  C   UNL     1       2.095  12.306  17.986  0.00  0.00    +0.000 A 
BRANCH  26  29
ATOM     29  C   UNL     1       4.238  14.859  19.823  0.00  0.00    +0.000 C 
ATOM     30  O   UNL     1       4.088  15.452  20.887  0.00  0.00    +0.000 OA
ATOM     31  N   UNL     1       5.275  14.994  18.921  0.00  0.00    +0.000 N 
ATOM     32  C   UNL     1       6.357  15.829  19.153  0.00  0.00    +0.000 A 
ATOM     33  C   UNL     1       7.436  16.044  18.258  0.00  0.00    +0.000 A 
ATOM     34  C   UNL     1       8.275  16.930  18.898  0.00  0.00    +0.000 A 
ATOM     35  N   UNL     1       7.688  17.179  20.102  0.00  0.00    +0.000 N 
ATOM     36  C   UNL     1       8.180  17.995  21.184  0.00  0.00    +0.000 C 
ATOM     37  N   UNL     1       6.534  16.535  20.265  0.00  0.00    +0.000 NA
ATOM     38  H   UNL     1       5.253  14.515  18.036  0.00  0.00    +0.000 HD
ENDBRANCH  26  29
ENDBRANCH  22  23
ENDBRANCH   4  22
TORSDOF 7
ENDMDL
