MODEL 1
REMARK VINA RESULT:      -6.1      0.000      0.000
REMARK  Name = 
REMARK  6 active torsions:
REMARK  status: ('A' for Active; 'I' for Inactive)
REMARK    1  A    between atoms: C_1  and  C_2
REMARK    2  A    between atoms: C_2  and  N_3
REMARK    3  A    between atoms: C_7  and  C_8
REMARK    4  A    between atoms: C_10  and  C_11
REMARK    5  A    between atoms: N_12  and  C_13
REMARK    6  A    between atoms: C_14  and  C_15
REMARK                            x       y       z     vdW  Elec       q    Type
REMARK                         _______ _______ _______ _____ _____    ______ ____
ROOT
ATOM      1  N   UNL     1       1.266   9.896  19.569  0.00  0.00    +0.000 N 
ATOM      2  C   UNL     1       1.787   9.127  18.540  0.00  0.00    +0.000 C 
ATOM      3  O   UNL     1       2.080   9.527  17.420  0.00  0.00    +0.000 OA
ATOM      4  C   UNL     1       1.949   7.715  18.979  0.00  0.00    +0.000 C 
ATOM      5  C   UNL     1       2.467   6.768  18.184  0.00  0.00    +0.000 C 
ATOM      6  S   UNL     1       1.386   7.530  20.591  0.00  0.00    +0.000 S 
ATOM      7  C   UNL     1       0.976   9.232  20.744  0.00  0.00    +0.000 C 
ATOM      8  S   UNL     1       0.340   9.860  22.155  0.00  0.00    +0.000 S 
ENDROOT
BRANCH   5   9
ATOM      9  C   UNL     1       2.639   5.391  18.512  0.00  0.00    +0.000 A 
ATOM     10  C   UNL     1       1.668   4.374  18.417  0.00  0.00    +0.000 A 
ATOM     11  C   UNL     1       2.239   3.204  18.881  0.00  0.00    +0.000 A 
ATOM     12  C   UNL     1       1.621   1.855  19.004  0.00  0.00    +0.000 C 
ATOM     13  N   UNL     1       3.540   3.493  19.243  0.00  0.00    +0.000 N 
ATOM     14  C   UNL     1       4.496   2.550  19.789  0.00  0.00    +0.000 C 
ATOM     15  C   UNL     1       3.799   4.834  19.019  0.00  0.00    +0.000 A 
ATOM     16  C   UNL     1       5.108   5.489  19.301  0.00  0.00    +0.000 C 
ENDBRANCH   5   9
BRANCH   1  18
ATOM     17  C   UNL     1      -0.318  11.677  18.842  0.00  0.00    +0.000 C 
ATOM     18  C   UNL     1       1.073  11.333  19.360  0.00  0.00    +0.000 C 
ENDBRANCH   1  18
TORSDOF 2
ENDMDL
MODEL 2
REMARK VINA RESULT:      -5.9      1.186      1.291
REMARK  Name = 
REMARK  6 active torsions:
REMARK  status: ('A' for Active; 'I' for Inactive)
REMARK    1  A    between atoms: C_1  and  C_2
REMARK    2  A    between atoms: C_2  and  N_3
REMARK    3  A    between atoms: C_7  and  C_8
REMARK    4  A    between atoms: C_10  and  C_11
REMARK    5  A    between atoms: N_12  and  C_13
REMARK    6  A    between atoms: C_14  and  C_15
REMARK                            x       y       z     vdW  Elec       q    Type
REMARK                         _______ _______ _______ _____ _____    ______ ____
ROOT
ATOM      1  N   UNL     1       1.013  10.340  19.416  0.00  0.00    +0.000 N 
ATOM      2  C   UNL     1       1.642   9.419  18.593  0.00  0.00    +0.000 C 
ATOM      3  O   UNL     1       2.012   9.616  17.442  0.00  0.00    +0.000 OA
ATOM      4  C   UNL     1       1.815   8.123  19.303  0.00  0.00    +0.000 C 
ATOM      5  C   UNL     1       2.428   7.071  18.743  0.00  0.00    +0.000 C 
ATOM      6  S   UNL     1       1.128   8.215  20.874  0.00  0.00    +0.000 S 
ATOM      7  C   UNL     1       0.650   9.894  20.671  0.00  0.00    +0.000 C 
ATOM      8  S   UNL     1      -0.120  10.743  21.885  0.00  0.00    +0.000 S 
ENDROOT
BRANCH   5   9
ATOM      9  C   UNL     1       2.618   5.789  19.338  0.00  0.00    +0.000 A 
ATOM     10  C   UNL     1       1.828   5.201  20.346  0.00  0.00    +0.000 A 
ATOM     11  C   UNL     1       2.393   3.980  20.664  0.00  0.00    +0.000 A 
ATOM     12  C   UNL     1       1.947   2.988  21.680  0.00  0.00    +0.000 C 
ATOM     13  N   UNL     1       3.503   3.815  19.859  0.00  0.00    +0.000 N 
ATOM     14  C   UNL     1       4.395   2.673  19.871  0.00  0.00    +0.000 C 
ATOM     15  C   UNL     1       3.651   4.920  19.038  0.00  0.00    +0.000 A 
ATOM     16  C   UNL     1       4.749   5.076  18.042  0.00  0.00    +0.000 C 
ENDBRANCH   5   9
BRANCH   1  18
ATOM     17  C   UNL     1       1.930  12.653  19.264  0.00  0.00    +0.000 C 
ATOM     18  C   UNL     1       0.790  11.702  18.923  0.00  0.00    +0.000 C 
ENDBRANCH   1  18
TORSDOF 2
ENDMDL
MODEL 3
REMARK VINA RESULT:      -5.8      2.124      6.527
REMARK  Name = 
REMARK  6 active torsions:
REMARK  status: ('A' for Active; 'I' for Inactive)
REMARK    1  A    between atoms: C_1  and  C_2
REMARK    2  A    between atoms: C_2  and  N_3
REMARK    3  A    between atoms: C_7  and  C_8
REMARK    4  A    between atoms: C_10  and  C_11
REMARK    5  A    between atoms: N_12  and  C_13
REMARK    6  A    between atoms: C_14  and  C_15
REMARK                            x       y       z     vdW  Elec       q    Type
REMARK                         _______ _______ _______ _____ _____    ______ ____
ROOT
ATOM      1  N   UNL     1       3.351   4.159  19.351  0.00  0.00    +0.000 N 
ATOM      2  C   UNL     1       3.410   5.467  18.892  0.00  0.00    +0.000 C 
ATOM      3  O   UNL     1       4.125   5.881  17.988  0.00  0.00    +0.000 OA
ATOM      4  C   UNL     1       2.470   6.327  19.658  0.00  0.00    +0.000 C 
ATOM      5  C   UNL     1       2.306   7.630  19.391  0.00  0.00    +0.000 C 
ATOM      6  S   UNL     1       1.682   5.404  20.874  0.00  0.00    +0.000 S 
ATOM      7  C   UNL     1       2.497   3.918  20.407  0.00  0.00    +0.000 C 
ATOM      8  S   UNL     1       2.203   2.472  21.188  0.00  0.00    +0.000 S 
ENDROOT
BRANCH   5   9
ATOM      9  C   UNL     1       1.448   8.533  20.085  0.00  0.00    +0.000 A 
ATOM     10  C   UNL     1       1.198   8.563  21.473  0.00  0.00    +0.000 A 
ATOM     11  C   UNL     1       0.269   9.559  21.711  0.00  0.00    +0.000 A 
ATOM     12  C   UNL     1      -0.336   9.972  23.006  0.00  0.00    +0.000 C 
ATOM     13  N   UNL     1      -0.037  10.140  20.495  0.00  0.00    +0.000 N 
ATOM     14  C   UNL     1      -0.977  11.223  20.288  0.00  0.00    +0.000 C 
ATOM     15  C   UNL     1       0.683   9.519  19.489  0.00  0.00    +0.000 A 
ATOM     16  C   UNL     1       0.594   9.894  18.049  0.00  0.00    +0.000 C 
ENDBRANCH   5   9
BRANCH   1  18
ATOM     17  C   UNL     1       3.381   2.298  17.694  0.00  0.00    +0.000 C 
ATOM     18  C   UNL     1       4.168   3.135  18.695  0.00  0.00    +0.000 C 
ENDBRANCH   1  18
TORSDOF 2
ENDMDL
MODEL 4
REMARK VINA RESULT:      -5.7      1.454      1.505
REMARK  Name = 
REMARK  6 active torsions:
REMARK  status: ('A' for Active; 'I' for Inactive)
REMARK    1  A    between atoms: C_1  and  C_2
REMARK    2  A    between atoms: C_2  and  N_3
REMARK    3  A    between atoms: C_7  and  C_8
REMARK    4  A    between atoms: C_10  and  C_11
REMARK    5  A    between atoms: N_12  and  C_13
REMARK    6  A    between atoms: C_14  and  C_15
REMARK                            x       y       z     vdW  Elec       q    Type
REMARK                         _______ _______ _______ _____ _____    ______ ____
ROOT
ATOM      1  N   UNL     1       0.501  10.647  20.239  0.00  0.00    +0.000 N 
ATOM      2  C   UNL     1       1.210   9.908  19.304  0.00  0.00    +0.000 C 
ATOM      3  O   UNL     1       1.564  10.296  18.198  0.00  0.00    +0.000 OA
ATOM      4  C   UNL     1       1.493   8.545  19.828  0.00  0.00    +0.000 C 
ATOM      5  C   UNL     1       2.197   7.639  19.136  0.00  0.00    +0.000 C 
ATOM      6  S   UNL     1       0.797   8.356  21.387  0.00  0.00    +0.000 S 
ATOM      7  C   UNL     1       0.175   9.999  21.414  0.00  0.00    +0.000 C 
ATOM      8  S   UNL     1      -0.669  10.599  22.723  0.00  0.00    +0.000 S 
ENDROOT
BRANCH   5   9
ATOM      9  C   UNL     1       2.496   6.307  19.548  0.00  0.00    +0.000 A 
ATOM     10  C   UNL     1       1.803   5.545  20.511  0.00  0.00    +0.000 A 
ATOM     11  C   UNL     1       2.456   4.334  20.637  0.00  0.00    +0.000 A 
ATOM     12  C   UNL     1       2.130   3.194  21.537  0.00  0.00    +0.000 C 
ATOM     13  N   UNL     1       3.523   4.345  19.760  0.00  0.00    +0.000 N 
ATOM     14  C   UNL     1       4.479   3.270  19.577  0.00  0.00    +0.000 C 
ATOM     15  C   UNL     1       3.557   5.552  19.084  0.00  0.00    +0.000 A 
ATOM     16  C   UNL     1       4.582   5.904  18.060  0.00  0.00    +0.000 C 
ENDBRANCH   5   9
BRANCH   1  18
ATOM     17  C   UNL     1      -1.200  12.189  19.269  0.00  0.00    +0.000 C 
ATOM     18  C   UNL     1       0.161  12.040  19.939  0.00  0.00    +0.000 C 
ENDBRANCH   1  18
TORSDOF 2
ENDMDL
MODEL 5
REMARK VINA RESULT:      -5.6      1.382      2.359
REMARK  Name = 
REMARK  6 active torsions:
REMARK  status: ('A' for Active; 'I' for Inactive)
REMARK    1  A    between atoms: C_1  and  C_2
REMARK    2  A    between atoms: C_2  and  N_3
REMARK    3  A    between atoms: C_7  and  C_8
REMARK    4  A    between atoms: C_10  and  C_11
REMARK    5  A    between atoms: N_12  and  C_13
REMARK    6  A    between atoms: C_14  and  C_15
REMARK                            x       y       z     vdW  Elec       q    Type
REMARK                         _______ _______ _______ _____ _____    ______ ____
ROOT
ATOM      1  N   UNL     1       0.490   9.828  19.952  0.00  0.00    +0.000 N 
ATOM      2  C   UNL     1       1.055   9.476  18.735  0.00  0.00    +0.000 C 
ATOM      3  O   UNL     1       0.895  10.062  17.671  0.00  0.00    +0.000 OA
ATOM      4  C   UNL     1       1.903   8.264  18.889  0.00  0.00    +0.000 C 
ATOM      5  C   UNL     1       2.594   7.734  17.871  0.00  0.00    +0.000 C 
ATOM      6  S   UNL     1       1.840   7.702  20.511  0.00  0.00    +0.000 S 
ATOM      7  C   UNL     1       0.778   9.006  21.023  0.00  0.00    +0.000 C 
ATOM      8  S   UNL     1       0.256   9.147  22.602  0.00  0.00    +0.000 S 
ENDROOT
BRANCH   5   9
ATOM      9  C   UNL     1       3.410   6.566  17.921  0.00  0.00    +0.000 A 
ATOM     10  C   UNL     1       4.818   6.522  17.985  0.00  0.00    +0.000 A 
ATOM     11  C   UNL     1       5.198   5.194  17.966  0.00  0.00    +0.000 A 
ATOM     12  C   UNL     1       6.572   4.622  17.994  0.00  0.00    +0.000 C 
ATOM     13  N   UNL     1       4.046   4.434  17.905  0.00  0.00    +0.000 N 
ATOM     14  C   UNL     1       3.988   2.986  17.859  0.00  0.00    +0.000 C 
ATOM     15  C   UNL     1       2.940   5.266  17.879  0.00  0.00    +0.000 A 
ATOM     16  C   UNL     1       1.533   4.780  17.811  0.00  0.00    +0.000 C 
ENDBRANCH   5   9
BRANCH   1  18
ATOM     17  C   UNL     1       0.446  12.285  20.366  0.00  0.00    +0.000 C 
ATOM     18  C   UNL     1      -0.347  11.028  20.030  0.00  0.00    +0.000 C 
ENDBRANCH   1  18
TORSDOF 2
ENDMDL
MODEL 6
REMARK VINA RESULT:      -5.5      1.369      1.514
REMARK  Name = 
REMARK  6 active torsions:
REMARK  status: ('A' for Active; 'I' for Inactive)
REMARK    1  A    between atoms: C_1  and  C_2
REMARK    2  A    between atoms: C_2  and  N_3
REMARK    3  A    between atoms: C_7  and  C_8
REMARK    4  A    between atoms: C_10  and  C_11
REMARK    5  A    between atoms: N_12  and  C_13
REMARK    6  A    between atoms: C_14  and  C_15
REMARK                            x       y       z     vdW  Elec       q    Type
REMARK                         _______ _______ _______ _____ _____    ______ ____
ROOT
ATOM      1  N   UNL     1       0.783  10.213  20.250  0.00  0.00    +0.000 N 
ATOM      2  C   UNL     1       1.273   9.839  19.008  0.00  0.00    +0.000 C 
ATOM      3  O   UNL     1       1.303  10.541  18.004  0.00  0.00    +0.000 OA
ATOM      4  C   UNL     1       1.771   8.438  19.049  0.00  0.00    +0.000 C 
ATOM      5  C   UNL     1       2.330   7.841  17.987  0.00  0.00    +0.000 C 
ATOM      6  S   UNL     1       1.515   7.766  20.608  0.00  0.00    +0.000 S 
ATOM      7  C   UNL     1       0.815   9.250  21.238  0.00  0.00    +0.000 C 
ATOM      8  S   UNL     1       0.300   9.377  22.821  0.00  0.00    +0.000 S 
ENDROOT
BRANCH   5   9
ATOM      9  C   UNL     1       2.813   6.501  17.929  0.00  0.00    +0.000 A 
ATOM     10  C   UNL     1       2.084   5.328  18.212  0.00  0.00    +0.000 A 
ATOM     11  C   UNL     1       2.947   4.256  18.080  0.00  0.00    +0.000 A 
ATOM     12  C   UNL     1       2.667   2.810  18.293  0.00  0.00    +0.000 C 
ATOM     13  N   UNL     1       4.179   4.758  17.711  0.00  0.00    +0.000 N 
ATOM     14  C   UNL     1       5.376   3.975  17.474  0.00  0.00    +0.000 C 
ATOM     15  C   UNL     1       4.109   6.137  17.612  0.00  0.00    +0.000 A 
ATOM     16  C   UNL     1       5.261   7.005  17.235  0.00  0.00    +0.000 C 
ENDBRANCH   5   9
BRANCH   1  18
ATOM     17  C   UNL     1      -1.205  11.714  20.157  0.00  0.00    +0.000 C 
ATOM     18  C   UNL     1       0.286  11.578  20.439  0.00  0.00    +0.000 C 
ENDBRANCH   1  18
TORSDOF 2
ENDMDL
MODEL 7
REMARK VINA RESULT:      -5.5      2.548      6.417
REMARK  Name = 
REMARK  6 active torsions:
REMARK  status: ('A' for Active; 'I' for Inactive)
REMARK    1  A    between atoms: C_1  and  C_2
REMARK    2  A    between atoms: C_2  and  N_3
REMARK    3  A    between atoms: C_7  and  C_8
REMARK    4  A    between atoms: C_10  and  C_11
REMARK    5  A    between atoms: N_12  and  C_13
REMARK    6  A    between atoms: C_14  and  C_15
REMARK                            x       y       z     vdW  Elec       q    Type
REMARK                         _______ _______ _______ _____ _____    ______ ____
ROOT
ATOM      1  N   UNL     1       4.313   4.882  17.297  0.00  0.00    +0.000 N 
ATOM      2  C   UNL     1       4.423   6.258  17.429  0.00  0.00    +0.000 C 
ATOM      3  O   UNL     1       5.423   6.926  17.198  0.00  0.00    +0.000 OA
ATOM      4  C   UNL     1       3.137   6.837  17.903  0.00  0.00    +0.000 C 
ATOM      5  C   UNL     1       2.962   8.154  18.080  0.00  0.00    +0.000 C 
ATOM      6  S   UNL     1       1.988   5.588  18.165  0.00  0.00    +0.000 S 
ATOM      7  C   UNL     1       3.098   4.328  17.646  0.00  0.00    +0.000 C 
ATOM      8  S   UNL     1       2.648   2.720  17.608  0.00  0.00    +0.000 S 
ENDROOT
BRANCH   5   9
ATOM      9  C   UNL     1       1.777   8.793  18.550  0.00  0.00    +0.000 A 
ATOM     10  C   UNL     1       0.891   9.589  17.796  0.00  0.00    +0.000 A 
ATOM     11  C   UNL     1      -0.092  10.048  18.651  0.00  0.00    +0.000 A 
ATOM     12  C   UNL     1      -1.245  10.939  18.346  0.00  0.00    +0.000 C 
ATOM     13  N   UNL     1       0.176   9.535  19.905  0.00  0.00    +0.000 N 
ATOM     14  C   UNL     1      -0.605   9.775  21.103  0.00  0.00    +0.000 C 
ATOM     15  C   UNL     1       1.322   8.760  19.855  0.00  0.00    +0.000 A 
ATOM     16  C   UNL     1       1.902   8.055  21.034  0.00  0.00    +0.000 C 
ENDBRANCH   5   9
BRANCH   1  18
ATOM     17  C   UNL     1       5.552   4.120  15.273  0.00  0.00    +0.000 C 
ATOM     18  C   UNL     1       5.458   4.119  16.794  0.00  0.00    +0.000 C 
ENDBRANCH   1  18
TORSDOF 2
ENDMDL
MODEL 8
REMARK VINA RESULT:      -5.4      0.594      1.766
REMARK  Name = 
REMARK  6 active torsions:
REMARK  status: ('A' for Active; 'I' for Inactive)
REMARK    1  A    between atoms: C_1  and  C_2
REMARK    2  A    between atoms: C_2  and  N_3
REMARK    3  A    between atoms: C_7  and  C_8
REMARK    4  A    between atoms: C_10  and  C_11
REMARK    5  A    between atoms: N_12  and  C_13
REMARK    6  A    between atoms: C_14  and  C_15
REMARK                            x       y       z     vdW  Elec       q    Type
REMARK                         _______ _______ _______ _____ _____    ______ ____
ROOT
ATOM      1  N   UNL     1       1.195   9.808  19.547  0.00  0.00    +0.000 N 
ATOM      2  C   UNL     1       1.815   9.076  18.546  0.00  0.00    +0.000 C 
ATOM      3  O   UNL     1       2.096   9.482  17.425  0.00  0.00    +0.000 OA
ATOM      4  C   UNL     1       2.104   7.695  19.018  0.00  0.00    +0.000 C 
ATOM      5  C   UNL     1       2.732   6.789  18.255  0.00  0.00    +0.000 C 
ATOM      6  S   UNL     1       1.520   7.485  20.619  0.00  0.00    +0.000 S 
ATOM      7  C   UNL     1       0.941   9.141  20.728  0.00  0.00    +0.000 C 
ATOM      8  S   UNL     1       0.211   9.729  22.109  0.00  0.00    +0.000 S 
ENDROOT
BRANCH   5   9
ATOM      9  C   UNL     1       3.029   5.442  18.615  0.00  0.00    +0.000 A 
ATOM     10  C   UNL     1       4.109   4.997  19.405  0.00  0.00    +0.000 A 
ATOM     11  C   UNL     1       4.047   3.617  19.462  0.00  0.00    +0.000 A 
ATOM     12  C   UNL     1       4.969   2.676  20.152  0.00  0.00    +0.000 C 
ATOM     13  N   UNL     1       2.943   3.222  18.731  0.00  0.00    +0.000 N 
ATOM     14  C   UNL     1       2.512   1.853  18.523  0.00  0.00    +0.000 C 
ATOM     15  C   UNL     1       2.308   4.334  18.208  0.00  0.00    +0.000 A 
ATOM     16  C   UNL     1       1.080   4.273  17.364  0.00  0.00    +0.000 C 
ENDBRANCH   5   9
BRANCH   1  18
ATOM     17  C   UNL     1      -0.533  11.411  18.737  0.00  0.00    +0.000 C 
ATOM     18  C   UNL     1       0.868  11.215  19.303  0.00  0.00    +0.000 C 
ENDBRANCH   1  18
TORSDOF 2
ENDMDL
MODEL 9
REMARK VINA RESULT:      -5.4      4.346      5.847
REMARK  Name = 
REMARK  6 active torsions:
REMARK  status: ('A' for Active; 'I' for Inactive)
REMARK    1  A    between atoms: C_1  and  C_2
REMARK    2  A    between atoms: C_2  and  N_3
REMARK    3  A    between atoms: C_7  and  C_8
REMARK    4  A    between atoms: C_10  and  C_11
REMARK    5  A    between atoms: N_12  and  C_13
REMARK    6  A    between atoms: C_14  and  C_15
REMARK                            x       y       z     vdW  Elec       q    Type
REMARK                         _______ _______ _______ _____ _____    ______ ____
ROOT
ATOM      1  N   UNL     1       3.077   4.965  19.671  0.00  0.00    +0.000 N 
ATOM      2  C   UNL     1       3.859   3.961  19.121  0.00  0.00    +0.000 C 
ATOM      3  O   UNL     1       4.088   2.868  19.625  0.00  0.00    +0.000 OA
ATOM      4  C   UNL     1       4.401   4.390  17.804  0.00  0.00    +0.000 C 
ATOM      5  C   UNL     1       5.162   3.592  17.043  0.00  0.00    +0.000 C 
ATOM      6  S   UNL     1       3.905   5.998  17.457  0.00  0.00    +0.000 S 
ATOM      7  C   UNL     1       2.980   6.135  18.945  0.00  0.00    +0.000 C 
ATOM      8  S   UNL     1       2.131   7.521  19.329  0.00  0.00    +0.000 S 
ENDROOT
BRANCH   5   9
ATOM      9  C   UNL     1       5.741   3.926  15.783  0.00  0.00    +0.000 A 
ATOM     10  C   UNL     1       5.421   3.363  14.531  0.00  0.00    +0.000 A 
ATOM     11  C   UNL     1       6.252   3.937  13.588  0.00  0.00    +0.000 A 
ATOM     12  C   UNL     1       6.323   3.666  12.126  0.00  0.00    +0.000 C 
ATOM     13  N   UNL     1       7.060   4.845  14.245  0.00  0.00    +0.000 N 
ATOM     14  C   UNL     1       8.085   5.665  13.631  0.00  0.00    +0.000 C 
ATOM     15  C   UNL     1       6.754   4.849  15.595  0.00  0.00    +0.000 A 
ATOM     16  C   UNL     1       7.435   5.712  16.601  0.00  0.00    +0.000 C 
ENDBRANCH   5   9
BRANCH   1  18
ATOM     17  C   UNL     1       1.130   3.905  20.810  0.00  0.00    +0.000 C 
ATOM     18  C   UNL     1       2.406   4.726  20.951  0.00  0.00    +0.000 C 
ENDBRANCH   1  18
TORSDOF 2
ENDMDL
