MODEL 1
REMARK VINA RESULT:      -8.1      0.000      0.000
REMARK  Name = 
REMARK  7 active torsions:
REMARK  status: ('A' for Active; 'I' for Inactive)
REMARK    1  A    between atoms: C_1  and  O_2
REMARK    2  A    between atoms: O_2  and  C_3
REMARK    3  A    between atoms: C_9  and  C_10
REMARK    4  A    between atoms: C_10  and  N_11
REMARK    5  A    between atoms: N_22  and  O_23
REMARK    6  A    between atoms: C_24  and  C_25
REMARK    7  A    between atoms: C_24  and  C_26
REMARK                            x       y       z     vdW  Elec       q    Type
REMARK                         _______ _______ _______ _____ _____    ______ ____
ROOT
ATOM      1  N   UNL     1       2.422   7.765  19.274  0.00  0.00    +0.000 N 
ATOM      2  C   UNL     1       2.258   8.270  17.989  0.00  0.00    +0.000 A 
ATOM      3  C   UNL     1       1.306   9.280  18.008  0.00  0.00    +0.000 A 
ATOM      4  C   UNL     1       0.962   9.355  19.341  0.00  0.00    +0.000 A 
ATOM      5  C   UNL     1      -0.005  10.229  19.872  0.00  0.00    +0.000 A 
ATOM      6  C   UNL     1      -0.146  10.138  21.280  0.00  0.00    +0.000 A 
ATOM      7  N   UNL     1       0.534   9.248  22.103  0.00  0.00    +0.000 NA
ATOM      8  C   UNL     1       1.409   8.407  21.528  0.00  0.00    +0.000 A 
ATOM      9  C   UNL     1       1.624   8.477  20.157  0.00  0.00    +0.000 A 
ATOM     10  C   UNL     1      -1.127  11.125  21.706  0.00  0.00    +0.000 C 
ATOM     11  O   UNL     1      -1.631  11.407  22.790  0.00  0.00    +0.000 OA
ATOM     12  N   UNL     1      -1.440  11.788  20.530  0.00  0.00    +0.000 N 
ATOM     13  C   UNL     1      -0.931  11.228  19.263  0.00  0.00    +0.000 C 
ATOM     14  C   UNL     1      -2.057  10.535  18.487  0.00  0.00    +0.000 C 
ATOM     15  C   UNL     1      -0.241  12.311  18.444  0.00  0.00    +0.000 C 
ENDROOT
BRANCH  12  16
ATOM     16  O   UNL     1      -2.461  12.748  20.492  0.00  0.00    +0.000 OA
ATOM     17  H   UNL     1      -3.255  12.191  20.344  0.00  0.00    +0.000 HD
ENDBRANCH  12  16
BRANCH   1  18
ATOM     18  C   UNL     1       3.146   6.534  19.588  0.00  0.00    +0.000 C 
BRANCH  18  25
ATOM     19  C   UNL     1       2.573   4.548  18.086  0.00  0.00    +0.000 A 
ATOM     20  C   UNL     1       1.876   3.355  17.872  0.00  0.00    +0.000 A 
ATOM     21  C   UNL     1       0.977   2.896  18.825  0.00  0.00    +0.000 A 
ATOM     22  F   UNL     1       0.326   1.745  18.616  0.00  0.00    +0.000 F 
ATOM     23  C   UNL     1       0.753   3.603  19.998  0.00  0.00    +0.000 A 
ATOM     24  C   UNL     1       1.446   4.790  20.224  0.00  0.00    +0.000 A 
ATOM     25  C   UNL     1       2.370   5.275  19.277  0.00  0.00    +0.000 A 
BRANCH  19  27
ATOM     26  C   UNL     1       4.542   4.155  16.806  0.00  0.00    +0.000 C 
ATOM     27  O   UNL     1       3.508   5.049  17.216  0.00  0.00    +0.000 OA
ENDBRANCH  19  27
ENDBRANCH  18  25
ENDBRANCH   1  18
TORSDOF 4
ENDMDL
MODEL 2
REMARK VINA RESULT:      -7.5      2.723      7.673
REMARK  Name = 
REMARK  7 active torsions:
REMARK  status: ('A' for Active; 'I' for Inactive)
REMARK    1  A    between atoms: C_1  and  O_2
REMARK    2  A    between atoms: O_2  and  C_3
REMARK    3  A    between atoms: C_9  and  C_10
REMARK    4  A    between atoms: C_10  and  N_11
REMARK    5  A    between atoms: N_22  and  O_23
REMARK    6  A    between atoms: C_24  and  C_25
REMARK    7  A    between atoms: C_24  and  C_26
REMARK                            x       y       z     vdW  Elec       q    Type
REMARK                         _______ _______ _______ _____ _____    ______ ____
ROOT
ATOM      1  N   UNL     1       1.877   8.244  19.793  0.00  0.00    +0.000 N 
ATOM      2  C   UNL     1       1.198   7.677  20.867  0.00  0.00    +0.000 A 
ATOM      3  C   UNL     1       1.324   6.297  20.816  0.00  0.00    +0.000 A 
ATOM      4  C   UNL     1       2.118   6.099  19.707  0.00  0.00    +0.000 A 
ATOM      5  C   UNL     1       2.513   4.841  19.216  0.00  0.00    +0.000 A 
ATOM      6  C   UNL     1       3.362   4.909  18.082  0.00  0.00    +0.000 A 
ATOM      7  N   UNL     1       3.752   6.077  17.436  0.00  0.00    +0.000 NA
ATOM      8  C   UNL     1       3.302   7.244  17.925  0.00  0.00    +0.000 A 
ATOM      9  C   UNL     1       2.502   7.245  19.061  0.00  0.00    +0.000 A 
ATOM     10  C   UNL     1       3.741   3.555  17.711  0.00  0.00    +0.000 C 
ATOM     11  O   UNL     1       4.404   3.080  16.792  0.00  0.00    +0.000 OA
ATOM     12  N   UNL     1       3.156   2.780  18.700  0.00  0.00    +0.000 N 
ATOM     13  C   UNL     1       2.215   3.438  19.628  0.00  0.00    +0.000 C 
ATOM     14  C   UNL     1       0.768   3.060  19.290  0.00  0.00    +0.000 C 
ATOM     15  C   UNL     1       2.579   3.114  21.070  0.00  0.00    +0.000 C 
ENDROOT
BRANCH  12  16
ATOM     16  O   UNL     1       3.183   1.381  18.633  0.00  0.00    +0.000 OA
ATOM     17  H   UNL     1       3.679   1.150  19.447  0.00  0.00    +0.000 HD
ENDBRANCH  12  16
BRANCH   1  18
ATOM     18  C   UNL     1       1.748   9.642  19.384  0.00  0.00    +0.000 C 
BRANCH  18  25
ATOM     19  C   UNL     1      -0.426  10.870  19.925  0.00  0.00    +0.000 A 
ATOM     20  C   UNL     1      -1.710  11.276  19.552  0.00  0.00    +0.000 A 
ATOM     21  C   UNL     1      -2.242  10.866  18.336  0.00  0.00    +0.000 A 
ATOM     22  F   UNL     1      -3.469  11.272  17.983  0.00  0.00    +0.000 F 
ATOM     23  C   UNL     1      -1.519  10.052  17.476  0.00  0.00    +0.000 A 
ATOM     24  C   UNL     1      -0.236   9.646  17.835  0.00  0.00    +0.000 A 
ATOM     25  C   UNL     1       0.331  10.054  19.059  0.00  0.00    +0.000 A 
BRANCH  19  27
ATOM     26  C   UNL     1      -0.414  10.830  22.305  0.00  0.00    +0.000 C 
ATOM     27  O   UNL     1       0.188  11.264  21.087  0.00  0.00    +0.000 OA
ENDBRANCH  19  27
ENDBRANCH  18  25
ENDBRANCH   1  18
TORSDOF 4
ENDMDL
MODEL 3
REMARK VINA RESULT:      -7.5      2.422      3.198
REMARK  Name = 
REMARK  7 active torsions:
REMARK  status: ('A' for Active; 'I' for Inactive)
REMARK    1  A    between atoms: C_1  and  O_2
REMARK    2  A    between atoms: O_2  and  C_3
REMARK    3  A    between atoms: C_9  and  C_10
REMARK    4  A    between atoms: C_10  and  N_11
REMARK    5  A    between atoms: N_22  and  O_23
REMARK    6  A    between atoms: C_24  and  C_25
REMARK    7  A    between atoms: C_24  and  C_26
REMARK                            x       y       z     vdW  Elec       q    Type
REMARK                         _______ _______ _______ _____ _____    ______ ____
ROOT
ATOM      1  N   UNL     1       2.197   7.838  18.416  0.00  0.00    +0.000 N 
ATOM      2  C   UNL     1       2.130   8.875  17.493  0.00  0.00    +0.000 A 
ATOM      3  C   UNL     1       1.478   9.959  18.063  0.00  0.00    +0.000 A 
ATOM      4  C   UNL     1       1.209   9.521  19.342  0.00  0.00    +0.000 A 
ATOM      5  C   UNL     1       0.524  10.267  20.319  0.00  0.00    +0.000 A 
ATOM      6  C   UNL     1       0.409   9.605  21.568  0.00  0.00    +0.000 A 
ATOM      7  N   UNL     1       0.857   8.317  21.843  0.00  0.00    +0.000 NA
ATOM      8  C   UNL     1       1.460   7.640  20.853  0.00  0.00    +0.000 A 
ATOM      9  C   UNL     1       1.642   8.251  19.618  0.00  0.00    +0.000 A 
ATOM     10  C   UNL     1      -0.264  10.497  22.499  0.00  0.00    +0.000 C 
ATOM     11  O   UNL     1      -0.641  10.383  23.663  0.00  0.00    +0.000 OA
ATOM     12  N   UNL     1      -0.429  11.659  21.761  0.00  0.00    +0.000 N 
ATOM     13  C   UNL     1      -0.126  11.610  20.317  0.00  0.00    +0.000 C 
ATOM     14  C   UNL     1      -1.419  11.596  19.493  0.00  0.00    +0.000 C 
ATOM     15  C   UNL     1       0.798  12.756  19.930  0.00  0.00    +0.000 C 
ENDROOT
BRANCH  12  16
ATOM     16  O   UNL     1      -1.161  12.740  22.269  0.00  0.00    +0.000 OA
ATOM     17  H   UNL     1      -1.773  12.293  22.892  0.00  0.00    +0.000 HD
ENDBRANCH  12  16
BRANCH   1  18
ATOM     18  C   UNL     1       2.581   6.466  18.086  0.00  0.00    +0.000 C 
BRANCH  18  25
ATOM     19  C   UNL     1       4.557   5.309  19.220  0.00  0.00    +0.000 A 
ATOM     20  C   UNL     1       5.927   5.041  19.284  0.00  0.00    +0.000 A 
ATOM     21  C   UNL     1       6.796   5.655  18.391  0.00  0.00    +0.000 A 
ATOM     22  F   UNL     1       8.106   5.380  18.452  0.00  0.00    +0.000 F 
ATOM     23  C   UNL     1       6.329   6.538  17.429  0.00  0.00    +0.000 A 
ATOM     24  C   UNL     1       4.964   6.808  17.353  0.00  0.00    +0.000 A 
ATOM     25  C   UNL     1       4.060   6.193  18.241  0.00  0.00    +0.000 A 
BRANCH  19  27
ATOM     26  C   UNL     1       3.478   3.301  19.906  0.00  0.00    +0.000 C 
ATOM     27  O   UNL     1       3.628   4.714  20.036  0.00  0.00    +0.000 OA
ENDBRANCH  19  27
ENDBRANCH  18  25
ENDBRANCH   1  18
TORSDOF 4
ENDMDL
MODEL 4
REMARK VINA RESULT:      -7.5      2.841      7.451
REMARK  Name = 
REMARK  7 active torsions:
REMARK  status: ('A' for Active; 'I' for Inactive)
REMARK    1  A    between atoms: C_1  and  O_2
REMARK    2  A    between atoms: O_2  and  C_3
REMARK    3  A    between atoms: C_9  and  C_10
REMARK    4  A    between atoms: C_10  and  N_11
REMARK    5  A    between atoms: N_22  and  O_23
REMARK    6  A    between atoms: C_24  and  C_25
REMARK    7  A    between atoms: C_24  and  C_26
REMARK                            x       y       z     vdW  Elec       q    Type
REMARK                         _______ _______ _______ _____ _____    ______ ____
ROOT
ATOM      1  N   UNL     1       1.749   8.813  18.996  0.00  0.00    +0.000 N 
ATOM      2  C   UNL     1       2.532   8.860  17.848  0.00  0.00    +0.000 A 
ATOM      3  C   UNL     1       3.207   7.657  17.700  0.00  0.00    +0.000 A 
ATOM      4  C   UNL     1       2.759   6.917  18.773  0.00  0.00    +0.000 A 
ATOM      5  C   UNL     1       3.182   5.610  19.078  0.00  0.00    +0.000 A 
ATOM      6  C   UNL     1       2.542   5.053  20.215  0.00  0.00    +0.000 A 
ATOM      7  N   UNL     1       1.622   5.709  21.025  0.00  0.00    +0.000 NA
ATOM      8  C   UNL     1       1.297   6.973  20.707  0.00  0.00    +0.000 A 
ATOM      9  C   UNL     1       1.857   7.559  19.579  0.00  0.00    +0.000 A 
ATOM     10  C   UNL     1       3.021   3.690  20.388  0.00  0.00    +0.000 C 
ATOM     11  O   UNL     1       2.820   2.820  21.232  0.00  0.00    +0.000 OA
ATOM     12  N   UNL     1       3.852   3.505  19.294  0.00  0.00    +0.000 N 
ATOM     13  C   UNL     1       4.177   4.683  18.466  0.00  0.00    +0.000 C 
ATOM     14  C   UNL     1       5.611   5.155  18.737  0.00  0.00    +0.000 C 
ATOM     15  C   UNL     1       3.934   4.379  16.994  0.00  0.00    +0.000 C 
ENDROOT
BRANCH  12  16
ATOM     16  O   UNL     1       4.620   2.341  19.158  0.00  0.00    +0.000 OA
ATOM     17  H   UNL     1       4.049   1.790  18.580  0.00  0.00    +0.000 HD
ENDBRANCH  12  16
BRANCH   1  18
ATOM     18  C   UNL     1       1.107   9.978  19.603  0.00  0.00    +0.000 C 
BRANCH  18  25
ATOM     19  C   UNL     1      -1.062  11.327  19.527  0.00  0.00    +0.000 A 
ATOM     20  C   UNL     1      -2.257  11.660  18.883  0.00  0.00    +0.000 A 
ATOM     21  C   UNL     1      -2.625  10.999  17.717  0.00  0.00    +0.000 A 
ATOM     22  F   UNL     1      -3.765  11.336  17.101  0.00  0.00    +0.000 F 
ATOM     23  C   UNL     1      -1.824  10.006  17.174  0.00  0.00    +0.000 A 
ATOM     24  C   UNL     1      -0.628   9.670  17.805  0.00  0.00    +0.000 A 
ATOM     25  C   UNL     1      -0.227  10.330  18.984  0.00  0.00    +0.000 A 
BRANCH  19  27
ATOM     26  C   UNL     1      -1.365  11.758  21.849  0.00  0.00    +0.000 C 
ATOM     27  O   UNL     1      -0.607  11.958  20.656  0.00  0.00    +0.000 OA
ENDBRANCH  19  27
ENDBRANCH  18  25
ENDBRANCH   1  18
TORSDOF 4
ENDMDL
MODEL 5
REMARK VINA RESULT:      -7.5      1.629      2.371
REMARK  Name = 
REMARK  7 active torsions:
REMARK  status: ('A' for Active; 'I' for Inactive)
REMARK    1  A    between atoms: C_1  and  O_2
REMARK    2  A    between atoms: O_2  and  C_3
REMARK    3  A    between atoms: C_9  and  C_10
REMARK    4  A    between atoms: C_10  and  N_11
REMARK    5  A    between atoms: N_22  and  O_23
REMARK    6  A    between atoms: C_24  and  C_25
REMARK    7  A    between atoms: C_24  and  C_26
REMARK                            x       y       z     vdW  Elec       q    Type
REMARK                         _______ _______ _______ _____ _____    ______ ____
ROOT
ATOM      1  N   UNL     1       2.156   7.345  19.483  0.00  0.00    +0.000 N 
ATOM      2  C   UNL     1       2.215   7.859  18.193  0.00  0.00    +0.000 A 
ATOM      3  C   UNL     1       1.655   9.128  18.175  0.00  0.00    +0.000 A 
ATOM      4  C   UNL     1       1.309   9.332  19.494  0.00  0.00    +0.000 A 
ATOM      5  C   UNL     1       0.671  10.485  19.988  0.00  0.00    +0.000 A 
ATOM      6  C   UNL     1       0.458  10.465  21.389  0.00  0.00    +0.000 A 
ATOM      7  N   UNL     1       0.773   9.410  22.238  0.00  0.00    +0.000 NA
ATOM      8  C   UNL     1       1.336   8.317  21.697  0.00  0.00    +0.000 A 
ATOM      9  C   UNL     1       1.610   8.293  20.335  0.00  0.00    +0.000 A 
ATOM     10  C   UNL     1      -0.152  11.728  21.778  0.00  0.00    +0.000 C 
ATOM     11  O   UNL     1      -0.571  12.176  22.842  0.00  0.00    +0.000 OA
ATOM     12  N   UNL     1      -0.184  12.442  20.591  0.00  0.00    +0.000 N 
ATOM     13  C   UNL     1       0.154  11.728  19.344  0.00  0.00    +0.000 C 
ATOM     14  C   UNL     1      -1.111  11.440  18.526  0.00  0.00    +0.000 C 
ATOM     15  C   UNL     1       1.194  12.507  18.551  0.00  0.00    +0.000 C 
ENDROOT
BRANCH  12  16
ATOM     16  O   UNL     1      -0.823  13.687  20.513  0.00  0.00    +0.000 OA
ATOM     17  H   UNL     1      -0.085  14.304  20.709  0.00  0.00    +0.000 HD
ENDBRANCH  12  16
BRANCH   1  18
ATOM     18  C   UNL     1       2.416   5.947  19.825  0.00  0.00    +0.000 C 
BRANCH  18  25
ATOM     19  C   UNL     1       2.727   4.239  17.950  0.00  0.00    +0.000 A 
ATOM     20  C   UNL     1       3.539   3.639  16.984  0.00  0.00    +0.000 A 
ATOM     21  C   UNL     1       4.876   4.000  16.880  0.00  0.00    +0.000 A 
ATOM     22  F   UNL     1       5.642   3.428  15.941  0.00  0.00    +0.000 F 
ATOM     23  C   UNL     1       5.429   4.952  17.723  0.00  0.00    +0.000 A 
ATOM     24  C   UNL     1       4.627   5.561  18.686  0.00  0.00    +0.000 A 
ATOM     25  C   UNL     1       3.266   5.219  18.808  0.00  0.00    +0.000 A 
BRANCH  19  27
ATOM     26  C   UNL     1       1.049   2.695  18.633  0.00  0.00    +0.000 C 
ATOM     27  O   UNL     1       1.389   3.970  18.092  0.00  0.00    +0.000 OA
ENDBRANCH  19  27
ENDBRANCH  18  25
ENDBRANCH   1  18
TORSDOF 4
ENDMDL
MODEL 6
REMARK VINA RESULT:      -7.4      3.506      7.821
REMARK  Name = 
REMARK  7 active torsions:
REMARK  status: ('A' for Active; 'I' for Inactive)
REMARK    1  A    between atoms: C_1  and  O_2
REMARK    2  A    between atoms: O_2  and  C_3
REMARK    3  A    between atoms: C_9  and  C_10
REMARK    4  A    between atoms: C_10  and  N_11
REMARK    5  A    between atoms: N_22  and  O_23
REMARK    6  A    between atoms: C_24  and  C_25
REMARK    7  A    between atoms: C_24  and  C_26
REMARK                            x       y       z     vdW  Elec       q    Type
REMARK                         _______ _______ _______ _____ _____    ______ ____
ROOT
ATOM      1  N   UNL     1       1.634   8.596  18.965  0.00  0.00    +0.000 N 
ATOM      2  C   UNL     1       2.169   9.179  17.821  0.00  0.00    +0.000 A 
ATOM      3  C   UNL     1       3.209   8.393  17.347  0.00  0.00    +0.000 A 
ATOM      4  C   UNL     1       3.226   7.335  18.230  0.00  0.00    +0.000 A 
ATOM      5  C   UNL     1       4.139   6.265  18.184  0.00  0.00    +0.000 A 
ATOM      6  C   UNL     1       3.921   5.283  19.184  0.00  0.00    +0.000 A 
ATOM      7  N   UNL     1       2.952   5.347  20.179  0.00  0.00    +0.000 NA
ATOM      8  C   UNL     1       2.142   6.419  20.197  0.00  0.00    +0.000 A 
ATOM      9  C   UNL     1       2.278   7.394  19.217  0.00  0.00    +0.000 A 
ATOM     10  C   UNL     1       4.887   4.212  18.993  0.00  0.00    +0.000 C 
ATOM     11  O   UNL     1       5.144   3.181  19.609  0.00  0.00    +0.000 OA
ATOM     12  N   UNL     1       5.559   4.594  17.843  0.00  0.00    +0.000 N 
ATOM     13  C   UNL     1       5.306   5.947  17.310  0.00  0.00    +0.000 C 
ATOM     14  C   UNL     1       6.488   6.877  17.609  0.00  0.00    +0.000 C 
ATOM     15  C   UNL     1       4.980   5.880  15.824  0.00  0.00    +0.000 C 
ENDROOT
BRANCH  12  16
ATOM     16  O   UNL     1       6.673   3.877  17.385  0.00  0.00    +0.000 OA
ATOM     17  H   UNL     1       6.299   3.394  16.617  0.00  0.00    +0.000 HD
ENDBRANCH  12  16
BRANCH   1  18
ATOM     18  C   UNL     1       0.703   9.267  19.872  0.00  0.00    +0.000 C 
BRANCH  18  25
ATOM     19  C   UNL     1      -0.752  10.988  18.668  0.00  0.00    +0.000 A 
ATOM     20  C   UNL     1      -1.053  12.320  18.370  0.00  0.00    +0.000 A 
ATOM     21  C   UNL     1      -0.240  13.339  18.848  0.00  0.00    +0.000 A 
ATOM     22  F   UNL     1      -0.546  14.613  18.568  0.00  0.00    +0.000 F 
ATOM     23  C   UNL     1       0.878  13.061  19.622  0.00  0.00    +0.000 A 
ATOM     24  C   UNL     1       1.184  11.737  19.930  0.00  0.00    +0.000 A 
ATOM     25  C   UNL     1       0.371  10.684  19.464  0.00  0.00    +0.000 A 
BRANCH  19  27
ATOM     26  C   UNL     1      -2.039   9.974  16.940  0.00  0.00    +0.000 C 
ATOM     27  O   UNL     1      -1.526   9.927  18.271  0.00  0.00    +0.000 OA
ENDBRANCH  19  27
ENDBRANCH  18  25
ENDBRANCH   1  18
TORSDOF 4
ENDMDL
MODEL 7
REMARK VINA RESULT:      -7.4      1.983      2.794
REMARK  Name = 
REMARK  7 active torsions:
REMARK  status: ('A' for Active; 'I' for Inactive)
REMARK    1  A    between atoms: C_1  and  O_2
REMARK    2  A    between atoms: O_2  and  C_3
REMARK    3  A    between atoms: C_9  and  C_10
REMARK    4  A    between atoms: C_10  and  N_11
REMARK    5  A    between atoms: N_22  and  O_23
REMARK    6  A    between atoms: C_24  and  C_25
REMARK    7  A    between atoms: C_24  and  C_26
REMARK                            x       y       z     vdW  Elec       q    Type
REMARK                         _______ _______ _______ _____ _____    ______ ____
ROOT
ATOM      1  N   UNL     1       2.588   7.081  19.009  0.00  0.00    +0.000 N 
ATOM      2  C   UNL     1       2.679   7.751  17.793  0.00  0.00    +0.000 A 
ATOM      3  C   UNL     1       1.995   8.955  17.877  0.00  0.00    +0.000 A 
ATOM      4  C   UNL     1       1.546   8.965  19.180  0.00  0.00    +0.000 A 
ATOM      5  C   UNL     1       0.763   9.986  19.751  0.00  0.00    +0.000 A 
ATOM      6  C   UNL     1       0.462   9.777  21.121  0.00  0.00    +0.000 A 
ATOM      7  N   UNL     1       0.826   8.661  21.866  0.00  0.00    +0.000 NA
ATOM      8  C   UNL     1       1.531   7.699  21.249  0.00  0.00    +0.000 A 
ATOM      9  C   UNL     1       1.895   7.865  19.918  0.00  0.00    +0.000 A 
ATOM     10  C   UNL     1      -0.297  10.922  21.603  0.00  0.00    +0.000 C 
ATOM     11  O   UNL     1      -0.827  11.198  22.675  0.00  0.00    +0.000 OA
ATOM     12  N   UNL     1      -0.323  11.768  20.505  0.00  0.00    +0.000 N 
ATOM     13  C   UNL     1       0.166  11.244  19.215  0.00  0.00    +0.000 C 
ATOM     14  C   UNL     1      -1.007  10.940  18.275  0.00  0.00    +0.000 C 
ATOM     15  C   UNL     1       1.171  12.206  18.598  0.00  0.00    +0.000 C 
ENDROOT
BRANCH  12  16
ATOM     16  O   UNL     1      -1.079  12.948  20.521  0.00  0.00    +0.000 OA
ATOM     17  H   UNL     1      -1.026  13.209  21.465  0.00  0.00    +0.000 HD
ENDBRANCH  12  16
BRANCH   1  18
ATOM     18  C   UNL     1       2.965   5.683  19.208  0.00  0.00    +0.000 C 
BRANCH  18  25
ATOM     19  C   UNL     1       3.984   4.287  17.325  0.00  0.00    +0.000 A 
ATOM     20  C   UNL     1       5.079   3.955  16.522  0.00  0.00    +0.000 A 
ATOM     21  C   UNL     1       6.312   4.554  16.749  0.00  0.00    +0.000 A 
ATOM     22  F   UNL     1       7.351   4.239  15.964  0.00  0.00    +0.000 F 
ATOM     23  C   UNL     1       6.482   5.483  17.765  0.00  0.00    +0.000 A 
ATOM     24  C   UNL     1       5.396   5.825  18.568  0.00  0.00    +0.000 A 
ATOM     25  C   UNL     1       4.132   5.239  18.355  0.00  0.00    +0.000 A 
BRANCH  19  27
ATOM     26  C   UNL     1       2.490   2.463  17.653  0.00  0.00    +0.000 C 
ATOM     27  O   UNL     1       2.725   3.774  17.142  0.00  0.00    +0.000 OA
ENDBRANCH  19  27
ENDBRANCH  18  25
ENDBRANCH   1  18
TORSDOF 4
ENDMDL
MODEL 8
REMARK VINA RESULT:      -7.3      2.884      7.880
REMARK  Name = 
REMARK  7 active torsions:
REMARK  status: ('A' for Active; 'I' for Inactive)
REMARK    1  A    between atoms: C_1  and  O_2
REMARK    2  A    between atoms: O_2  and  C_3
REMARK    3  A    between atoms: C_9  and  C_10
REMARK    4  A    between atoms: C_10  and  N_11
REMARK    5  A    between atoms: N_22  and  O_23
REMARK    6  A    between atoms: C_24  and  C_25
REMARK    7  A    between atoms: C_24  and  C_26
REMARK                            x       y       z     vdW  Elec       q    Type
REMARK                         _______ _______ _______ _____ _____    ______ ____
ROOT
ATOM      1  N   UNL     1       1.883   7.777  19.840  0.00  0.00    +0.000 N 
ATOM      2  C   UNL     1       1.289   6.983  20.815  0.00  0.00    +0.000 A 
ATOM      3  C   UNL     1       1.612   5.653  20.588  0.00  0.00    +0.000 A 
ATOM      4  C   UNL     1       2.430   5.719  19.481  0.00  0.00    +0.000 A 
ATOM      5  C   UNL     1       3.004   4.605  18.839  0.00  0.00    +0.000 A 
ATOM      6  C   UNL     1       3.838   4.942  17.744  0.00  0.00    +0.000 A 
ATOM      7  N   UNL     1       4.060   6.229  17.264  0.00  0.00    +0.000 NA
ATOM      8  C   UNL     1       3.444   7.245  17.891  0.00  0.00    +0.000 A 
ATOM      9  C   UNL     1       2.648   6.982  18.999  0.00  0.00    +0.000 A 
ATOM     10  C   UNL     1       4.409   3.716  17.208  0.00  0.00    +0.000 C 
ATOM     11  O   UNL     1       5.137   3.466  16.250  0.00  0.00    +0.000 OA
ATOM     12  N   UNL     1       3.937   2.743  18.074  0.00  0.00    +0.000 N 
ATOM     13  C   UNL     1       2.908   3.132  19.058  0.00  0.00    +0.000 C 
ATOM     14  C   UNL     1       1.532   2.600  18.641  0.00  0.00    +0.000 C 
ATOM     15  C   UNL     1       3.310   2.675  20.454  0.00  0.00    +0.000 C 
ENDROOT
BRANCH  12  16
ATOM     16  O   UNL     1       4.165   1.382  17.826  0.00  0.00    +0.000 OA
ATOM     17  H   UNL     1       3.710   0.960  18.586  0.00  0.00    +0.000 HD
ENDBRANCH  12  16
BRANCH   1  18
ATOM     18  C   UNL     1       1.557   9.184  19.614  0.00  0.00    +0.000 C 
BRANCH  18  25
ATOM     19  C   UNL     1      -0.299  10.763  20.383  0.00  0.00    +0.000 A 
ATOM     20  C   UNL     1      -1.138  11.241  21.394  0.00  0.00    +0.000 A 
ATOM     21  C   UNL     1      -1.006  10.760  22.690  0.00  0.00    +0.000 A 
ATOM     22  F   UNL     1      -1.825  11.216  23.647  0.00  0.00    +0.000 F 
ATOM     23  C   UNL     1      -0.050   9.806  23.007  0.00  0.00    +0.000 A 
ATOM     24  C   UNL     1       0.787   9.319  22.006  0.00  0.00    +0.000 A 
ATOM     25  C   UNL     1       0.670   9.784  20.681  0.00  0.00    +0.000 A 
BRANCH  19  27
ATOM     26  C   UNL     1      -1.569  10.762  18.369  0.00  0.00    +0.000 C 
ATOM     27  O   UNL     1      -0.390  11.154  19.071  0.00  0.00    +0.000 OA
ENDBRANCH  19  27
ENDBRANCH  18  25
ENDBRANCH   1  18
TORSDOF 4
ENDMDL
MODEL 9
REMARK VINA RESULT:      -7.2      2.468      3.462
REMARK  Name = 
REMARK  7 active torsions:
REMARK  status: ('A' for Active; 'I' for Inactive)
REMARK    1  A    between atoms: C_1  and  O_2
REMARK    2  A    between atoms: O_2  and  C_3
REMARK    3  A    between atoms: C_9  and  C_10
REMARK    4  A    between atoms: C_10  and  N_11
REMARK    5  A    between atoms: N_22  and  O_23
REMARK    6  A    between atoms: C_24  and  C_25
REMARK    7  A    between atoms: C_24  and  C_26
REMARK                            x       y       z     vdW  Elec       q    Type
REMARK                         _______ _______ _______ _____ _____    ______ ____
ROOT
ATOM      1  N   UNL     1       3.101   6.739  18.543  0.00  0.00    +0.000 N 
ATOM      2  C   UNL     1       3.190   7.618  17.469  0.00  0.00    +0.000 A 
ATOM      3  C   UNL     1       2.398   8.730  17.717  0.00  0.00    +0.000 A 
ATOM      4  C   UNL     1       1.886   8.472  18.971  0.00  0.00    +0.000 A 
ATOM      5  C   UNL     1       0.988   9.309  19.659  0.00  0.00    +0.000 A 
ATOM      6  C   UNL     1       0.641   8.837  20.950  0.00  0.00    +0.000 A 
ATOM      7  N   UNL     1       1.068   7.639  21.513  0.00  0.00    +0.000 NA
ATOM      8  C   UNL     1       1.886   6.862  20.785  0.00  0.00    +0.000 A 
ATOM      9  C   UNL     1       2.297   7.290  19.528  0.00  0.00    +0.000 A 
ATOM     10  C   UNL     1      -0.239   9.813  21.574  0.00  0.00    +0.000 C 
ATOM     11  O   UNL     1      -0.844   9.851  22.642  0.00  0.00    +0.000 OA
ATOM     12  N   UNL     1      -0.289  10.836  20.640  0.00  0.00    +0.000 N 
ATOM     13  C   UNL     1       0.307  10.590  19.312  0.00  0.00    +0.000 C 
ATOM     14  C   UNL     1      -0.787  10.366  18.262  0.00  0.00    +0.000 C 
ATOM     15  C   UNL     1       1.250  11.725  18.936  0.00  0.00    +0.000 C 
ENDROOT
BRANCH  12  16
ATOM     16  O   UNL     1      -1.148  11.930  20.811  0.00  0.00    +0.000 OA
ATOM     17  H   UNL     1      -1.410  12.127  19.887  0.00  0.00    +0.000 HD
ENDBRANCH  12  16
BRANCH   1  18
ATOM     18  C   UNL     1       3.593   5.362  18.521  0.00  0.00    +0.000 C 
BRANCH  18  25
ATOM     19  C   UNL     1       6.057   5.281  17.849  0.00  0.00    +0.000 A 
ATOM     20  C   UNL     1       7.043   4.989  16.901  0.00  0.00    +0.000 A 
ATOM     21  C   UNL     1       6.680   4.559  15.632  0.00  0.00    +0.000 A 
ATOM     22  F   UNL     1       7.634   4.269  14.737  0.00  0.00    +0.000 F 
ATOM     23  C   UNL     1       5.346   4.412  15.279  0.00  0.00    +0.000 A 
ATOM     24  C   UNL     1       4.355   4.694  16.217  0.00  0.00    +0.000 A 
ATOM     25  C   UNL     1       4.696   5.125  17.515  0.00  0.00    +0.000 A 
BRANCH  19  27
ATOM     26  C   UNL     1       7.708   5.763  19.494  0.00  0.00    +0.000 C 
ATOM     27  O   UNL     1       6.330   5.670  19.135  0.00  0.00    +0.000 OA
ENDBRANCH  19  27
ENDBRANCH  18  25
ENDBRANCH   1  18
TORSDOF 4
ENDMDL
