MODEL 1
REMARK VINA RESULT:      -6.9      0.000      0.000
REMARK  Name = 
REMARK  1 active torsions:
REMARK  status: ('A' for Active; 'I' for Inactive)
REMARK    1  A    between atoms: C_7  and  C_8
REMARK                            x       y       z     vdW  Elec       q    Type
REMARK                         _______ _______ _______ _____ _____    ______ ____
ROOT
ATOM      1  CB  ALA A   1       8.290   7.334  18.459  0.00  0.00    +0.000 C 
ATOM      2  CA  ALA A   1       7.223   6.644  18.039  0.00  0.00    +0.000 A 
ATOM      3  N   ALA A   1       6.677   6.860  16.799  0.00  0.00    +0.000 N 
ATOM      4  C   UNK A   2       5.592   6.194  16.289  0.00  0.00    +0.000 A 
ATOM      5  O   UNK A   2       5.161   6.443  15.168  0.00  0.00    +0.000 OA
ATOM      6  C   UNK A   2       4.980   5.162  17.196  0.00  0.00    +0.000 A 
ATOM      7  C   UNK A   2       3.912   4.472  16.756  0.00  0.00    +0.000 C 
ATOM      8  N   UNK A   2       5.528   4.955  18.442  0.00  0.00    +0.000 N 
ATOM      9  C   ALA A   1       6.615   5.614  18.949  0.00  0.00    +0.000 A 
ATOM     10  O   ALA A   1       7.048   5.365  20.068  0.00  0.00    +0.000 OA
ATOM     11  H   ALA A   1       7.083   7.553  16.184  0.00  0.00    +0.000 HD
ATOM     12  H   UNK A   2       5.123   4.260  19.057  0.00  0.00    +0.000 HD
ENDROOT
BRANCH   7  13
ATOM     13  C   UNK A   2       3.216   3.483  17.507  0.00  0.00    +0.000 A 
ATOM     14  C   UNK A   2       1.932   3.585  18.094  0.00  0.00    +0.000 A 
ATOM     15  C   UNK A   2       1.729   2.398  18.760  0.00  0.00    +0.000 A 
ATOM     16  O   UNK A   2       2.800   1.574  18.601  0.00  0.00    +0.000 OA
ATOM     17  C   UNK A   2       3.699   2.237  17.829  0.00  0.00    +0.000 A 
ENDBRANCH   7  13
TORSDOF 1
ENDMDL
MODEL 2
REMARK VINA RESULT:      -6.7      2.498      4.801
REMARK  Name = 
REMARK  1 active torsions:
REMARK  status: ('A' for Active; 'I' for Inactive)
REMARK    1  A    between atoms: C_7  and  C_8
REMARK                            x       y       z     vdW  Elec       q    Type
REMARK                         _______ _______ _______ _____ _____    ______ ____
ROOT
ATOM      1  CB  ALA A   1       2.128   3.428  21.497  0.00  0.00    +0.000 C 
ATOM      2  CA  ALA A   1       2.723   4.076  20.488  0.00  0.00    +0.000 A 
ATOM      3  N   ALA A   1       2.373   5.362  20.162  0.00  0.00    +0.000 N 
ATOM      4  C   UNK A   2       2.935   6.098  19.151  0.00  0.00    +0.000 A 
ATOM      5  O   UNK A   2       2.569   7.245  18.919  0.00  0.00    +0.000 OA
ATOM      6  C   UNK A   2       4.009   5.402  18.361  0.00  0.00    +0.000 A 
ATOM      7  C   UNK A   2       4.602   6.070  17.356  0.00  0.00    +0.000 C 
ATOM      8  N   UNK A   2       4.350   4.109  18.689  0.00  0.00    +0.000 N 
ATOM      9  C   ALA A   1       3.795   3.376  19.702  0.00  0.00    +0.000 A 
ATOM     10  O   ALA A   1       4.162   2.230  19.936  0.00  0.00    +0.000 OA
ATOM     11  H   ALA A   1       1.651   5.836  20.689  0.00  0.00    +0.000 HD
ATOM     12  H   UNK A   2       5.075   3.635  18.163  0.00  0.00    +0.000 HD
ENDROOT
BRANCH   7  13
ATOM     13  C   UNK A   2       5.615   5.536  16.510  0.00  0.00    +0.000 A 
ATOM     14  C   UNK A   2       5.455   4.941  15.235  0.00  0.00    +0.000 A 
ATOM     15  C   UNK A   2       6.711   4.531  14.853  0.00  0.00    +0.000 A 
ATOM     16  O   UNK A   2       7.628   4.853  15.805  0.00  0.00    +0.000 OA
ATOM     17  C   UNK A   2       6.955   5.473  16.809  0.00  0.00    +0.000 A 
ENDBRANCH   7  13
TORSDOF 1
ENDMDL
MODEL 3
REMARK VINA RESULT:      -6.7      2.334      5.109
REMARK  Name = 
REMARK  1 active torsions:
REMARK  status: ('A' for Active; 'I' for Inactive)
REMARK    1  A    between atoms: C_7  and  C_8
REMARK                            x       y       z     vdW  Elec       q    Type
REMARK                         _______ _______ _______ _____ _____    ______ ____
ROOT
ATOM      1  CB  ALA A   1       1.047   2.853  19.871  0.00  0.00    +0.000 C 
ATOM      2  CA  ALA A   1       1.895   3.611  19.166  0.00  0.00    +0.000 A 
ATOM      3  N   ALA A   1       1.796   4.980  19.165  0.00  0.00    +0.000 N 
ATOM      4  C   UNK A   2       2.626   5.828  18.478  0.00  0.00    +0.000 A 
ATOM      5  O   UNK A   2       2.474   7.045  18.526  0.00  0.00    +0.000 OA
ATOM      6  C   UNK A   2       3.709   5.165  17.672  0.00  0.00    +0.000 A 
ATOM      7  C   UNK A   2       4.558   5.942  16.976  0.00  0.00    +0.000 C 
ATOM      8  N   UNK A   2       3.799   3.792  17.673  0.00  0.00    +0.000 N 
ATOM      9  C   ALA A   1       2.976   2.944  18.362  0.00  0.00    +0.000 A 
ATOM     10  O   ALA A   1       3.127   1.729  18.317  0.00  0.00    +0.000 OA
ATOM     11  H   ALA A   1       1.069   5.432  19.704  0.00  0.00    +0.000 HD
ATOM     12  H   UNK A   2       4.527   3.339  17.134  0.00  0.00    +0.000 HD
ENDROOT
BRANCH   7  13
ATOM     13  C   UNK A   2       5.615   5.459  16.154  0.00  0.00    +0.000 A 
ATOM     14  C   UNK A   2       5.534   5.003  14.817  0.00  0.00    +0.000 A 
ATOM     15  C   UNK A   2       6.802   4.586  14.485  0.00  0.00    +0.000 A 
ATOM     16  O   UNK A   2       7.654   4.776  15.528  0.00  0.00    +0.000 OA
ATOM     17  C   UNK A   2       6.926   5.317  16.540  0.00  0.00    +0.000 A 
ENDBRANCH   7  13
TORSDOF 1
ENDMDL
MODEL 4
REMARK VINA RESULT:      -6.7      2.414      3.579
REMARK  Name = 
REMARK  1 active torsions:
REMARK  status: ('A' for Active; 'I' for Inactive)
REMARK    1  A    between atoms: C_7  and  C_8
REMARK                            x       y       z     vdW  Elec       q    Type
REMARK                         _______ _______ _______ _____ _____    ______ ____
ROOT
ATOM      1  CB  ALA A   1       7.795   5.083  12.810  0.00  0.00    +0.000 C 
ATOM      2  CA  ALA A   1       7.135   4.919  13.963  0.00  0.00    +0.000 A 
ATOM      3  N   ALA A   1       7.630   5.412  15.144  0.00  0.00    +0.000 N 
ATOM      4  C   UNK A   2       7.016   5.295  16.365  0.00  0.00    +0.000 A 
ATOM      5  O   UNK A   2       7.522   5.762  17.379  0.00  0.00    +0.000 OA
ATOM      6  C   UNK A   2       5.706   4.557  16.364  0.00  0.00    +0.000 A 
ATOM      7  C   UNK A   2       5.051   4.408  17.530  0.00  0.00    +0.000 C 
ATOM      8  N   UNK A   2       5.218   4.059  15.176  0.00  0.00    +0.000 N 
ATOM      9  C   ALA A   1       5.826   4.181  13.957  0.00  0.00    +0.000 A 
ATOM     10  O   ALA A   1       5.321   3.716  12.942  0.00  0.00    +0.000 OA
ATOM     11  H   ALA A   1       8.512   5.908  15.152  0.00  0.00    +0.000 HD
ATOM     12  H   UNK A   2       4.334   3.564  15.168  0.00  0.00    +0.000 HD
ENDROOT
BRANCH   7  13
ATOM     13  C   UNK A   2       3.817   3.717  17.687  0.00  0.00    +0.000 A 
ATOM     14  C   UNK A   2       3.621   2.338  17.935  0.00  0.00    +0.000 A 
ATOM     15  C   UNK A   2       2.258   2.148  17.946  0.00  0.00    +0.000 A 
ATOM     16  O   UNK A   2       1.612   3.327  17.737  0.00  0.00    +0.000 OA
ATOM     17  C   UNK A   2       2.567   4.282  17.589  0.00  0.00    +0.000 A 
ENDBRANCH   7  13
TORSDOF 1
ENDMDL
MODEL 5
REMARK VINA RESULT:      -6.6      2.024      3.234
REMARK  Name = 
REMARK  1 active torsions:
REMARK  status: ('A' for Active; 'I' for Inactive)
REMARK    1  A    between atoms: C_7  and  C_8
REMARK                            x       y       z     vdW  Elec       q    Type
REMARK                         _______ _______ _______ _____ _____    ______ ____
ROOT
ATOM      1  CB  ALA A   1       7.721   5.072  13.660  0.00  0.00    +0.000 C 
ATOM      2  CA  ALA A   1       7.037   4.790  14.775  0.00  0.00    +0.000 A 
ATOM      3  N   ALA A   1       7.618   4.898  16.013  0.00  0.00    +0.000 N 
ATOM      4  C   UNK A   2       6.988   4.637  17.203  0.00  0.00    +0.000 A 
ATOM      5  O   UNK A   2       7.575   4.756  18.274  0.00  0.00    +0.000 OA
ATOM      6  C   UNK A   2       5.555   4.193  17.095  0.00  0.00    +0.000 A 
ATOM      7  C   UNK A   2       4.880   3.921  18.227  0.00  0.00    +0.000 C 
ATOM      8  N   UNK A   2       4.981   4.080  15.849  0.00  0.00    +0.000 N 
ATOM      9  C   ALA A   1       5.606   4.348  14.662  0.00  0.00    +0.000 A 
ATOM     10  O   ALA A   1       5.020   4.230  13.591  0.00  0.00    +0.000 OA
ATOM     11  H   ALA A   1       8.582   5.195  16.093  0.00  0.00    +0.000 HD
ATOM     12  H   UNK A   2       4.015   3.785  15.769  0.00  0.00    +0.000 HD
ENDROOT
BRANCH   7  13
ATOM     13  C   UNK A   2       3.530   3.473  18.281  0.00  0.00    +0.000 A 
ATOM     14  C   UNK A   2       2.355   4.261  18.300  0.00  0.00    +0.000 A 
ATOM     15  C   UNK A   2       1.310   3.373  18.417  0.00  0.00    +0.000 A 
ATOM     16  O   UNK A   2       1.773   2.095  18.453  0.00  0.00    +0.000 OA
ATOM     17  C   UNK A   2       3.127   2.161  18.360  0.00  0.00    +0.000 A 
ENDBRANCH   7  13
TORSDOF 1
ENDMDL
MODEL 6
REMARK VINA RESULT:      -6.5      2.358      5.543
REMARK  Name = 
REMARK  1 active torsions:
REMARK  status: ('A' for Active; 'I' for Inactive)
REMARK    1  A    between atoms: C_7  and  C_8
REMARK                            x       y       z     vdW  Elec       q    Type
REMARK                         _______ _______ _______ _____ _____    ______ ____
ROOT
ATOM      1  CB  ALA A   1       0.561   3.099  19.762  0.00  0.00    +0.000 C 
ATOM      2  CA  ALA A   1       1.802   3.247  19.283  0.00  0.00    +0.000 A 
ATOM      3  N   ALA A   1       2.894   2.806  19.986  0.00  0.00    +0.000 N 
ATOM      4  C   UNK A   2       4.195   2.911  19.566  0.00  0.00    +0.000 A 
ATOM      5  O   UNK A   2       5.122   2.492  20.252  0.00  0.00    +0.000 OA
ATOM      6  C   UNK A   2       4.395   3.574  18.231  0.00  0.00    +0.000 A 
ATOM      7  C   UNK A   2       5.648   3.708  17.761  0.00  0.00    +0.000 C 
ATOM      8  N   UNK A   2       3.294   4.021  17.534  0.00  0.00    +0.000 N 
ATOM      9  C   ALA A   1       1.996   3.910  17.949  0.00  0.00    +0.000 A 
ATOM     10  O   ALA A   1       1.069   4.327  17.263  0.00  0.00    +0.000 OA
ATOM     11  H   ALA A   1       2.768   2.360  20.885  0.00  0.00    +0.000 HD
ATOM     12  H   UNK A   2       3.421   4.466  16.633  0.00  0.00    +0.000 HD
ENDROOT
BRANCH   7  13
ATOM     13  C   UNK A   2       5.992   4.331  16.528  0.00  0.00    +0.000 A 
ATOM     14  C   UNK A   2       5.952   3.767  15.231  0.00  0.00    +0.000 A 
ATOM     15  C   UNK A   2       6.434   4.738  14.384  0.00  0.00    +0.000 A 
ATOM     16  O   UNK A   2       6.749   5.864  15.080  0.00  0.00    +0.000 OA
ATOM     17  C   UNK A   2       6.469   5.612  16.386  0.00  0.00    +0.000 A 
ENDBRANCH   7  13
TORSDOF 1
ENDMDL
MODEL 7
REMARK VINA RESULT:      -6.5      2.244      5.687
REMARK  Name = 
REMARK  1 active torsions:
REMARK  status: ('A' for Active; 'I' for Inactive)
REMARK    1  A    between atoms: C_7  and  C_8
REMARK                            x       y       z     vdW  Elec       q    Type
REMARK                         _______ _______ _______ _____ _____    ______ ____
ROOT
ATOM      1  CB  ALA A   1       0.588   2.316  18.986  0.00  0.00    +0.000 C 
ATOM      2  CA  ALA A   1       1.859   2.732  18.925  0.00  0.00    +0.000 A 
ATOM      3  N   ALA A   1       2.825   2.191  19.734  0.00  0.00    +0.000 N 
ATOM      4  C   UNK A   2       4.148   2.553  19.731  0.00  0.00    +0.000 A 
ATOM      5  O   UNK A   2       4.956   2.022  20.486  0.00  0.00    +0.000 OA
ATOM      6  C   UNK A   2       4.522   3.636  18.756  0.00  0.00    +0.000 A 
ATOM      7  C   UNK A   2       5.804   4.037  18.703  0.00  0.00    +0.000 C 
ATOM      8  N   UNK A   2       3.545   4.180  17.952  0.00  0.00    +0.000 N 
ATOM      9  C   ALA A   1       2.227   3.814  17.949  0.00  0.00    +0.000 A 
ATOM     10  O   ALA A   1       1.419   4.342  17.194  0.00  0.00    +0.000 OA
ATOM     11  H   ALA A   1       2.581   1.463  20.393  0.00  0.00    +0.000 HD
ATOM     12  H   UNK A   2       3.790   4.907  17.291  0.00  0.00    +0.000 HD
ENDROOT
BRANCH   7  13
ATOM     13  C   UNK A   2       6.301   5.062  17.849  0.00  0.00    +0.000 A 
ATOM     14  C   UNK A   2       6.050   6.453  17.927  0.00  0.00    +0.000 A 
ATOM     15  C   UNK A   2       6.700   7.012  16.851  0.00  0.00    +0.000 A 
ATOM     16  O   UNK A   2       7.344   6.054  16.132  0.00  0.00    +0.000 OA
ATOM     17  C   UNK A   2       7.105   4.868  16.751  0.00  0.00    +0.000 A 
ENDBRANCH   7  13
TORSDOF 1
ENDMDL
MODEL 8
REMARK VINA RESULT:      -6.4      2.147      2.455
REMARK  Name = 
REMARK  1 active torsions:
REMARK  status: ('A' for Active; 'I' for Inactive)
REMARK    1  A    between atoms: C_7  and  C_8
REMARK                            x       y       z     vdW  Elec       q    Type
REMARK                         _______ _______ _______ _____ _____    ______ ____
ROOT
ATOM      1  CB  ALA A   1       7.280   6.587  17.075  0.00  0.00    +0.000 C 
ATOM      2  CA  ALA A   1       6.061   6.330  17.564  0.00  0.00    +0.000 A 
ATOM      3  N   ALA A   1       4.999   7.160  17.306  0.00  0.00    +0.000 N 
ATOM      4  C   UNK A   2       3.720   6.966  17.762  0.00  0.00    +0.000 A 
ATOM      5  O   UNK A   2       2.821   7.755  17.489  0.00  0.00    +0.000 OA
ATOM      6  C   UNK A   2       3.512   5.742  18.610  0.00  0.00    +0.000 A 
ATOM      7  C   UNK A   2       2.279   5.494  19.088  0.00  0.00    +0.000 C 
ATOM      8  N   UNK A   2       4.583   4.917  18.870  0.00  0.00    +0.000 N 
ATOM      9  C   ALA A   1       5.857   5.105  18.411  0.00  0.00    +0.000 A 
ATOM     10  O   ALA A   1       6.756   4.317  18.681  0.00  0.00    +0.000 OA
ATOM     11  H   ALA A   1       5.133   7.986  16.737  0.00  0.00    +0.000 HD
ATOM     12  H   UNK A   2       4.449   4.089  19.438  0.00  0.00    +0.000 HD
ENDROOT
BRANCH   7  13
ATOM     13  C   UNK A   2       1.935   4.391  19.919  0.00  0.00    +0.000 A 
ATOM     14  C   UNK A   2       2.204   4.228  21.298  0.00  0.00    +0.000 A 
ATOM     15  C   UNK A   2       1.731   2.979  21.628  0.00  0.00    +0.000 A 
ATOM     16  O   UNK A   2       1.175   2.378  20.541  0.00  0.00    +0.000 OA
ATOM     17  C   UNK A   2       1.295   3.247  19.504  0.00  0.00    +0.000 A 
ENDBRANCH   7  13
TORSDOF 1
ENDMDL
MODEL 9
REMARK VINA RESULT:      -6.3      2.405      5.021
REMARK  Name = 
REMARK  1 active torsions:
REMARK  status: ('A' for Active; 'I' for Inactive)
REMARK    1  A    between atoms: C_7  and  C_8
REMARK                            x       y       z     vdW  Elec       q    Type
REMARK                         _______ _______ _______ _____ _____    ______ ____
ROOT
ATOM      1  CB  ALA A   1       1.487   5.255  20.460  0.00  0.00    +0.000 C 
ATOM      2  CA  ALA A   1       2.355   4.760  19.569  0.00  0.00    +0.000 A 
ATOM      3  N   ALA A   1       2.538   3.408  19.427  0.00  0.00    +0.000 N 
ATOM      4  C   UNK A   2       3.399   2.820  18.536  0.00  0.00    +0.000 A 
ATOM      5  O   UNK A   2       3.508   1.600  18.467  0.00  0.00    +0.000 OA
ATOM      6  C   UNK A   2       4.189   3.767  17.675  0.00  0.00    +0.000 A 
ATOM      7  C   UNK A   2       5.051   3.253  16.780  0.00  0.00    +0.000 C 
ATOM      8  N   UNK A   2       4.006   5.123  17.828  0.00  0.00    +0.000 N 
ATOM      9  C   ALA A   1       3.142   5.711  18.711  0.00  0.00    +0.000 A 
ATOM     10  O   ALA A   1       3.030   6.929  18.780  0.00  0.00    +0.000 OA
ATOM     11  H   ALA A   1       2.010   2.766  20.003  0.00  0.00    +0.000 HD
ATOM     12  H   UNK A   2       4.532   5.766  17.249  0.00  0.00    +0.000 HD
ENDROOT
BRANCH   7  13
ATOM     13  C   UNK A   2       5.880   4.022  15.915  0.00  0.00    +0.000 A 
ATOM     14  C   UNK A   2       5.728   4.223  14.522  0.00  0.00    +0.000 A 
ATOM     15  C   UNK A   2       6.806   4.984  14.133  0.00  0.00    +0.000 A 
ATOM     16  O   UNK A   2       7.596   5.273  15.202  0.00  0.00    +0.000 OA
ATOM     17  C   UNK A   2       7.021   4.691  16.287  0.00  0.00    +0.000 A 
ENDBRANCH   7  13
TORSDOF 1
ENDMDL
