MODEL 1
REMARK VINA RESULT:      -7.9      0.000      0.000
REMARK  Name = 
REMARK  3 active torsions:
REMARK  status: ('A' for Active; 'I' for Inactive)
REMARK    1  A    between atoms: C_8  and  C_9
REMARK    2  A    between atoms: C_11  and  C_12
REMARK    3  A    between atoms: C_18  and  C_19
REMARK                            x       y       z     vdW  Elec       q    Type
REMARK                         _______ _______ _______ _____ _____    ______ ____
ROOT
ATOM      1  C   UNL     1       4.668   5.213  16.747  0.00  0.00    +0.000 A 
ATOM      2  N   UNL     1       4.237   4.277  17.565  0.00  0.00    +0.000 NA
ATOM      3  C   UNL     1       3.297   4.865  18.384  0.00  0.00    +0.000 A 
ATOM      4  C   UNL     1       3.163   6.218  18.094  0.00  0.00    +0.000 A 
ATOM      5  N   UNL     1       4.010   6.391  17.019  0.00  0.00    +0.000 N 
ATOM      6  H   UNL     1       4.159   7.257  16.522  0.00  0.00    +0.000 HD
ENDROOT
BRANCH   1  14
ATOM      7  F   UNL     1       4.157   3.779  14.383  0.00  0.00    +0.000 F 
ATOM      8  C   UNL     1       5.374   4.328  14.536  0.00  0.00    +0.000 A 
ATOM      9  C   UNL     1       6.301   4.135  13.510  0.00  0.00    +0.000 A 
ATOM     10  C   UNL     1       7.572   4.691  13.613  0.00  0.00    +0.000 A 
ATOM     11  C   UNL     1       7.897   5.441  14.742  0.00  0.00    +0.000 A 
ATOM     12  C   UNL     1       6.964   5.629  15.774  0.00  0.00    +0.000 A 
ATOM     13 CL   UNL     1       7.478   6.631  17.092  0.00  0.00    +0.000 Cl
ATOM     14  C   UNL     1       5.677   5.069  15.693  0.00  0.00    +0.000 A 
ENDBRANCH   1  14
BRANCH   3  15
ATOM     15  C   UNL     1       2.605   4.100  19.409  0.00  0.00    +0.000 A 
ATOM     16  C   UNL     1       3.334   3.570  20.482  0.00  0.00    +0.000 A 
ATOM     17  C   UNL     1       2.690   2.843  21.487  0.00  0.00    +0.000 A 
ATOM     18  C   UNL     1       1.313   2.639  21.426  0.00  0.00    +0.000 A 
ATOM     19  C   UNL     1       0.580   3.147  20.355  0.00  0.00    +0.000 A 
ATOM     20  C   UNL     1       1.226   3.863  19.344  0.00  0.00    +0.000 A 
ENDBRANCH   3  15
BRANCH   4  21
ATOM     21  C   UNL     1       2.411   7.323  18.692  0.00  0.00    +0.000 A 
ATOM     22  C   UNL     1       2.097   7.319  20.058  0.00  0.00    +0.000 A 
ATOM     23  C   UNL     1       1.355   8.355  20.632  0.00  0.00    +0.000 A 
ATOM     24  C   UNL     1       0.945   9.431  19.851  0.00  0.00    +0.000 A 
ATOM     25  C   UNL     1       1.269   9.466  18.498  0.00  0.00    +0.000 A 
ATOM     26  C   UNL     1       1.992   8.417  17.919  0.00  0.00    +0.000 A 
ENDBRANCH   4  21
TORSDOF 3
ENDMDL
MODEL 2
REMARK VINA RESULT:      -7.7      0.346      3.895
REMARK  Name = 
REMARK  3 active torsions:
REMARK  status: ('A' for Active; 'I' for Inactive)
REMARK    1  A    between atoms: C_8  and  C_9
REMARK    2  A    between atoms: C_11  and  C_12
REMARK    3  A    between atoms: C_18  and  C_19
REMARK                            x       y       z     vdW  Elec       q    Type
REMARK                         _______ _______ _______ _____ _____    ______ ____
ROOT
ATOM      1  C   UNL     1       4.667   5.544  16.845  0.00  0.00    +0.000 A 
ATOM      2  N   UNL     1       4.066   6.689  17.095  0.00  0.00    +0.000 NA
ATOM      3  C   UNL     1       3.205   6.465  18.147  0.00  0.00    +0.000 A 
ATOM      4  C   UNL     1       3.242   5.133  18.544  0.00  0.00    +0.000 A 
ATOM      5  N   UNL     1       4.215   4.592  17.730  0.00  0.00    +0.000 N 
ATOM      6  H   UNL     1       4.530   3.633  17.749  0.00  0.00    +0.000 HD
ENDROOT
BRANCH   1  14
ATOM      7  F   UNL     1       4.115   3.922  14.617  0.00  0.00    +0.000 F 
ATOM      8  C   UNL     1       5.346   4.450  14.722  0.00  0.00    +0.000 A 
ATOM      9  C   UNL     1       6.266   4.143  13.717  0.00  0.00    +0.000 A 
ATOM     10  C   UNL     1       7.551   4.672  13.770  0.00  0.00    +0.000 A 
ATOM     11  C   UNL     1       7.897   5.509  14.829  0.00  0.00    +0.000 A 
ATOM     12  C   UNL     1       6.972   5.813  15.840  0.00  0.00    +0.000 A 
ATOM     13 CL   UNL     1       7.515   6.913  17.065  0.00  0.00    +0.000 Cl
ATOM     14  C   UNL     1       5.671   5.281  15.808  0.00  0.00    +0.000 A 
ENDBRANCH   1  14
BRANCH   3  15
ATOM     15  C   UNL     1       2.384   7.535  18.691  0.00  0.00    +0.000 A 
ATOM     16  C   UNL     1       1.948   8.564  17.846  0.00  0.00    +0.000 A 
ATOM     17  C   UNL     1       1.146   9.596  18.341  0.00  0.00    +0.000 A 
ATOM     18  C   UNL     1       0.777   9.609  19.684  0.00  0.00    +0.000 A 
ATOM     19  C   UNL     1       1.219   8.600  20.538  0.00  0.00    +0.000 A 
ATOM     20  C   UNL     1       2.030   7.574  20.046  0.00  0.00    +0.000 A 
ENDBRANCH   3  15
BRANCH   4  21
ATOM     21  C   UNL     1       2.490   4.333  19.513  0.00  0.00    +0.000 A 
ATOM     22  C   UNL     1       2.928   4.217  20.840  0.00  0.00    +0.000 A 
ATOM     23  C   UNL     1       2.234   3.433  21.765  0.00  0.00    +0.000 A 
ATOM     24  C   UNL     1       1.066   2.781  21.383  0.00  0.00    +0.000 A 
ATOM     25  C   UNL     1       0.600   2.904  20.077  0.00  0.00    +0.000 A 
ATOM     26  C   UNL     1       1.309   3.669  19.145  0.00  0.00    +0.000 A 
ENDBRANCH   4  21
TORSDOF 3
ENDMDL
MODEL 3
REMARK VINA RESULT:      -7.7      2.902      6.486
REMARK  Name = 
REMARK  3 active torsions:
REMARK  status: ('A' for Active; 'I' for Inactive)
REMARK    1  A    between atoms: C_8  and  C_9
REMARK    2  A    between atoms: C_11  and  C_12
REMARK    3  A    between atoms: C_18  and  C_19
REMARK                            x       y       z     vdW  Elec       q    Type
REMARK                         _______ _______ _______ _____ _____    ______ ____
ROOT
ATOM      1  C   UNL     1       1.461   8.298  19.694  0.00  0.00    +0.000 A 
ATOM      2  N   UNL     1       1.152   7.180  20.315  0.00  0.00    +0.000 NA
ATOM      3  C   UNL     1       1.931   6.188  19.760  0.00  0.00    +0.000 A 
ATOM      4  C   UNL     1       2.724   6.694  18.736  0.00  0.00    +0.000 A 
ATOM      5  N   UNL     1       2.436   8.043  18.757  0.00  0.00    +0.000 N 
ATOM      6  H   UNL     1       2.847   8.741  18.154  0.00  0.00    +0.000 HD
ENDROOT
BRANCH   1  14
ATOM      7  F   UNL     1       0.354   9.840  17.620  0.00  0.00    +0.000 F 
ATOM      8  C   UNL     1       0.364  10.364  18.858  0.00  0.00    +0.000 A 
ATOM      9  C   UNL     1      -0.170  11.644  19.019  0.00  0.00    +0.000 A 
ATOM     10  C   UNL     1      -0.194  12.229  20.281  0.00  0.00    +0.000 A 
ATOM     11  C   UNL     1       0.311  11.518  21.369  0.00  0.00    +0.000 A 
ATOM     12  C   UNL     1       0.850  10.233  21.202  0.00  0.00    +0.000 A 
ATOM     13 CL   UNL     1       1.389   9.440  22.647  0.00  0.00    +0.000 Cl
ATOM     14  C   UNL     1       0.892   9.629  19.934  0.00  0.00    +0.000 A 
ENDBRANCH   1  14
BRANCH   3  15
ATOM     15  C   UNL     1       1.849   4.814  20.227  0.00  0.00    +0.000 A 
ATOM     16  C   UNL     1       1.067   3.892  19.519  0.00  0.00    +0.000 A 
ATOM     17  C   UNL     1       0.984   2.562  19.940  0.00  0.00    +0.000 A 
ATOM     18  C   UNL     1       1.678   2.144  21.074  0.00  0.00    +0.000 A 
ATOM     19  C   UNL     1       2.445   3.056  21.796  0.00  0.00    +0.000 A 
ATOM     20  C   UNL     1       2.519   4.389  21.382  0.00  0.00    +0.000 A 
ENDBRANCH   3  15
BRANCH   4  21
ATOM     21  C   UNL     1       3.642   6.098  17.762  0.00  0.00    +0.000 A 
ATOM     22  C   UNL     1       3.637   4.716  17.527  0.00  0.00    +0.000 A 
ATOM     23  C   UNL     1       4.528   4.134  16.621  0.00  0.00    +0.000 A 
ATOM     24  C   UNL     1       5.415   4.935  15.909  0.00  0.00    +0.000 A 
ATOM     25  C   UNL     1       5.417   6.313  16.109  0.00  0.00    +0.000 A 
ATOM     26  C   UNL     1       4.541   6.891  17.034  0.00  0.00    +0.000 A 
ENDBRANCH   4  21
TORSDOF 3
ENDMDL
MODEL 4
REMARK VINA RESULT:      -7.6      3.387      6.959
REMARK  Name = 
REMARK  3 active torsions:
REMARK  status: ('A' for Active; 'I' for Inactive)
REMARK    1  A    between atoms: C_8  and  C_9
REMARK    2  A    between atoms: C_11  and  C_12
REMARK    3  A    between atoms: C_18  and  C_19
REMARK                            x       y       z     vdW  Elec       q    Type
REMARK                         _______ _______ _______ _____ _____    ______ ____
ROOT
ATOM      1  C   UNL     1       1.138   8.214  20.278  0.00  0.00    +0.000 A 
ATOM      2  N   UNL     1       0.862   6.987  20.668  0.00  0.00    +0.000 NA
ATOM      3  C   UNL     1       1.802   6.163  20.087  0.00  0.00    +0.000 A 
ATOM      4  C   UNL     1       2.669   6.892  19.281  0.00  0.00    +0.000 A 
ATOM      5  N   UNL     1       2.249   8.192  19.466  0.00  0.00    +0.000 N 
ATOM      6  H   UNL     1       2.666   9.010  19.045  0.00  0.00    +0.000 HD
ENDROOT
BRANCH   1  14
ATOM      7  F   UNL     1       1.032   9.166  22.921  0.00  0.00    +0.000 F 
ATOM      8  C   UNL     1       0.380   9.862  21.974  0.00  0.00    +0.000 A 
ATOM      9  C   UNL     1      -0.313  11.004  22.379  0.00  0.00    +0.000 A 
ATOM     10  C   UNL     1      -0.996  11.768  21.438  0.00  0.00    +0.000 A 
ATOM     11  C   UNL     1      -0.971  11.379  20.099  0.00  0.00    +0.000 A 
ATOM     12  C   UNL     1      -0.276  10.227  19.697  0.00  0.00    +0.000 A 
ATOM     13 CL   UNL     1      -0.277   9.892  17.996  0.00  0.00    +0.000 Cl
ATOM     14  C   UNL     1       0.413   9.438  20.634  0.00  0.00    +0.000 A 
ENDBRANCH   1  14
BRANCH   3  15
ATOM     15  C   UNL     1       1.795   4.729  20.321  0.00  0.00    +0.000 A 
ATOM     16  C   UNL     1       1.284   3.873  19.336  0.00  0.00    +0.000 A 
ATOM     17  C   UNL     1       1.280   2.489  19.531  0.00  0.00    +0.000 A 
ATOM     18  C   UNL     1       1.782   1.950  20.713  0.00  0.00    +0.000 A 
ATOM     19  C   UNL     1       2.277   2.792  21.708  0.00  0.00    +0.000 A 
ATOM     20  C   UNL     1       2.271   4.176  21.518  0.00  0.00    +0.000 A 
ENDBRANCH   3  15
BRANCH   4  21
ATOM     21  C   UNL     1       3.763   6.537  18.373  0.00  0.00    +0.000 A 
ATOM     22  C   UNL     1       3.876   7.150  17.116  0.00  0.00    +0.000 A 
ATOM     23  C   UNL     1       4.899   6.798  16.231  0.00  0.00    +0.000 A 
ATOM     24  C   UNL     1       5.847   5.852  16.607  0.00  0.00    +0.000 A 
ATOM     25  C   UNL     1       5.767   5.252  17.860  0.00  0.00    +0.000 A 
ATOM     26  C   UNL     1       4.728   5.586  18.736  0.00  0.00    +0.000 A 
ENDBRANCH   4  21
TORSDOF 3
ENDMDL
MODEL 5
REMARK VINA RESULT:      -7.5      2.904      6.429
REMARK  Name = 
REMARK  3 active torsions:
REMARK  status: ('A' for Active; 'I' for Inactive)
REMARK    1  A    between atoms: C_8  and  C_9
REMARK    2  A    between atoms: C_11  and  C_12
REMARK    3  A    between atoms: C_18  and  C_19
REMARK                            x       y       z     vdW  Elec       q    Type
REMARK                         _______ _______ _______ _____ _____    ______ ____
ROOT
ATOM      1  C   UNL     1       1.617   8.166  19.658  0.00  0.00    +0.000 A 
ATOM      2  N   UNL     1       1.247   6.996  20.135  0.00  0.00    +0.000 NA
ATOM      3  C   UNL     1       2.160   6.072  19.675  0.00  0.00    +0.000 A 
ATOM      4  C   UNL     1       3.108   6.676  18.856  0.00  0.00    +0.000 A 
ATOM      5  N   UNL     1       2.761   8.010  18.910  0.00  0.00    +0.000 N 
ATOM      6  H   UNL     1       3.247   8.762  18.443  0.00  0.00    +0.000 HD
ENDROOT
BRANCH   1  14
ATOM      7  F   UNL     1       0.486   9.627  17.539  0.00  0.00    +0.000 F 
ATOM      8  C   UNL     1       0.418  10.153  18.774  0.00  0.00    +0.000 A 
ATOM      9  C   UNL     1      -0.203  11.396  18.910  0.00  0.00    +0.000 A 
ATOM     10  C   UNL     1      -0.311  11.981  20.167  0.00  0.00    +0.000 A 
ATOM     11  C   UNL     1       0.201  11.309  21.276  0.00  0.00    +0.000 A 
ATOM     12  C   UNL     1       0.828  10.061  21.135  0.00  0.00    +0.000 A 
ATOM     13 CL   UNL     1       1.366   9.308  22.601  0.00  0.00    +0.000 Cl
ATOM     14  C   UNL     1       0.954   9.457  19.872  0.00  0.00    +0.000 A 
ENDBRANCH   1  14
BRANCH   3  15
ATOM     15  C   UNL     1       2.053   4.666  20.028  0.00  0.00    +0.000 A 
ATOM     16  C   UNL     1       2.335   4.262  21.339  0.00  0.00    +0.000 A 
ATOM     17  C   UNL     1       2.226   2.918  21.707  0.00  0.00    +0.000 A 
ATOM     18  C   UNL     1       1.836   1.967  20.767  0.00  0.00    +0.000 A 
ATOM     19  C   UNL     1       1.569   2.355  19.454  0.00  0.00    +0.000 A 
ATOM     20  C   UNL     1       1.690   3.696  19.083  0.00  0.00    +0.000 A 
ENDBRANCH   3  15
BRANCH   4  21
ATOM     21  C   UNL     1       4.218   6.181  18.039  0.00  0.00    +0.000 A 
ATOM     22  C   UNL     1       4.389   6.624  16.719  0.00  0.00    +0.000 A 
ATOM     23  C   UNL     1       5.427   6.137  15.922  0.00  0.00    +0.000 A 
ATOM     24  C   UNL     1       6.335   5.223  16.448  0.00  0.00    +0.000 A 
ATOM     25  C   UNL     1       6.199   4.791  17.764  0.00  0.00    +0.000 A 
ATOM     26  C   UNL     1       5.144   5.261  18.554  0.00  0.00    +0.000 A 
ENDBRANCH   4  21
TORSDOF 3
ENDMDL
MODEL 6
REMARK VINA RESULT:      -7.5      3.427      6.895
REMARK  Name = 
REMARK  3 active torsions:
REMARK  status: ('A' for Active; 'I' for Inactive)
REMARK    1  A    between atoms: C_8  and  C_9
REMARK    2  A    between atoms: C_11  and  C_12
REMARK    3  A    between atoms: C_18  and  C_19
REMARK                            x       y       z     vdW  Elec       q    Type
REMARK                         _______ _______ _______ _____ _____    ______ ____
ROOT
ATOM      1  C   UNL     1       1.080   8.247  20.375  0.00  0.00    +0.000 A 
ATOM      2  N   UNL     1       0.811   7.019  20.765  0.00  0.00    +0.000 NA
ATOM      3  C   UNL     1       1.741   6.198  20.165  0.00  0.00    +0.000 A 
ATOM      4  C   UNL     1       2.594   6.929  19.347  0.00  0.00    +0.000 A 
ATOM      5  N   UNL     1       2.176   8.229  19.544  0.00  0.00    +0.000 N 
ATOM      6  H   UNL     1       2.585   9.048  19.118  0.00  0.00    +0.000 HD
ENDROOT
BRANCH   1  14
ATOM      7  F   UNL     1       0.906   9.117  23.042  0.00  0.00    +0.000 F 
ATOM      8  C   UNL     1       0.292   9.851  22.099  0.00  0.00    +0.000 A 
ATOM      9  C   UNL     1      -0.398  10.990  22.519  0.00  0.00    +0.000 A 
ATOM     10  C   UNL     1      -1.043  11.792  21.583  0.00  0.00    +0.000 A 
ATOM     11  C   UNL     1      -0.982  11.445  20.234  0.00  0.00    +0.000 A 
ATOM     12  C   UNL     1      -0.290  10.297  19.816  0.00  0.00    +0.000 A 
ATOM     13 CL   UNL     1      -0.244  10.015  18.106  0.00  0.00    +0.000 Cl
ATOM     14  C   UNL     1       0.360   9.469  20.748  0.00  0.00    +0.000 A 
ENDBRANCH   1  14
BRANCH   3  15
ATOM     15  C   UNL     1       1.739   4.762  20.395  0.00  0.00    +0.000 A 
ATOM     16  C   UNL     1       2.339   4.250  21.553  0.00  0.00    +0.000 A 
ATOM     17  C   UNL     1       2.338   2.875  21.803  0.00  0.00    +0.000 A 
ATOM     18  C   UNL     1       1.741   2.001  20.896  0.00  0.00    +0.000 A 
ATOM     19  C   UNL     1       1.157   2.498  19.732  0.00  0.00    +0.000 A 
ATOM     20  C   UNL     1       1.168   3.871  19.476  0.00  0.00    +0.000 A 
ENDBRANCH   3  15
BRANCH   4  21
ATOM     21  C   UNL     1       3.672   6.579  18.418  0.00  0.00    +0.000 A 
ATOM     22  C   UNL     1       4.580   5.557  18.729  0.00  0.00    +0.000 A 
ATOM     23  C   UNL     1       5.628   5.235  17.863  0.00  0.00    +0.000 A 
ATOM     24  C   UNL     1       5.761   5.908  16.653  0.00  0.00    +0.000 A 
ATOM     25  C   UNL     1       4.854   6.909  16.314  0.00  0.00    +0.000 A 
ATOM     26  C   UNL     1       3.819   7.247  17.193  0.00  0.00    +0.000 A 
ENDBRANCH   4  21
TORSDOF 3
ENDMDL
MODEL 7
REMARK VINA RESULT:      -7.5      2.785      6.433
REMARK  Name = 
REMARK  3 active torsions:
REMARK  status: ('A' for Active; 'I' for Inactive)
REMARK    1  A    between atoms: C_8  and  C_9
REMARK    2  A    between atoms: C_11  and  C_12
REMARK    3  A    between atoms: C_18  and  C_19
REMARK                            x       y       z     vdW  Elec       q    Type
REMARK                         _______ _______ _______ _____ _____    ______ ____
ROOT
ATOM      1  C   UNL     1       1.647   8.133  19.607  0.00  0.00    +0.000 A 
ATOM      2  N   UNL     1       1.469   7.024  20.293  0.00  0.00    +0.000 NA
ATOM      3  C   UNL     1       2.296   6.073  19.735  0.00  0.00    +0.000 A 
ATOM      4  C   UNL     1       2.984   6.593  18.645  0.00  0.00    +0.000 A 
ATOM      5  N   UNL     1       2.585   7.913  18.625  0.00  0.00    +0.000 N 
ATOM      6  H   UNL     1       2.902   8.612  17.969  0.00  0.00    +0.000 HD
ENDROOT
BRANCH   1  14
ATOM      7  F   UNL     1       0.397   9.533  17.514  0.00  0.00    +0.000 F 
ATOM      8  C   UNL     1       0.385  10.088  18.738  0.00  0.00    +0.000 A 
ATOM      9  C   UNL     1      -0.241  11.328  18.876  0.00  0.00    +0.000 A 
ATOM     10  C   UNL     1      -0.292  11.941  20.123  0.00  0.00    +0.000 A 
ATOM     11  C   UNL     1       0.281  11.300  21.220  0.00  0.00    +0.000 A 
ATOM     12  C   UNL     1       0.913  10.054  21.077  0.00  0.00    +0.000 A 
ATOM     13 CL   UNL     1       1.530   9.342  22.531  0.00  0.00    +0.000 Cl
ATOM     14  C   UNL     1       0.982   9.422  19.824  0.00  0.00    +0.000 A 
ENDBRANCH   1  14
BRANCH   3  15
ATOM     15  C   UNL     1       2.356   4.721  20.266  0.00  0.00    +0.000 A 
ATOM     16  C   UNL     1       1.186   4.118  20.746  0.00  0.00    +0.000 A 
ATOM     17  C   UNL     1       1.215   2.814  21.248  0.00  0.00    +0.000 A 
ATOM     18  C   UNL     1       2.414   2.104  21.276  0.00  0.00    +0.000 A 
ATOM     19  C   UNL     1       3.587   2.700  20.817  0.00  0.00    +0.000 A 
ATOM     20  C   UNL     1       3.561   4.007  20.326  0.00  0.00    +0.000 A 
ENDBRANCH   3  15
BRANCH   4  21
ATOM     21  C   UNL     1       3.893   6.028  17.644  0.00  0.00    +0.000 A 
ATOM     22  C   UNL     1       4.961   6.783  17.140  0.00  0.00    +0.000 A 
ATOM     23  C   UNL     1       5.816   6.264  16.165  0.00  0.00    +0.000 A 
ATOM     24  C   UNL     1       5.636   4.963  15.705  0.00  0.00    +0.000 A 
ATOM     25  C   UNL     1       4.597   4.187  16.213  0.00  0.00    +0.000 A 
ATOM     26  C   UNL     1       3.726   4.717  17.171  0.00  0.00    +0.000 A 
ENDBRANCH   4  21
TORSDOF 3
ENDMDL
MODEL 8
REMARK VINA RESULT:      -7.4      2.910      6.946
REMARK  Name = 
REMARK  3 active torsions:
REMARK  status: ('A' for Active; 'I' for Inactive)
REMARK    1  A    between atoms: C_8  and  C_9
REMARK    2  A    between atoms: C_11  and  C_12
REMARK    3  A    between atoms: C_18  and  C_19
REMARK                            x       y       z     vdW  Elec       q    Type
REMARK                         _______ _______ _______ _____ _____    ______ ____
ROOT
ATOM      1  C   UNL     1       1.665   8.234  19.487  0.00  0.00    +0.000 A 
ATOM      2  N   UNL     1       2.751   8.093  18.756  0.00  0.00    +0.000 NA
ATOM      3  C   UNL     1       3.062   6.751  18.760  0.00  0.00    +0.000 A 
ATOM      4  C   UNL     1       2.165   6.036  19.546  0.00  0.00    +0.000 A 
ATOM      5  N   UNL     1       1.266   7.001  19.949  0.00  0.00    +0.000 N 
ATOM      6  H   UNL     1       0.454   6.841  20.527  0.00  0.00    +0.000 HD
ENDROOT
BRANCH   1  14
ATOM      7  F   UNL     1       0.342   9.699  17.485  0.00  0.00    +0.000 F 
ATOM      8  C   UNL     1       0.321  10.184  18.738  0.00  0.00    +0.000 A 
ATOM      9  C   UNL     1      -0.351  11.389  18.951  0.00  0.00    +0.000 A 
ATOM     10  C   UNL     1      -0.413  11.930  20.231  0.00  0.00    +0.000 A 
ATOM     11  C   UNL     1       0.195  11.250  21.285  0.00  0.00    +0.000 A 
ATOM     12  C   UNL     1       0.873  10.041  21.068  0.00  0.00    +0.000 A 
ATOM     13 CL   UNL     1       1.531   9.272  22.475  0.00  0.00    +0.000 Cl
ATOM     14  C   UNL     1       0.954   9.482  19.780  0.00  0.00    +0.000 A 
ENDBRANCH   1  14
BRANCH   3  15
ATOM     15  C   UNL     1       4.212   6.241  18.031  0.00  0.00    +0.000 A 
ATOM     16  C   UNL     1       5.130   5.412  18.688  0.00  0.00    +0.000 A 
ATOM     17  C   UNL     1       6.236   4.897  18.005  0.00  0.00    +0.000 A 
ATOM     18  C   UNL     1       6.433   5.210  16.662  0.00  0.00    +0.000 A 
ATOM     19  C   UNL     1       5.536   6.047  16.002  0.00  0.00    +0.000 A 
ATOM     20  C   UNL     1       4.437   6.572  16.688  0.00  0.00    +0.000 A 
ENDBRANCH   3  15
BRANCH   4  21
ATOM     21  C   UNL     1       2.072   4.639  19.979  0.00  0.00    +0.000 A 
ATOM     22  C   UNL     1       2.282   4.290  21.321  0.00  0.00    +0.000 A 
ATOM     23  C   UNL     1       2.223   2.958  21.739  0.00  0.00    +0.000 A 
ATOM     24  C   UNL     1       1.915   1.957  20.824  0.00  0.00    +0.000 A 
ATOM     25  C   UNL     1       1.677   2.286  19.492  0.00  0.00    +0.000 A 
ATOM     26  C   UNL     1       1.761   3.617  19.070  0.00  0.00    +0.000 A 
ENDBRANCH   4  21
TORSDOF 3
ENDMDL
MODEL 9
REMARK VINA RESULT:      -7.3      2.716      6.802
REMARK  Name = 
REMARK  3 active torsions:
REMARK  status: ('A' for Active; 'I' for Inactive)
REMARK    1  A    between atoms: C_8  and  C_9
REMARK    2  A    between atoms: C_11  and  C_12
REMARK    3  A    between atoms: C_18  and  C_19
REMARK                            x       y       z     vdW  Elec       q    Type
REMARK                         _______ _______ _______ _____ _____    ______ ____
ROOT
ATOM      1  C   UNL     1       2.200   8.108  18.768  0.00  0.00    +0.000 A 
ATOM      2  N   UNL     1       3.383   7.979  18.206  0.00  0.00    +0.000 NA
ATOM      3  C   UNL     1       3.583   6.631  18.004  0.00  0.00    +0.000 A 
ATOM      4  C   UNL     1       2.509   5.892  18.488  0.00  0.00    +0.000 A 
ATOM      5  N   UNL     1       1.631   6.864  18.918  0.00  0.00    +0.000 N 
ATOM      6  H   UNL     1       0.719   6.696  19.319  0.00  0.00    +0.000 HD
ENDROOT
BRANCH   1  14
ATOM      7  F   UNL     1       2.293  10.425  17.180  0.00  0.00    +0.000 F 
ATOM      8  C   UNL     1       1.637  10.491  18.351  0.00  0.00    +0.000 A 
ATOM      9  C   UNL     1       1.059  11.713  18.696  0.00  0.00    +0.000 A 
ATOM     10  C   UNL     1       0.359  11.833  19.892  0.00  0.00    +0.000 A 
ATOM     11  C   UNL     1       0.242  10.722  20.726  0.00  0.00    +0.000 A 
ATOM     12  C   UNL     1       0.829   9.495  20.377  0.00  0.00    +0.000 A 
ATOM     13 CL   UNL     1       0.557   8.181  21.474  0.00  0.00    +0.000 Cl
ATOM     14  C   UNL     1       1.547   9.356  19.177  0.00  0.00    +0.000 A 
ENDBRANCH   1  14
BRANCH   3  15
ATOM     15  C   UNL     1       4.801   6.134  17.384  0.00  0.00    +0.000 A 
ATOM     16  C   UNL     1       5.877   5.749  18.194  0.00  0.00    +0.000 A 
ATOM     17  C   UNL     1       7.053   5.255  17.622  0.00  0.00    +0.000 A 
ATOM     18  C   UNL     1       7.163   5.143  16.238  0.00  0.00    +0.000 A 
ATOM     19  C   UNL     1       6.104   5.539  15.422  0.00  0.00    +0.000 A 
ATOM     20  C   UNL     1       4.933   6.045  15.992  0.00  0.00    +0.000 A 
ENDBRANCH   3  15
BRANCH   4  21
ATOM     21  C   UNL     1       2.232   4.460  18.627  0.00  0.00    +0.000 A 
ATOM     22  C   UNL     1       1.586   3.963  19.768  0.00  0.00    +0.000 A 
ATOM     23  C   UNL     1       1.343   2.597  19.923  0.00  0.00    +0.000 A 
ATOM     24  C   UNL     1       1.711   1.708  18.919  0.00  0.00    +0.000 A 
ATOM     25  C   UNL     1       2.330   2.183  17.766  0.00  0.00    +0.000 A 
ATOM     26  C   UNL     1       2.596   3.550  17.622  0.00  0.00    +0.000 A 
ENDBRANCH   4  21
TORSDOF 3
ENDMDL
