MODEL 1
REMARK VINA RESULT:      -5.7      0.000      0.000
REMARK  Name = 
REMARK  10 active torsions:
REMARK  status: ('A' for Active; 'I' for Inactive)
REMARK    1  A    between atoms: C_1  and  O_2
REMARK    2  A    between atoms: O_2  and  C_3
REMARK    3  A    between atoms: C_3  and  C_4
REMARK    4  A    between atoms: N_6  and  C_7
REMARK    5  A    between atoms: C_7  and  C_8
REMARK    6  A    between atoms: C_7  and  C_14
REMARK    7  A    between atoms: C_8  and  N_9
REMARK    8  A    between atoms: C_14  and  P_15
REMARK    9  A    between atoms: P_15  and  O_17
REMARK   10  A    between atoms: P_15  and  O_18
REMARK                            x       y       z     vdW  Elec       q    Type
REMARK                         _______ _______ _______ _____ _____    ______ ____
ROOT
ATOM      1  C   UNL     1       3.961   5.766  17.615  0.00  0.00    +0.000 C 
ENDROOT
BRANCH   1   4
ATOM      2  C   UNL     1       5.151   5.564  15.430  0.00  0.00    +0.000 C 
ATOM      3  O   UNL     1       5.278   6.781  15.316  0.00  0.00    +0.000 OA
ATOM      4  N   UNL     1       4.524   4.987  16.513  0.00  0.00    +0.000 N 
ATOM      5  H   UNL     1       4.470   3.967  16.538  0.00  0.00    +0.000 HD
BRANCH   2   6
ATOM      6  C   UNL     1       5.722   4.571  14.418  0.00  0.00    +0.000 C 
BRANCH   6   8
ATOM      7  C   UNL     1       7.639   5.084  13.158  0.00  0.00    +0.000 C 
ATOM      8  O   UNL     1       7.145   4.612  14.406  0.00  0.00    +0.000 OA
ENDBRANCH   6   8
ENDBRANCH   2   6
ENDBRANCH   1   4
BRANCH   1   9
ATOM      9  C   UNL     1       2.525   5.318  17.972  0.00  0.00    +0.000 C 
BRANCH   9  10
ATOM     10  N   UNL     1       2.435   3.982  18.518  0.00  0.00    +0.000 N 
ATOM     11  C   UNL     1       1.930   3.601  19.722  0.00  0.00    +0.000 A 
ATOM     12  N   UNL     1       2.034   2.297  19.848  0.00  0.00    +0.000 NA
ATOM     13  C   UNL     1       2.635   1.924  18.682  0.00  0.00    +0.000 A 
ATOM     14  N   UNL     1       2.935   2.925  17.849  0.00  0.00    +0.000 NA
ENDBRANCH   9  10
ENDBRANCH   1   9
BRANCH   1  15
ATOM     15  C   UNL     1       4.879   5.798  18.847  0.00  0.00    +0.000 C 
BRANCH  15  16
ATOM     16  P   UNL     1       6.498   4.997  18.556  0.00  0.00    +0.000 P 
ATOM     17  O   UNL     1       6.987   5.398  19.948  0.00  0.00    +0.000 OA
BRANCH  16  18
ATOM     18  O   UNL     1       5.849   3.508  18.782  0.00  0.00    +0.000 OA
ATOM     19  H   UNL     1       5.455   3.189  17.942  0.00  0.00    +0.000 HD
ENDBRANCH  16  18
BRANCH  16  20
ATOM     20  O   UNL     1       8.029   4.239  18.281  0.00  0.00    +0.000 OA
ATOM     21  H   UNL     1       8.026   3.443  18.851  0.00  0.00    +0.000 HD
ENDBRANCH  16  20
ENDBRANCH  15  16
ENDBRANCH   1  15
TORSDOF 9
ENDMDL
MODEL 2
REMARK VINA RESULT:      -5.6      3.621      5.894
REMARK  Name = 
REMARK  10 active torsions:
REMARK  status: ('A' for Active; 'I' for Inactive)
REMARK    1  A    between atoms: C_1  and  O_2
REMARK    2  A    between atoms: O_2  and  C_3
REMARK    3  A    between atoms: C_3  and  C_4
REMARK    4  A    between atoms: N_6  and  C_7
REMARK    5  A    between atoms: C_7  and  C_8
REMARK    6  A    between atoms: C_7  and  C_14
REMARK    7  A    between atoms: C_8  and  N_9
REMARK    8  A    between atoms: C_14  and  P_15
REMARK    9  A    between atoms: P_15  and  O_17
REMARK   10  A    between atoms: P_15  and  O_18
REMARK                            x       y       z     vdW  Elec       q    Type
REMARK                         _______ _______ _______ _____ _____    ______ ____
ROOT
ATOM      1  C   UNL     1       3.828   4.699  19.329  0.00  0.00    +0.000 C 
ENDROOT
BRANCH   1   4
ATOM      2  C   UNL     1       2.521   6.814  19.100  0.00  0.00    +0.000 C 
ATOM      3  O   UNL     1       2.329   6.638  17.899  0.00  0.00    +0.000 OA
ATOM      4  N   UNL     1       3.238   5.923  19.869  0.00  0.00    +0.000 N 
ATOM      5  H   UNL     1       3.342   6.136  20.863  0.00  0.00    +0.000 HD
BRANCH   2   6
ATOM      6  C   UNL     1       1.940   8.000  19.869  0.00  0.00    +0.000 C 
BRANCH   6   8
ATOM      7  C   UNL     1       0.390   8.565  21.543  0.00  0.00    +0.000 C 
ATOM      8  O   UNL     1       1.281   7.569  21.055  0.00  0.00    +0.000 OA
ENDBRANCH   6   8
ENDBRANCH   2   6
ENDBRANCH   1   4
BRANCH   1   9
ATOM      9  C   UNL     1       5.373   4.739  19.344  0.00  0.00    +0.000 C 
BRANCH   9  10
ATOM     10  N   UNL     1       5.988   4.569  18.046  0.00  0.00    +0.000 N 
ATOM     11  C   UNL     1       7.290   4.759  17.704  0.00  0.00    +0.000 A 
ATOM     12  N   UNL     1       7.449   4.504  16.424  0.00  0.00    +0.000 NA
ATOM     13  C   UNL     1       6.189   4.174  16.020  0.00  0.00    +0.000 A 
ATOM     14  N   UNL     1       5.251   4.234  16.969  0.00  0.00    +0.000 NA
ENDBRANCH   9  10
ENDBRANCH   1   9
BRANCH   1  15
ATOM     15  C   UNL     1       3.277   3.431  19.999  0.00  0.00    +0.000 C 
BRANCH  15  16
ATOM     16  P   UNL     1       1.745   2.811  19.212  0.00  0.00    +0.000 P 
ATOM     17  O   UNL     1       0.896   3.819  19.987  0.00  0.00    +0.000 OA
BRANCH  16  18
ATOM     18  O   UNL     1       2.100   3.588  17.813  0.00  0.00    +0.000 OA
ATOM     19  H   UNL     1       1.269   3.868  17.372  0.00  0.00    +0.000 HD
ENDBRANCH  16  18
BRANCH  16  20
ATOM     20  O   UNL     1       0.297   2.224  18.468  0.00  0.00    +0.000 OA
ATOM     21  H   UNL     1      -0.410   2.382  19.127  0.00  0.00    +0.000 HD
ENDBRANCH  16  20
ENDBRANCH  15  16
ENDBRANCH   1  15
TORSDOF 9
ENDMDL
MODEL 3
REMARK VINA RESULT:      -5.6      2.210      3.663
REMARK  Name = 
REMARK  10 active torsions:
REMARK  status: ('A' for Active; 'I' for Inactive)
REMARK    1  A    between atoms: C_1  and  O_2
REMARK    2  A    between atoms: O_2  and  C_3
REMARK    3  A    between atoms: C_3  and  C_4
REMARK    4  A    between atoms: N_6  and  C_7
REMARK    5  A    between atoms: C_7  and  C_8
REMARK    6  A    between atoms: C_7  and  C_14
REMARK    7  A    between atoms: C_8  and  N_9
REMARK    8  A    between atoms: C_14  and  P_15
REMARK    9  A    between atoms: P_15  and  O_17
REMARK   10  A    between atoms: P_15  and  O_18
REMARK                            x       y       z     vdW  Elec       q    Type
REMARK                         _______ _______ _______ _____ _____    ______ ____
ROOT
ATOM      1  C   UNL     1       5.233   4.767  17.508  0.00  0.00    +0.000 C 
ENDROOT
BRANCH   1   4
ATOM      2  C   UNL     1       7.037   5.909  18.800  0.00  0.00    +0.000 C 
ATOM      3  O   UNL     1       6.914   5.151  19.760  0.00  0.00    +0.000 OA
ATOM      4  N   UNL     1       6.261   5.793  17.667  0.00  0.00    +0.000 N 
ATOM      5  H   UNL     1       6.435   6.455  16.908  0.00  0.00    +0.000 HD
BRANCH   2   6
ATOM      6  C   UNL     1       8.095   7.010  18.742  0.00  0.00    +0.000 C 
BRANCH   6   8
ATOM      7  C   UNL     1       8.256   9.235  18.001  0.00  0.00    +0.000 C 
ATOM      8  O   UNL     1       7.834   7.916  17.675  0.00  0.00    +0.000 OA
ENDBRANCH   6   8
ENDBRANCH   2   6
ENDBRANCH   1   4
BRANCH   1   9
ATOM      9  C   UNL     1       3.806   5.341  17.665  0.00  0.00    +0.000 C 
BRANCH   9  10
ATOM     10  N   UNL     1       2.965   4.607  18.584  0.00  0.00    +0.000 N 
ATOM     11  C   UNL     1       3.308   4.063  19.783  0.00  0.00    +0.000 A 
ATOM     12  N   UNL     1       2.260   3.472  20.312  0.00  0.00    +0.000 NA
ATOM     13  C   UNL     1       1.291   3.670  19.373  0.00  0.00    +0.000 A 
ATOM     14  N   UNL     1       1.682   4.329  18.279  0.00  0.00    +0.000 NA
ENDBRANCH   9  10
ENDBRANCH   1   9
BRANCH   1  15
ATOM     15  C   UNL     1       5.392   3.966  16.205  0.00  0.00    +0.000 C 
BRANCH  15  16
ATOM     16  P   UNL     1       6.584   4.722  15.040  0.00  0.00    +0.000 P 
ATOM     17  O   UNL     1       7.765   4.270  15.900  0.00  0.00    +0.000 OA
BRANCH  16  18
ATOM     18  O   UNL     1       6.383   3.493  13.972  0.00  0.00    +0.000 OA
ATOM     19  H   UNL     1       5.500   3.087  14.100  0.00  0.00    +0.000 HD
ENDBRANCH  16  18
BRANCH  16  20
ATOM     20  O   UNL     1       7.712   5.436  13.939  0.00  0.00    +0.000 OA
ATOM     21  H   UNL     1       7.286   5.369  13.059  0.00  0.00    +0.000 HD
ENDBRANCH  16  20
ENDBRANCH  15  16
ENDBRANCH   1  15
TORSDOF 9
ENDMDL
MODEL 4
REMARK VINA RESULT:      -5.6      2.100      3.834
REMARK  Name = 
REMARK  10 active torsions:
REMARK  status: ('A' for Active; 'I' for Inactive)
REMARK    1  A    between atoms: C_1  and  O_2
REMARK    2  A    between atoms: O_2  and  C_3
REMARK    3  A    between atoms: C_3  and  C_4
REMARK    4  A    between atoms: N_6  and  C_7
REMARK    5  A    between atoms: C_7  and  C_8
REMARK    6  A    between atoms: C_7  and  C_14
REMARK    7  A    between atoms: C_8  and  N_9
REMARK    8  A    between atoms: C_14  and  P_15
REMARK    9  A    between atoms: P_15  and  O_17
REMARK   10  A    between atoms: P_15  and  O_18
REMARK                            x       y       z     vdW  Elec       q    Type
REMARK                         _______ _______ _______ _____ _____    ______ ____
ROOT
ATOM      1  C   UNL     1       4.228   4.123  17.339  0.00  0.00    +0.000 C 
ENDROOT
BRANCH   1   4
ATOM      2  C   UNL     1       3.420   5.967  18.815  0.00  0.00    +0.000 C 
ATOM      3  O   UNL     1       4.163   5.638  19.736  0.00  0.00    +0.000 OA
ATOM      4  N   UNL     1       3.387   5.286  17.617  0.00  0.00    +0.000 N 
ATOM      5  H   UNL     1       2.748   5.630  16.897  0.00  0.00    +0.000 HD
BRANCH   2   6
ATOM      6  C   UNL     1       2.505   7.189  18.882  0.00  0.00    +0.000 C 
BRANCH   6   8
ATOM      7  C   UNL     1       1.864   9.187  17.822  0.00  0.00    +0.000 C 
ATOM      8  O   UNL     1       2.738   8.065  17.784  0.00  0.00    +0.000 OA
ENDBRANCH   6   8
ENDBRANCH   2   6
ENDBRANCH   1   4
BRANCH   1   9
ATOM      9  C   UNL     1       3.431   2.799  17.395  0.00  0.00    +0.000 C 
BRANCH   9  10
ATOM     10  N   UNL     1       2.458   2.732  18.462  0.00  0.00    +0.000 N 
ATOM     11  C   UNL     1       2.664   2.398  19.765  0.00  0.00    +0.000 A 
ATOM     12  N   UNL     1       1.525   2.451  20.416  0.00  0.00    +0.000 NA
ATOM     13  C   UNL     1       0.635   2.811  19.447  0.00  0.00    +0.000 A 
ATOM     14  N   UNL     1       1.152   2.961  18.225  0.00  0.00    +0.000 NA
ENDBRANCH   9  10
ENDBRANCH   1   9
BRANCH   1  15
ATOM     15  C   UNL     1       5.019   4.265  16.029  0.00  0.00    +0.000 C 
BRANCH  15  16
ATOM     16  P   UNL     1       6.411   5.447  16.157  0.00  0.00    +0.000 P 
ATOM     17  O   UNL     1       5.472   6.632  15.928  0.00  0.00    +0.000 OA
BRANCH  16  18
ATOM     18  O   UNL     1       6.452   5.287  17.788  0.00  0.00    +0.000 OA
ATOM     19  H   UNL     1       5.616   5.627  18.173  0.00  0.00    +0.000 HD
ENDBRANCH  16  18
BRANCH  16  20
ATOM     20  O   UNL     1       7.727   6.565  16.277  0.00  0.00    +0.000 OA
ATOM     21  H   UNL     1       8.408   6.100  16.805  0.00  0.00    +0.000 HD
ENDBRANCH  16  20
ENDBRANCH  15  16
ENDBRANCH   1  15
TORSDOF 9
ENDMDL
MODEL 5
REMARK VINA RESULT:      -5.5      1.427      1.805
REMARK  Name = 
REMARK  10 active torsions:
REMARK  status: ('A' for Active; 'I' for Inactive)
REMARK    1  A    between atoms: C_1  and  O_2
REMARK    2  A    between atoms: O_2  and  C_3
REMARK    3  A    between atoms: C_3  and  C_4
REMARK    4  A    between atoms: N_6  and  C_7
REMARK    5  A    between atoms: C_7  and  C_8
REMARK    6  A    between atoms: C_7  and  C_14
REMARK    7  A    between atoms: C_8  and  N_9
REMARK    8  A    between atoms: C_14  and  P_15
REMARK    9  A    between atoms: P_15  and  O_17
REMARK   10  A    between atoms: P_15  and  O_18
REMARK                            x       y       z     vdW  Elec       q    Type
REMARK                         _______ _______ _______ _____ _____    ______ ____
ROOT
ATOM      1  C   UNL     1       4.656   4.985  17.406  0.00  0.00    +0.000 C 
ENDROOT
BRANCH   1   4
ATOM      2  C   UNL     1       5.758   4.831  15.172  0.00  0.00    +0.000 C 
ATOM      3  O   UNL     1       5.988   6.038  15.134  0.00  0.00    +0.000 OA
ATOM      4  N   UNL     1       5.116   4.238  16.237  0.00  0.00    +0.000 N 
ATOM      5  H   UNL     1       4.974   3.226  16.197  0.00  0.00    +0.000 HD
BRANCH   2   6
ATOM      6  C   UNL     1       6.210   3.865  14.078  0.00  0.00    +0.000 C 
BRANCH   6   8
ATOM      7  C   UNL     1       5.712   3.038  11.934  0.00  0.00    +0.000 C 
ATOM      8  O   UNL     1       5.207   3.718  13.077  0.00  0.00    +0.000 OA
ENDBRANCH   6   8
ENDBRANCH   2   6
ENDBRANCH   1   4
BRANCH   1   9
ATOM      9  C   UNL     1       3.119   4.924  17.571  0.00  0.00    +0.000 C 
BRANCH   9  10
ATOM     10  N   UNL     1       2.646   3.795  18.340  0.00  0.00    +0.000 N 
ATOM     11  C   UNL     1       2.561   2.493  17.954  0.00  0.00    +0.000 A 
ATOM     12  N   UNL     1       2.074   1.774  18.939  0.00  0.00    +0.000 NA
ATOM     13  C   UNL     1       1.858   2.701  19.916  0.00  0.00    +0.000 A 
ATOM     14  N   UNL     1       2.158   3.960  19.585  0.00  0.00    +0.000 NA
ENDBRANCH   9  10
ENDBRANCH   1   9
BRANCH   1  15
ATOM     15  C   UNL     1       5.391   4.580  18.694  0.00  0.00    +0.000 C 
BRANCH  15  16
ATOM     16  P   UNL     1       6.927   5.534  18.974  0.00  0.00    +0.000 P 
ATOM     17  O   UNL     1       7.748   4.510  18.190  0.00  0.00    +0.000 OA
BRANCH  16  18
ATOM     18  O   UNL     1       6.495   6.641  17.843  0.00  0.00    +0.000 OA
ATOM     19  H   UNL     1       7.072   7.431  17.919  0.00  0.00    +0.000 HD
ENDBRANCH  16  18
BRANCH  16  20
ATOM     20  O   UNL     1       8.380   6.436  19.239  0.00  0.00    +0.000 OA
ATOM     21  H   UNL     1       9.020   5.789  19.599  0.00  0.00    +0.000 HD
ENDBRANCH  16  20
ENDBRANCH  15  16
ENDBRANCH   1  15
TORSDOF 9
ENDMDL
MODEL 6
REMARK VINA RESULT:      -5.5      2.854      5.202
REMARK  Name = 
REMARK  10 active torsions:
REMARK  status: ('A' for Active; 'I' for Inactive)
REMARK    1  A    between atoms: C_1  and  O_2
REMARK    2  A    between atoms: O_2  and  C_3
REMARK    3  A    between atoms: C_3  and  C_4
REMARK    4  A    between atoms: N_6  and  C_7
REMARK    5  A    between atoms: C_7  and  C_8
REMARK    6  A    between atoms: C_7  and  C_14
REMARK    7  A    between atoms: C_8  and  N_9
REMARK    8  A    between atoms: C_14  and  P_15
REMARK    9  A    between atoms: P_15  and  O_17
REMARK   10  A    between atoms: P_15  and  O_18
REMARK                            x       y       z     vdW  Elec       q    Type
REMARK                         _______ _______ _______ _____ _____    ______ ____
ROOT
ATOM      1  C   UNL     1       3.476   5.545  17.640  0.00  0.00    +0.000 C 
ENDROOT
BRANCH   1   4
ATOM      2  C   UNL     1       1.616   4.176  18.588  0.00  0.00    +0.000 C 
ATOM      3  O   UNL     1       1.288   3.746  17.485  0.00  0.00    +0.000 OA
ATOM      4  N   UNL     1       2.666   5.054  18.753  0.00  0.00    +0.000 N 
ATOM      5  H   UNL     1       2.882   5.355  19.706  0.00  0.00    +0.000 HD
BRANCH   2   6
ATOM      6  C   UNL     1       0.936   3.741  19.886  0.00  0.00    +0.000 C 
BRANCH   6   8
ATOM      7  C   UNL     1       2.141   2.750  21.644  0.00  0.00    +0.000 C 
ATOM      8  O   UNL     1       1.509   2.537  20.387  0.00  0.00    +0.000 OA
ENDBRANCH   6   8
ENDBRANCH   2   6
ENDBRANCH   1   4
BRANCH   1   9
ATOM      9  C   UNL     1       3.780   7.056  17.761  0.00  0.00    +0.000 C 
BRANCH   9  10
ATOM     10  N   UNL     1       2.707   7.837  18.333  0.00  0.00    +0.000 N 
ATOM     11  C   UNL     1       1.973   8.816  17.739  0.00  0.00    +0.000 A 
ATOM     12  N   UNL     1       1.095   9.287  18.596  0.00  0.00    +0.000 NA
ATOM     13  C   UNL     1       1.348   8.562  19.723  0.00  0.00    +0.000 A 
ATOM     14  N   UNL     1       2.351   7.685  19.624  0.00  0.00    +0.000 NA
ENDBRANCH   9  10
ENDBRANCH   1   9
BRANCH   1  15
ATOM     15  C   UNL     1       4.752   4.715  17.425  0.00  0.00    +0.000 C 
BRANCH  15  16
ATOM     16  P   UNL     1       6.006   4.976  18.732  0.00  0.00    +0.000 P 
ATOM     17  O   UNL     1       5.385   3.880  19.598  0.00  0.00    +0.000 OA
BRANCH  16  18
ATOM     18  O   UNL     1       7.145   4.186  17.856  0.00  0.00    +0.000 OA
ATOM     19  H   UNL     1       7.795   3.769  18.460  0.00  0.00    +0.000 HD
ENDBRANCH  16  18
BRANCH  16  20
ATOM     20  O   UNL     1       7.192   5.223  19.968  0.00  0.00    +0.000 OA
ATOM     21  H   UNL     1       7.873   4.538  19.809  0.00  0.00    +0.000 HD
ENDBRANCH  16  20
ENDBRANCH  15  16
ENDBRANCH   1  15
TORSDOF 9
ENDMDL
MODEL 7
REMARK VINA RESULT:      -5.5      2.500      3.770
REMARK  Name = 
REMARK  10 active torsions:
REMARK  status: ('A' for Active; 'I' for Inactive)
REMARK    1  A    between atoms: C_1  and  O_2
REMARK    2  A    between atoms: O_2  and  C_3
REMARK    3  A    between atoms: C_3  and  C_4
REMARK    4  A    between atoms: N_6  and  C_7
REMARK    5  A    between atoms: C_7  and  C_8
REMARK    6  A    between atoms: C_7  and  C_14
REMARK    7  A    between atoms: C_8  and  N_9
REMARK    8  A    between atoms: C_14  and  P_15
REMARK    9  A    between atoms: P_15  and  O_17
REMARK   10  A    between atoms: P_15  and  O_18
REMARK                            x       y       z     vdW  Elec       q    Type
REMARK                         _______ _______ _______ _____ _____    ______ ____
ROOT
ATOM      1  C   UNL     1       5.428   5.203  17.521  0.00  0.00    +0.000 C 
ENDROOT
BRANCH   1   4
ATOM      2  C   UNL     1       7.247   6.844  18.001  0.00  0.00    +0.000 C 
ATOM      3  O   UNL     1       7.770   6.113  18.839  0.00  0.00    +0.000 OA
ATOM      4  N   UNL     1       6.108   6.480  17.315  0.00  0.00    +0.000 N 
ATOM      5  H   UNL     1       5.743   7.141  16.625  0.00  0.00    +0.000 HD
BRANCH   2   6
ATOM      6  C   UNL     1       7.834   8.195  17.596  0.00  0.00    +0.000 C 
BRANCH   6   8
ATOM      7  C   UNL     1       8.916  10.126  18.387  0.00  0.00    +0.000 C 
ATOM      8  O   UNL     1       8.581   8.771  18.662  0.00  0.00    +0.000 OA
ENDBRANCH   6   8
ENDBRANCH   2   6
ENDBRANCH   1   4
BRANCH   1   9
ATOM      9  C   UNL     1       4.003   5.386  18.094  0.00  0.00    +0.000 C 
BRANCH   9  10
ATOM     10  N   UNL     1       3.238   4.164  18.191  0.00  0.00    +0.000 N 
ATOM     11  C   UNL     1       2.025   3.888  17.640  0.00  0.00    +0.000 A 
ATOM     12  N   UNL     1       1.663   2.667  17.965  0.00  0.00    +0.000 NA
ATOM     13  C   UNL     1       2.698   2.238  18.743  0.00  0.00    +0.000 A 
ATOM     14  N   UNL     1       3.671   3.132  18.941  0.00  0.00    +0.000 NA
ENDBRANCH   9  10
ENDBRANCH   1   9
BRANCH   1  15
ATOM     15  C   UNL     1       5.436   4.319  16.264  0.00  0.00    +0.000 C 
BRANCH  15  16
ATOM     16  P   UNL     1       6.641   4.874  15.004  0.00  0.00    +0.000 P 
ATOM     17  O   UNL     1       7.814   4.457  15.891  0.00  0.00    +0.000 OA
BRANCH  16  18
ATOM     18  O   UNL     1       6.353   3.548  14.084  0.00  0.00    +0.000 OA
ATOM     19  H   UNL     1       6.032   2.816  14.652  0.00  0.00    +0.000 HD
ENDBRANCH  16  18
BRANCH  16  20
ATOM     20  O   UNL     1       7.780   5.400  13.812  0.00  0.00    +0.000 OA
ATOM     21  H   UNL     1       7.328   6.120  13.328  0.00  0.00    +0.000 HD
ENDBRANCH  16  20
ENDBRANCH  15  16
ENDBRANCH   1  15
TORSDOF 9
ENDMDL
MODEL 8
REMARK VINA RESULT:      -5.5      1.503      1.947
REMARK  Name = 
REMARK  10 active torsions:
REMARK  status: ('A' for Active; 'I' for Inactive)
REMARK    1  A    between atoms: C_1  and  O_2
REMARK    2  A    between atoms: O_2  and  C_3
REMARK    3  A    between atoms: C_3  and  C_4
REMARK    4  A    between atoms: N_6  and  C_7
REMARK    5  A    between atoms: C_7  and  C_8
REMARK    6  A    between atoms: C_7  and  C_14
REMARK    7  A    between atoms: C_8  and  N_9
REMARK    8  A    between atoms: C_14  and  P_15
REMARK    9  A    between atoms: P_15  and  O_17
REMARK   10  A    between atoms: P_15  and  O_18
REMARK                            x       y       z     vdW  Elec       q    Type
REMARK                         _______ _______ _______ _____ _____    ______ ____
ROOT
ATOM      1  C   UNL     1       4.833   4.751  17.575  0.00  0.00    +0.000 C 
ENDROOT
BRANCH   1   4
ATOM      2  C   UNL     1       5.670   5.136  15.255  0.00  0.00    +0.000 C 
ATOM      3  O   UNL     1       5.313   6.312  15.255  0.00  0.00    +0.000 OA
ATOM      4  N   UNL     1       5.476   4.308  16.339  0.00  0.00    +0.000 N 
ATOM      5  H   UNL     1       5.813   3.346  16.263  0.00  0.00    +0.000 HD
BRANCH   2   6
ATOM      6  C   UNL     1       6.414   4.495  14.085  0.00  0.00    +0.000 C 
BRANCH   6   8
ATOM      7  C   UNL     1       6.200   3.215  12.124  0.00  0.00    +0.000 C 
ATOM      8  O   UNL     1       5.519   3.778  13.239  0.00  0.00    +0.000 OA
ENDBRANCH   6   8
ENDBRANCH   2   6
ENDBRANCH   1   4
BRANCH   1   9
ATOM      9  C   UNL     1       3.438   4.113  17.769  0.00  0.00    +0.000 C 
BRANCH   9  10
ATOM     10  N   UNL     1       2.853   4.342  19.071  0.00  0.00    +0.000 N 
ATOM     11  C   UNL     1       2.652   3.441  20.070  0.00  0.00    +0.000 A 
ATOM     12  N   UNL     1       2.089   4.040  21.095  0.00  0.00    +0.000 NA
ATOM     13  C   UNL     1       1.948   5.325  20.658  0.00  0.00    +0.000 A 
ATOM     14  N   UNL     1       2.368   5.552  19.410  0.00  0.00    +0.000 NA
ENDBRANCH   9  10
ENDBRANCH   1   9
BRANCH   1  15
ATOM     15  C   UNL     1       5.730   4.564  18.809  0.00  0.00    +0.000 C 
BRANCH  15  16
ATOM     16  P   UNL     1       7.115   5.757  18.877  0.00  0.00    +0.000 P 
ATOM     17  O   UNL     1       7.512   5.272  20.271  0.00  0.00    +0.000 OA
BRANCH  16  18
ATOM     18  O   UNL     1       8.017   4.831  17.867  0.00  0.00    +0.000 OA
ATOM     19  H   UNL     1       8.780   4.457  18.357  0.00  0.00    +0.000 HD
ENDBRANCH  16  18
BRANCH  16  20
ATOM     20  O   UNL     1       8.425   6.886  18.941  0.00  0.00    +0.000 OA
ATOM     21  H   UNL     1       9.028   6.538  19.629  0.00  0.00    +0.000 HD
ENDBRANCH  16  20
ENDBRANCH  15  16
ENDBRANCH   1  15
TORSDOF 9
ENDMDL
MODEL 9
REMARK VINA RESULT:      -5.5      2.299      3.868
REMARK  Name = 
REMARK  10 active torsions:
REMARK  status: ('A' for Active; 'I' for Inactive)
REMARK    1  A    between atoms: C_1  and  O_2
REMARK    2  A    between atoms: O_2  and  C_3
REMARK    3  A    between atoms: C_3  and  C_4
REMARK    4  A    between atoms: N_6  and  C_7
REMARK    5  A    between atoms: C_7  and  C_8
REMARK    6  A    between atoms: C_7  and  C_14
REMARK    7  A    between atoms: C_8  and  N_9
REMARK    8  A    between atoms: C_14  and  P_15
REMARK    9  A    between atoms: P_15  and  O_17
REMARK   10  A    between atoms: P_15  and  O_18
REMARK                            x       y       z     vdW  Elec       q    Type
REMARK                         _______ _______ _______ _____ _____    ______ ____
ROOT
ATOM      1  C   UNL     1       4.683   5.337  17.916  0.00  0.00    +0.000 C 
ENDROOT
BRANCH   1   4
ATOM      2  C   UNL     1       2.924   6.586  19.173  0.00  0.00    +0.000 C 
ATOM      3  O   UNL     1       2.872   5.740  20.063  0.00  0.00    +0.000 OA
ATOM      4  N   UNL     1       3.774   6.468  18.094  0.00  0.00    +0.000 N 
ATOM      5  H   UNL     1       3.765   7.222  17.403  0.00  0.00    +0.000 HD
BRANCH   2   6
ATOM      6  C   UNL     1       2.100   7.872  19.201  0.00  0.00    +0.000 C 
BRANCH   6   8
ATOM      7  C   UNL     1       1.423   9.756  17.968  0.00  0.00    +0.000 C 
ATOM      8  O   UNL     1       2.062   8.486  17.916  0.00  0.00    +0.000 OA
ENDBRANCH   6   8
ENDBRANCH   2   6
ENDBRANCH   1   4
BRANCH   1   9
ATOM      9  C   UNL     1       4.085   4.248  16.995  0.00  0.00    +0.000 C 
BRANCH   9  10
ATOM     10  N   UNL     1       3.089   3.413  17.627  0.00  0.00    +0.000 N 
ATOM     11  C   UNL     1       1.735   3.541  17.579  0.00  0.00    +0.000 A 
ATOM     12  N   UNL     1       1.179   2.585  18.290  0.00  0.00    +0.000 NA
ATOM     13  C   UNL     1       2.254   1.899  18.773  0.00  0.00    +0.000 A 
ATOM     14  N   UNL     1       3.447   2.388  18.425  0.00  0.00    +0.000 NA
ENDBRANCH   9  10
ENDBRANCH   1   9
BRANCH   1  15
ATOM     15  C   UNL     1       6.086   5.771  17.462  0.00  0.00    +0.000 C 
BRANCH  15  16
ATOM     16  P   UNL     1       7.351   5.592  18.772  0.00  0.00    +0.000 P 
ATOM     17  O   UNL     1       6.303   5.087  19.764  0.00  0.00    +0.000 OA
BRANCH  16  18
ATOM     18  O   UNL     1       7.932   4.222  18.083  0.00  0.00    +0.000 OA
ATOM     19  H   UNL     1       8.459   3.721  18.741  0.00  0.00    +0.000 HD
ENDBRANCH  16  18
BRANCH  16  20
ATOM     20  O   UNL     1       8.547   5.424  20.011  0.00  0.00    +0.000 OA
ATOM     21  H   UNL     1       8.156   5.849  20.802  0.00  0.00    +0.000 HD
ENDBRANCH  16  20
ENDBRANCH  15  16
ENDBRANCH   1  15
TORSDOF 9
ENDMDL
