MODEL 1
REMARK VINA RESULT:      -4.9      0.000      0.000
REMARK  Name = 
REMARK  13 active torsions:
REMARK  status: ('A' for Active; 'I' for Inactive)
REMARK    1  A    between atoms: O_1  and  C_2
REMARK    2  A    between atoms: C_2  and  C_3
REMARK    3  A    between atoms: C_3  and  C_4
REMARK    4  A    between atoms: C_4  and  C_5
REMARK    5  A    between atoms: C_4  and  C_8
REMARK    6  A    between atoms: C_5  and  C_6
REMARK    7  A    between atoms: C_6  and  O_7
REMARK    8  A    between atoms: C_8  and  C_9
REMARK    9  A    between atoms: C_8  and  C_11
REMARK   10  A    between atoms: C_8  and  C_13
REMARK   11  A    between atoms: C_9  and  O_10
REMARK   12  A    between atoms: C_11  and  O_12
REMARK   13  A    between atoms: C_13  and  O_14
REMARK                            x       y       z     vdW  Elec       q    Type
REMARK                         _______ _______ _______ _____ _____    ______ ____
ROOT
ATOM      1  C   UNL     1       6.223   5.483  17.922  0.00  0.00    +0.000 C 
ENDROOT
BRANCH   1   2
ATOM      2  C   UNL     1       4.646   5.148  18.046  0.00  0.00    +0.000 C 
BRANCH   2   3
ATOM      3  C   UNL     1       4.385   3.635  17.782  0.00  0.00    +0.000 C 
BRANCH   3   4
ATOM      4  C   UNL     1       3.952   2.761  18.953  0.00  0.00    +0.000 C 
BRANCH   4   5
ATOM      5  O   UNL     1       5.126   2.225  19.562  0.00  0.00    +0.000 OA
ATOM      6  H   UNL     1       4.882   1.950  20.464  0.00  0.00    +0.000 HD
ENDBRANCH   4   5
ENDBRANCH   3   4
ENDBRANCH   2   3
BRANCH   2   7
ATOM      7  C   UNL     1       4.082   5.635  19.416  0.00  0.00    +0.000 C 
BRANCH   7   8
ATOM      8  C   UNL     1       2.736   6.354  19.424  0.00  0.00    +0.000 C 
BRANCH   8   9
ATOM      9  O   UNL     1       2.196   6.317  20.745  0.00  0.00    +0.000 OA
ATOM     10  H   UNL     1       1.900   7.213  20.976  0.00  0.00    +0.000 HD
ENDBRANCH   8   9
ENDBRANCH   7   8
ENDBRANCH   2   7
ENDBRANCH   1   2
BRANCH   1  11
ATOM     11  C   UNL     1       6.931   5.470  19.308  0.00  0.00    +0.000 C 
BRANCH  11  12
ATOM     12  O   UNL     1       8.118   6.257  19.312  0.00  0.00    +0.000 OA
ATOM     13  H   UNL     1       8.685   5.947  18.587  0.00  0.00    +0.000 HD
ENDBRANCH  11  12
ENDBRANCH   1  11
BRANCH   1  14
ATOM     14  C   UNL     1       6.974   4.434  17.044  0.00  0.00    +0.000 C 
BRANCH  14  15
ATOM     15  O   UNL     1       8.219   4.061  17.624  0.00  0.00    +0.000 OA
ATOM     16  H   UNL     1       8.001   3.418  18.332  0.00  0.00    +0.000 HD
ENDBRANCH  14  15
ENDBRANCH   1  14
BRANCH   1  17
ATOM     17  C   UNL     1       6.440   6.878  17.278  0.00  0.00    +0.000 C 
BRANCH  17  18
ATOM     18  O   UNL     1       7.669   6.955  16.563  0.00  0.00    +0.000 OA
ATOM     19  H   UNL     1       7.699   6.221  15.925  0.00  0.00    +0.000 HD
ENDBRANCH  17  18
ENDBRANCH   1  17
TORSDOF 13
ENDMDL
MODEL 2
REMARK VINA RESULT:      -4.8      1.817      4.441
REMARK  Name = 
REMARK  13 active torsions:
REMARK  status: ('A' for Active; 'I' for Inactive)
REMARK    1  A    between atoms: O_1  and  C_2
REMARK    2  A    between atoms: C_2  and  C_3
REMARK    3  A    between atoms: C_3  and  C_4
REMARK    4  A    between atoms: C_4  and  C_5
REMARK    5  A    between atoms: C_4  and  C_8
REMARK    6  A    between atoms: C_5  and  C_6
REMARK    7  A    between atoms: C_6  and  O_7
REMARK    8  A    between atoms: C_8  and  C_9
REMARK    9  A    between atoms: C_8  and  C_11
REMARK   10  A    between atoms: C_8  and  C_13
REMARK   11  A    between atoms: C_9  and  O_10
REMARK   12  A    between atoms: C_11  and  O_12
REMARK   13  A    between atoms: C_13  and  O_14
REMARK                            x       y       z     vdW  Elec       q    Type
REMARK                         _______ _______ _______ _____ _____    ______ ____
ROOT
ATOM      1  C   UNL     1       3.138   2.955  18.806  0.00  0.00    +0.000 C 
ENDROOT
BRANCH   1   2
ATOM      2  C   UNL     1       3.658   4.427  18.385  0.00  0.00    +0.000 C 
BRANCH   2   3
ATOM      3  C   UNL     1       4.431   4.368  17.033  0.00  0.00    +0.000 C 
BRANCH   3   4
ATOM      4  C   UNL     1       5.931   4.638  17.045  0.00  0.00    +0.000 C 
BRANCH   4   5
ATOM      5  O   UNL     1       6.476   4.046  18.223  0.00  0.00    +0.000 OA
ATOM      6  H   UNL     1       6.964   4.744  18.696  0.00  0.00    +0.000 HD
ENDBRANCH   4   5
ENDBRANCH   3   4
ENDBRANCH   2   3
BRANCH   2   7
ATOM      7  C   UNL     1       2.480   5.448  18.371  0.00  0.00    +0.000 C 
BRANCH   7   8
ATOM      8  C   UNL     1       2.519   6.604  19.367  0.00  0.00    +0.000 C 
BRANCH   8   9
ATOM      9  O   UNL     1       2.307   6.092  20.683  0.00  0.00    +0.000 OA
ATOM     10  H   UNL     1       1.353   6.124  20.869  0.00  0.00    +0.000 HD
ENDBRANCH   8   9
ENDBRANCH   7   8
ENDBRANCH   2   7
ENDBRANCH   1   2
BRANCH   1  11
ATOM     11  C   UNL     1       3.517   1.879  17.746  0.00  0.00    +0.000 C 
BRANCH  11  12
ATOM     12  O   UNL     1       3.933   0.657  18.347  0.00  0.00    +0.000 OA
ATOM     13  H   UNL     1       3.864  -0.045  17.680  0.00  0.00    +0.000 HD
ENDBRANCH  11  12
ENDBRANCH   1  11
BRANCH   1  14
ATOM     14  C   UNL     1       3.768   2.476  20.150  0.00  0.00    +0.000 C 
BRANCH  14  15
ATOM     15  O   UNL     1       5.183   2.354  20.052  0.00  0.00    +0.000 OA
ATOM     16  H   UNL     1       5.468   1.896  20.870  0.00  0.00    +0.000 HD
ENDBRANCH  14  15
ENDBRANCH   1  14
BRANCH   1  17
ATOM     17  C   UNL     1       1.595   2.945  18.979  0.00  0.00    +0.000 C 
BRANCH  17  18
ATOM     18  O   UNL     1       0.993   1.804  18.376  0.00  0.00    +0.000 OA
ATOM     19  H   UNL     1       0.978   1.940  17.412  0.00  0.00    +0.000 HD
ENDBRANCH  17  18
ENDBRANCH   1  17
TORSDOF 13
ENDMDL
MODEL 3
REMARK VINA RESULT:      -4.7      0.267      1.823
REMARK  Name = 
REMARK  13 active torsions:
REMARK  status: ('A' for Active; 'I' for Inactive)
REMARK    1  A    between atoms: O_1  and  C_2
REMARK    2  A    between atoms: C_2  and  C_3
REMARK    3  A    between atoms: C_3  and  C_4
REMARK    4  A    between atoms: C_4  and  C_5
REMARK    5  A    between atoms: C_4  and  C_8
REMARK    6  A    between atoms: C_5  and  C_6
REMARK    7  A    between atoms: C_6  and  O_7
REMARK    8  A    between atoms: C_8  and  C_9
REMARK    9  A    between atoms: C_8  and  C_11
REMARK   10  A    between atoms: C_8  and  C_13
REMARK   11  A    between atoms: C_9  and  O_10
REMARK   12  A    between atoms: C_11  and  O_12
REMARK   13  A    between atoms: C_13  and  O_14
REMARK                            x       y       z     vdW  Elec       q    Type
REMARK                         _______ _______ _______ _____ _____    ______ ____
ROOT
ATOM      1  C   UNL     1       6.238   5.528  17.946  0.00  0.00    +0.000 C 
ENDROOT
BRANCH   1   2
ATOM      2  C   UNL     1       4.647   5.252  18.016  0.00  0.00    +0.000 C 
BRANCH   2   3
ATOM      3  C   UNL     1       4.319   3.813  17.513  0.00  0.00    +0.000 C 
BRANCH   3   4
ATOM      4  C   UNL     1       3.708   2.824  18.499  0.00  0.00    +0.000 C 
BRANCH   4   5
ATOM      5  O   UNL     1       4.774   2.137  19.152  0.00  0.00    +0.000 OA
ATOM      6  H   UNL     1       4.705   2.337  20.102  0.00  0.00    +0.000 HD
ENDBRANCH   4   5
ENDBRANCH   3   4
ENDBRANCH   2   3
BRANCH   2   7
ATOM      7  C   UNL     1       4.096   5.538  19.446  0.00  0.00    +0.000 C 
BRANCH   7   8
ATOM      8  C   UNL     1       2.746   6.240  19.569  0.00  0.00    +0.000 C 
BRANCH   8   9
ATOM      9  O   UNL     1       2.151   5.890  20.819  0.00  0.00    +0.000 OA
ATOM     10  H   UNL     1       1.591   5.108  20.678  0.00  0.00    +0.000 HD
ENDBRANCH   8   9
ENDBRANCH   7   8
ENDBRANCH   2   7
ENDBRANCH   1   2
BRANCH   1  11
ATOM     11  C   UNL     1       6.967   4.502  17.030  0.00  0.00    +0.000 C 
BRANCH  11  12
ATOM     12  O   UNL     1       8.210   4.079  17.582  0.00  0.00    +0.000 OA
ATOM     13  H   UNL     1       8.132   4.104  18.550  0.00  0.00    +0.000 HD
ENDBRANCH  11  12
ENDBRANCH   1  11
BRANCH   1  14
ATOM     14  C   UNL     1       6.560   6.937  17.358  0.00  0.00    +0.000 C 
BRANCH  14  15
ATOM     15  O   UNL     1       7.729   6.911  16.546  0.00  0.00    +0.000 OA
ATOM     16  H   UNL     1       8.482   7.038  17.159  0.00  0.00    +0.000 HD
ENDBRANCH  14  15
ENDBRANCH   1  14
BRANCH   1  17
ATOM     17  C   UNL     1       6.872   5.453  19.361  0.00  0.00    +0.000 C 
BRANCH  17  18
ATOM     18  O   UNL     1       8.117   6.141  19.430  0.00  0.00    +0.000 OA
ATOM     19  H   UNL     1       7.937   7.085  19.585  0.00  0.00    +0.000 HD
ENDBRANCH  17  18
ENDBRANCH   1  17
TORSDOF 13
ENDMDL
MODEL 4
REMARK VINA RESULT:      -4.7      2.180      4.648
REMARK  Name = 
REMARK  13 active torsions:
REMARK  status: ('A' for Active; 'I' for Inactive)
REMARK    1  A    between atoms: O_1  and  C_2
REMARK    2  A    between atoms: C_2  and  C_3
REMARK    3  A    between atoms: C_3  and  C_4
REMARK    4  A    between atoms: C_4  and  C_5
REMARK    5  A    between atoms: C_4  and  C_8
REMARK    6  A    between atoms: C_5  and  C_6
REMARK    7  A    between atoms: C_6  and  O_7
REMARK    8  A    between atoms: C_8  and  C_9
REMARK    9  A    between atoms: C_8  and  C_11
REMARK   10  A    between atoms: C_8  and  C_13
REMARK   11  A    between atoms: C_9  and  O_10
REMARK   12  A    between atoms: C_11  and  O_12
REMARK   13  A    between atoms: C_13  and  O_14
REMARK                            x       y       z     vdW  Elec       q    Type
REMARK                         _______ _______ _______ _____ _____    ______ ____
ROOT
ATOM      1  C   UNL     1       3.650   3.338  18.611  0.00  0.00    +0.000 C 
ENDROOT
BRANCH   1   2
ATOM      2  C   UNL     1       3.221   4.157  19.938  0.00  0.00    +0.000 C 
BRANCH   2   3
ATOM      3  C   UNL     1       3.503   5.679  19.756  0.00  0.00    +0.000 C 
BRANCH   3   4
ATOM      4  C   UNL     1       2.321   6.608  19.503  0.00  0.00    +0.000 C 
BRANCH   4   5
ATOM      5  O   UNL     1       2.156   7.433  20.655  0.00  0.00    +0.000 OA
ATOM      6  H   UNL     1       1.429   8.052  20.463  0.00  0.00    +0.000 HD
ENDBRANCH   4   5
ENDBRANCH   3   4
ENDBRANCH   2   3
BRANCH   2   7
ATOM      7  C   UNL     1       1.741   3.853  20.323  0.00  0.00    +0.000 C 
BRANCH   7   8
ATOM      8  C   UNL     1       1.483   2.885  21.475  0.00  0.00    +0.000 C 
BRANCH   8   9
ATOM      9  O   UNL     1       2.732   2.499  22.048  0.00  0.00    +0.000 OA
ATOM     10  H   UNL     1       2.977   1.633  21.683  0.00  0.00    +0.000 HD
ENDBRANCH   8   9
ENDBRANCH   7   8
ENDBRANCH   2   7
ENDBRANCH   1   2
BRANCH   1  11
ATOM     11  C   UNL     1       2.476   3.220  17.595  0.00  0.00    +0.000 C 
BRANCH  11  12
ATOM     12  O   UNL     1       2.053   1.872  17.418  0.00  0.00    +0.000 OA
ATOM     13  H   UNL     1       1.582   1.598  18.222  0.00  0.00    +0.000 HD
ENDBRANCH  11  12
ENDBRANCH   1  11
BRANCH   1  14
ATOM     14  C   UNL     1       4.815   4.037  17.845  0.00  0.00    +0.000 C 
BRANCH  14  15
ATOM     15  O   UNL     1       6.075   3.769  18.450  0.00  0.00    +0.000 OA
ATOM     16  H   UNL     1       6.625   3.359  17.750  0.00  0.00    +0.000 HD
ENDBRANCH  14  15
ENDBRANCH   1  14
BRANCH   1  17
ATOM     17  C   UNL     1       4.121   1.905  18.978  0.00  0.00    +0.000 C 
BRANCH  17  18
ATOM     18  O   UNL     1       4.990   1.896  20.106  0.00  0.00    +0.000 OA
ATOM     19  H   UNL     1       5.903   2.006  19.789  0.00  0.00    +0.000 HD
ENDBRANCH  17  18
ENDBRANCH   1  17
TORSDOF 13
ENDMDL
MODEL 5
REMARK VINA RESULT:      -4.7      1.963      3.841
REMARK  Name = 
REMARK  13 active torsions:
REMARK  status: ('A' for Active; 'I' for Inactive)
REMARK    1  A    between atoms: O_1  and  C_2
REMARK    2  A    between atoms: C_2  and  C_3
REMARK    3  A    between atoms: C_3  and  C_4
REMARK    4  A    between atoms: C_4  and  C_5
REMARK    5  A    between atoms: C_4  and  C_8
REMARK    6  A    between atoms: C_5  and  C_6
REMARK    7  A    between atoms: C_6  and  O_7
REMARK    8  A    between atoms: C_8  and  C_9
REMARK    9  A    between atoms: C_8  and  C_11
REMARK   10  A    between atoms: C_8  and  C_13
REMARK   11  A    between atoms: C_9  and  O_10
REMARK   12  A    between atoms: C_11  and  O_12
REMARK   13  A    between atoms: C_13  and  O_14
REMARK                            x       y       z     vdW  Elec       q    Type
REMARK                         _______ _______ _______ _____ _____    ______ ____
ROOT
ATOM      1  C   UNL     1       4.135   4.200  18.594  0.00  0.00    +0.000 C 
ENDROOT
BRANCH   1   2
ATOM      2  C   UNL     1       2.640   4.766  18.838  0.00  0.00    +0.000 C 
BRANCH   2   3
ATOM      3  C   UNL     1       2.570   6.286  18.505  0.00  0.00    +0.000 C 
BRANCH   3   4
ATOM      4  C   UNL     1       2.228   7.258  19.629  0.00  0.00    +0.000 C 
BRANCH   4   5
ATOM      5  O   UNL     1       2.059   6.504  20.827  0.00  0.00    +0.000 OA
ATOM      6  H   UNL     1       2.068   5.563  20.579  0.00  0.00    +0.000 HD
ENDBRANCH   4   5
ENDBRANCH   3   4
ENDBRANCH   2   3
BRANCH   2   7
ATOM      7  C   UNL     1       1.591   3.920  18.054  0.00  0.00    +0.000 C 
BRANCH   7   8
ATOM      8  C   UNL     1       0.883   2.788  18.794  0.00  0.00    +0.000 C 
BRANCH   8   9
ATOM      9  O   UNL     1       1.517   1.551  18.468  0.00  0.00    +0.000 OA
ATOM     10  H   UNL     1       2.433   1.587  18.789  0.00  0.00    +0.000 HD
ENDBRANCH   8   9
ENDBRANCH   7   8
ENDBRANCH   2   7
ENDBRANCH   1   2
BRANCH   1  11
ATOM     11  C   UNL     1       5.218   5.287  18.853  0.00  0.00    +0.000 C 
BRANCH  11  12
ATOM     12  O   UNL     1       6.418   4.733  19.382  0.00  0.00    +0.000 OA
ATOM     13  H   UNL     1       6.212   4.339  20.246  0.00  0.00    +0.000 HD
ENDBRANCH  11  12
ENDBRANCH   1  11
BRANCH   1  14
ATOM     14  C   UNL     1       4.474   3.016  19.551  0.00  0.00    +0.000 C 
BRANCH  14  15
ATOM     15  O   UNL     1       4.386   1.761  18.885  0.00  0.00    +0.000 OA
ATOM     16  H   UNL     1       4.843   1.882  18.027  0.00  0.00    +0.000 HD
ENDBRANCH  14  15
ENDBRANCH   1  14
BRANCH   1  17
ATOM     17  C   UNL     1       4.297   3.688  17.137  0.00  0.00    +0.000 C 
BRANCH  17  18
ATOM     18  O   UNL     1       5.661   3.466  16.794  0.00  0.00    +0.000 OA
ATOM     19  H   UNL     1       5.822   3.850  15.915  0.00  0.00    +0.000 HD
ENDBRANCH  17  18
ENDBRANCH   1  17
TORSDOF 13
ENDMDL
MODEL 6
REMARK VINA RESULT:      -4.7      2.544      3.520
REMARK  Name = 
REMARK  13 active torsions:
REMARK  status: ('A' for Active; 'I' for Inactive)
REMARK    1  A    between atoms: O_1  and  C_2
REMARK    2  A    between atoms: C_2  and  C_3
REMARK    3  A    between atoms: C_3  and  C_4
REMARK    4  A    between atoms: C_4  and  C_5
REMARK    5  A    between atoms: C_4  and  C_8
REMARK    6  A    between atoms: C_5  and  C_6
REMARK    7  A    between atoms: C_6  and  O_7
REMARK    8  A    between atoms: C_8  and  C_9
REMARK    9  A    between atoms: C_8  and  C_11
REMARK   10  A    between atoms: C_8  and  C_13
REMARK   11  A    between atoms: C_9  and  O_10
REMARK   12  A    between atoms: C_11  and  O_12
REMARK   13  A    between atoms: C_13  and  O_14
REMARK                            x       y       z     vdW  Elec       q    Type
REMARK                         _______ _______ _______ _____ _____    ______ ____
ROOT
ATOM      1  C   UNL     1       3.706   3.616  18.034  0.00  0.00    +0.000 C 
ENDROOT
BRANCH   1   2
ATOM      2  C   UNL     1       2.402   4.552  18.226  0.00  0.00    +0.000 C 
BRANCH   2   3
ATOM      3  C   UNL     1       1.255   3.757  18.920  0.00  0.00    +0.000 C 
BRANCH   3   4
ATOM      4  C   UNL     1       0.933   4.074  20.376  0.00  0.00    +0.000 C 
BRANCH   4   5
ATOM      5  O   UNL     1       0.836   2.840  21.085  0.00  0.00    +0.000 OA
ATOM      6  H   UNL     1      -0.054   2.482  20.919  0.00  0.00    +0.000 HD
ENDBRANCH   4   5
ENDBRANCH   3   4
ENDBRANCH   2   3
BRANCH   2   7
ATOM      7  C   UNL     1       2.771   5.869  18.975  0.00  0.00    +0.000 C 
BRANCH   7   8
ATOM      8  C   UNL     1       2.578   7.192  18.239  0.00  0.00    +0.000 C 
BRANCH   8   9
ATOM      9  O   UNL     1       3.756   7.483  17.487  0.00  0.00    +0.000 OA
ATOM     10  H   UNL     1       4.195   8.247  17.897  0.00  0.00    +0.000 HD
ENDBRANCH   8   9
ENDBRANCH   7   8
ENDBRANCH   2   7
ENDBRANCH   1   2
BRANCH   1  11
ATOM     11  C   UNL     1       4.623   3.629  19.292  0.00  0.00    +0.000 C 
BRANCH  11  12
ATOM     12  O   UNL     1       6.001   3.734  18.951  0.00  0.00    +0.000 OA
ATOM     13  H   UNL     1       6.201   3.046  18.294  0.00  0.00    +0.000 HD
ENDBRANCH  11  12
ENDBRANCH   1  11
BRANCH   1  14
ATOM     14  C   UNL     1       3.322   2.123  17.796  0.00  0.00    +0.000 C 
BRANCH  14  15
ATOM     15  O   UNL     1       4.257   1.237  18.401  0.00  0.00    +0.000 OA
ATOM     16  H   UNL     1       4.615   1.718  19.177  0.00  0.00    +0.000 HD
ENDBRANCH  14  15
ENDBRANCH   1  14
BRANCH   1  17
ATOM     17  C   UNL     1       4.546   4.086  16.816  0.00  0.00    +0.000 C 
BRANCH  17  18
ATOM     18  O   UNL     1       5.467   3.091  16.381  0.00  0.00    +0.000 OA
ATOM     19  H   UNL     1       6.147   3.522  15.834  0.00  0.00    +0.000 HD
ENDBRANCH  17  18
ENDBRANCH   1  17
TORSDOF 13
ENDMDL
MODEL 7
REMARK VINA RESULT:      -4.7      1.191      2.885
REMARK  Name = 
REMARK  13 active torsions:
REMARK  status: ('A' for Active; 'I' for Inactive)
REMARK    1  A    between atoms: O_1  and  C_2
REMARK    2  A    between atoms: C_2  and  C_3
REMARK    3  A    between atoms: C_3  and  C_4
REMARK    4  A    between atoms: C_4  and  C_5
REMARK    5  A    between atoms: C_4  and  C_8
REMARK    6  A    between atoms: C_5  and  C_6
REMARK    7  A    between atoms: C_6  and  O_7
REMARK    8  A    between atoms: C_8  and  C_9
REMARK    9  A    between atoms: C_8  and  C_11
REMARK   10  A    between atoms: C_8  and  C_13
REMARK   11  A    between atoms: C_9  and  O_10
REMARK   12  A    between atoms: C_11  and  O_12
REMARK   13  A    between atoms: C_13  and  O_14
REMARK                            x       y       z     vdW  Elec       q    Type
REMARK                         _______ _______ _______ _____ _____    ______ ____
ROOT
ATOM      1  C   UNL     1       5.827   4.988  17.203  0.00  0.00    +0.000 C 
ENDROOT
BRANCH   1   2
ATOM      2  C   UNL     1       4.511   4.743  18.109  0.00  0.00    +0.000 C 
BRANCH   2   3
ATOM      3  C   UNL     1       3.418   5.806  17.785  0.00  0.00    +0.000 C 
BRANCH   3   4
ATOM      4  C   UNL     1       2.682   6.464  18.947  0.00  0.00    +0.000 C 
BRANCH   4   5
ATOM      5  O   UNL     1       3.239   5.965  20.161  0.00  0.00    +0.000 OA
ATOM      6  H   UNL     1       3.529   5.051  19.990  0.00  0.00    +0.000 HD
ENDBRANCH   4   5
ENDBRANCH   3   4
ENDBRANCH   2   3
BRANCH   2   7
ATOM      7  C   UNL     1       4.000   3.278  17.961  0.00  0.00    +0.000 C 
BRANCH   7   8
ATOM      8  C   UNL     1       3.814   2.450  19.231  0.00  0.00    +0.000 C 
BRANCH   8   9
ATOM      9  O   UNL     1       5.095   2.171  19.796  0.00  0.00    +0.000 OA
ATOM     10  H   UNL     1       5.001   2.159  20.763  0.00  0.00    +0.000 HD
ENDBRANCH   8   9
ENDBRANCH   7   8
ENDBRANCH   2   7
ENDBRANCH   1   2
BRANCH   1  11
ATOM     11  C   UNL     1       7.139   4.715  17.996  0.00  0.00    +0.000 C 
BRANCH  11  12
ATOM     12  O   UNL     1       8.142   4.115  17.183  0.00  0.00    +0.000 OA
ATOM     13  H   UNL     1       8.993   4.527  17.405  0.00  0.00    +0.000 HD
ENDBRANCH  11  12
ENDBRANCH   1  11
BRANCH   1  14
ATOM     14  C   UNL     1       5.867   4.040  15.965  0.00  0.00    +0.000 C 
BRANCH  14  15
ATOM     15  O   UNL     1       6.525   4.649  14.859  0.00  0.00    +0.000 OA
ATOM     16  H   UNL     1       7.484   4.544  15.029  0.00  0.00    +0.000 HD
ENDBRANCH  14  15
ENDBRANCH   1  14
BRANCH   1  17
ATOM     17  C   UNL     1       5.870   6.448  16.678  0.00  0.00    +0.000 C 
BRANCH  17  18
ATOM     18  O   UNL     1       7.200   6.949  16.590  0.00  0.00    +0.000 OA
ATOM     19  H   UNL     1       7.319   7.345  15.708  0.00  0.00    +0.000 HD
ENDBRANCH  17  18
ENDBRANCH   1  17
TORSDOF 13
ENDMDL
MODEL 8
REMARK VINA RESULT:      -4.7      2.698      3.986
REMARK  Name = 
REMARK  13 active torsions:
REMARK  status: ('A' for Active; 'I' for Inactive)
REMARK    1  A    between atoms: O_1  and  C_2
REMARK    2  A    between atoms: C_2  and  C_3
REMARK    3  A    between atoms: C_3  and  C_4
REMARK    4  A    between atoms: C_4  and  C_5
REMARK    5  A    between atoms: C_4  and  C_8
REMARK    6  A    between atoms: C_5  and  C_6
REMARK    7  A    between atoms: C_6  and  O_7
REMARK    8  A    between atoms: C_8  and  C_9
REMARK    9  A    between atoms: C_8  and  C_11
REMARK   10  A    between atoms: C_8  and  C_13
REMARK   11  A    between atoms: C_9  and  O_10
REMARK   12  A    between atoms: C_11  and  O_12
REMARK   13  A    between atoms: C_13  and  O_14
REMARK                            x       y       z     vdW  Elec       q    Type
REMARK                         _______ _______ _______ _____ _____    ______ ____
ROOT
ATOM      1  C   UNL     1       3.503   3.201  18.502  0.00  0.00    +0.000 C 
ENDROOT
BRANCH   1   2
ATOM      2  C   UNL     1       2.229   4.118  18.891  0.00  0.00    +0.000 C 
BRANCH   2   3
ATOM      3  C   UNL     1       2.156   4.327  20.434  0.00  0.00    +0.000 C 
BRANCH   3   4
ATOM      4  C   UNL     1       1.517   3.233  21.282  0.00  0.00    +0.000 C 
BRANCH   4   5
ATOM      5  O   UNL     1       2.509   2.730  22.174  0.00  0.00    +0.000 OA
ATOM      6  H   UNL     1       3.138   3.454  22.342  0.00  0.00    +0.000 HD
ENDBRANCH   4   5
ENDBRANCH   3   4
ENDBRANCH   2   3
BRANCH   2   7
ATOM      7  C   UNL     1       2.246   5.457  18.094  0.00  0.00    +0.000 C 
BRANCH   7   8
ATOM      8  C   UNL     1       3.022   6.633  18.681  0.00  0.00    +0.000 C 
BRANCH   8   9
ATOM      9  O   UNL     1       2.098   7.641  19.093  0.00  0.00    +0.000 OA
ATOM     10  H   UNL     1       2.111   8.351  18.430  0.00  0.00    +0.000 HD
ENDBRANCH   8   9
ENDBRANCH   7   8
ENDBRANCH   2   7
ENDBRANCH   1   2
BRANCH   1  11
ATOM     11  C   UNL     1       3.160   1.683  18.536  0.00  0.00    +0.000 C 
BRANCH  11  12
ATOM     12  O   UNL     1       4.168   0.891  17.917  0.00  0.00    +0.000 OA
ATOM     13  H   UNL     1       3.890   0.711  17.004  0.00  0.00    +0.000 HD
ENDBRANCH  11  12
ENDBRANCH   1  11
BRANCH   1  14
ATOM     14  C   UNL     1       4.014   3.495  17.058  0.00  0.00    +0.000 C 
BRANCH  14  15
ATOM     15  O   UNL     1       5.433   3.413  16.977  0.00  0.00    +0.000 OA
ATOM     16  H   UNL     1       5.759   3.518  17.896  0.00  0.00    +0.000 HD
ENDBRANCH  14  15
ENDBRANCH   1  14
BRANCH   1  17
ATOM     17  C   UNL     1       4.682   3.455  19.480  0.00  0.00    +0.000 C 
BRANCH  17  18
ATOM     18  O   UNL     1       5.212   2.245  20.011  0.00  0.00    +0.000 OA
ATOM     19  H   UNL     1       4.842   1.501  19.503  0.00  0.00    +0.000 HD
ENDBRANCH  17  18
ENDBRANCH   1  17
TORSDOF 13
ENDMDL
MODEL 9
REMARK VINA RESULT:      -4.7      2.240      4.243
REMARK  Name = 
REMARK  13 active torsions:
REMARK  status: ('A' for Active; 'I' for Inactive)
REMARK    1  A    between atoms: O_1  and  C_2
REMARK    2  A    between atoms: C_2  and  C_3
REMARK    3  A    between atoms: C_3  and  C_4
REMARK    4  A    between atoms: C_4  and  C_5
REMARK    5  A    between atoms: C_4  and  C_8
REMARK    6  A    between atoms: C_5  and  C_6
REMARK    7  A    between atoms: C_6  and  O_7
REMARK    8  A    between atoms: C_8  and  C_9
REMARK    9  A    between atoms: C_8  and  C_11
REMARK   10  A    between atoms: C_8  and  C_13
REMARK   11  A    between atoms: C_9  and  O_10
REMARK   12  A    between atoms: C_11  and  O_12
REMARK   13  A    between atoms: C_13  and  O_14
REMARK                            x       y       z     vdW  Elec       q    Type
REMARK                         _______ _______ _______ _____ _____    ______ ____
ROOT
ATOM      1  C   UNL     1       3.871   3.711  18.759  0.00  0.00    +0.000 C 
ENDROOT
BRANCH   1   2
ATOM      2  C   UNL     1       2.631   4.273  19.632  0.00  0.00    +0.000 C 
BRANCH   2   3
ATOM      3  C   UNL     1       1.976   5.497  18.926  0.00  0.00    +0.000 C 
BRANCH   3   4
ATOM      4  C   UNL     1       2.512   6.889  19.245  0.00  0.00    +0.000 C 
BRANCH   4   5
ATOM      5  O   UNL     1       3.165   7.388  18.079  0.00  0.00    +0.000 OA
ATOM      6  H   UNL     1       2.506   7.902  17.579  0.00  0.00    +0.000 HD
ENDBRANCH   4   5
ENDBRANCH   3   4
ENDBRANCH   2   3
BRANCH   2   7
ATOM      7  C   UNL     1       1.615   3.134  19.949  0.00  0.00    +0.000 C 
BRANCH   7   8
ATOM      8  C   UNL     1       1.392   2.755  21.410  0.00  0.00    +0.000 C 
BRANCH   8   9
ATOM      9  O   UNL     1       2.656   2.684  22.071  0.00  0.00    +0.000 OA
ATOM     10  H   UNL     1       2.970   1.766  22.025  0.00  0.00    +0.000 HD
ENDBRANCH   8   9
ENDBRANCH   7   8
ENDBRANCH   2   7
ENDBRANCH   1   2
BRANCH   1  11
ATOM     11  C   UNL     1       3.653   3.929  17.233  0.00  0.00    +0.000 C 
BRANCH  11  12
ATOM     12  O   UNL     1       4.449   4.994  16.724  0.00  0.00    +0.000 OA
ATOM     13  H   UNL     1       5.170   5.158  17.355  0.00  0.00    +0.000 HD
ENDBRANCH  11  12
ENDBRANCH   1  11
BRANCH   1  14
ATOM     14  C   UNL     1       5.207   4.434  19.111  0.00  0.00    +0.000 C 
BRANCH  14  15
ATOM     15  O   UNL     1       6.314   3.853  18.429  0.00  0.00    +0.000 OA
ATOM     16  H   UNL     1       5.973   3.030  18.021  0.00  0.00    +0.000 HD
ENDBRANCH  14  15
ENDBRANCH   1  14
BRANCH   1  17
ATOM     17  C   UNL     1       4.077   2.193  19.009  0.00  0.00    +0.000 C 
BRANCH  17  18
ATOM     18  O   UNL     1       4.966   1.942  20.093  0.00  0.00    +0.000 OA
ATOM     19  H   UNL     1       5.359   1.060  19.968  0.00  0.00    +0.000 HD
ENDBRANCH  17  18
ENDBRANCH   1  17
TORSDOF 13
ENDMDL
