MODEL 1
REMARK VINA RESULT:      -7.2      0.000      0.000
REMARK  Name = 
REMARK  2 active torsions:
REMARK  status: ('A' for Active; 'I' for Inactive)
REMARK    1  A    between atoms: C_7  and  C_8
REMARK    2  A    between atoms: N_13  and  C_14
REMARK                            x       y       z     vdW  Elec       q    Type
REMARK                         _______ _______ _______ _____ _____    ______ ____
ROOT
ATOM      1  F   UNL     1       0.524   3.160  21.021  0.00  0.00    +0.000 F 
ATOM      2  C   UNL     1       1.410   3.100  20.017  0.00  0.00    +0.000 A 
ATOM      3  C   UNL     1       1.588   1.897  19.343  0.00  0.00    +0.000 A 
ATOM      4  C   UNL     1       2.521   1.805  18.300  0.00  0.00    +0.000 A 
ATOM      5  C   UNL     1       3.255   2.949  17.943  0.00  0.00    +0.000 A 
ATOM      6  N   UNL     1       4.230   3.094  16.987  0.00  0.00    +0.000 NA
ATOM      7  C   UNL     1       4.634   4.353  17.062  0.00  0.00    +0.000 A 
ATOM      8  N   UNL     1       3.882   5.030  18.000  0.00  0.00    +0.000 N 
ATOM      9  C   UNL     1       3.031   4.146  18.618  0.00  0.00    +0.000 A 
ATOM     10  C   UNL     1       2.126   4.249  19.683  0.00  0.00    +0.000 A 
ENDROOT
BRANCH   7  11
ATOM     11  C   UNL     1       5.716   4.887  16.186  0.00  0.00    +0.000 A 
ATOM     12  C   UNL     1       5.847   4.922  14.785  0.00  0.00    +0.000 A 
ATOM     13  N   UNL     1       6.991   5.490  14.391  0.00  0.00    +0.000 NA
ATOM     14  N   UNL     1       7.590   5.825  15.546  0.00  0.00    +0.000 N 
ATOM     15  C   UNL     1       6.863   5.493  16.649  0.00  0.00    +0.000 A 
ATOM     16  H   UNL     1       8.497   6.278  15.506  0.00  0.00    +0.000 HD
ENDBRANCH   7  11
BRANCH   8  17
ATOM     17  C   UNL     1       3.931   6.446  18.269  0.00  0.00    +0.000 C 
ATOM     18  C   UNL     1       3.542   7.478  17.239  0.00  0.00    +0.000 C 
ATOM     19  C   UNL     1       2.724   7.324  18.493  0.00  0.00    +0.000 C 
ENDBRANCH   8  17
TORSDOF 2
ENDMDL
MODEL 2
REMARK VINA RESULT:      -7.2      1.818      2.920
REMARK  Name = 
REMARK  2 active torsions:
REMARK  status: ('A' for Active; 'I' for Inactive)
REMARK    1  A    between atoms: C_7  and  C_8
REMARK    2  A    between atoms: N_13  and  C_14
REMARK                            x       y       z     vdW  Elec       q    Type
REMARK                         _______ _______ _______ _____ _____    ______ ____
ROOT
ATOM      1  F   UNL     1       0.227   1.825  18.535  0.00  0.00    +0.000 F 
ATOM      2  C   UNL     1       1.165   2.737  18.826  0.00  0.00    +0.000 A 
ATOM      3  C   UNL     1       1.041   3.489  19.989  0.00  0.00    +0.000 A 
ATOM      4  C   UNL     1       2.001   4.460  20.306  0.00  0.00    +0.000 A 
ATOM      5  C   UNL     1       3.090   4.646  19.439  0.00  0.00    +0.000 A 
ATOM      6  N   UNL     1       4.126   5.544  19.523  0.00  0.00    +0.000 NA
ATOM      7  C   UNL     1       4.874   5.343  18.449  0.00  0.00    +0.000 A 
ATOM      8  N   UNL     1       4.371   4.286  17.720  0.00  0.00    +0.000 N 
ATOM      9  C   UNL     1       3.201   3.857  18.298  0.00  0.00    +0.000 A 
ATOM     10  C   UNL     1       2.236   2.902  17.949  0.00  0.00    +0.000 A 
ENDROOT
BRANCH   7  11
ATOM     11  C   UNL     1       6.093   6.157  18.174  0.00  0.00    +0.000 A 
ATOM     12  C   UNL     1       6.331   7.197  17.256  0.00  0.00    +0.000 A 
ATOM     13  N   UNL     1       7.582   7.664  17.323  0.00  0.00    +0.000 NA
ATOM     14  N   UNL     1       8.143   6.923  18.293  0.00  0.00    +0.000 N 
ATOM     15  C   UNL     1       7.290   6.012  18.840  0.00  0.00    +0.000 A 
ATOM     16  H   UNL     1       9.114   7.093  18.530  0.00  0.00    +0.000 HD
ENDBRANCH   7  11
BRANCH   8  17
ATOM     17  C   UNL     1       4.985   3.681  16.563  0.00  0.00    +0.000 C 
ATOM     18  C   UNL     1       5.109   4.404  15.243  0.00  0.00    +0.000 C 
ATOM     19  C   UNL     1       6.346   4.041  16.021  0.00  0.00    +0.000 C 
ENDBRANCH   8  17
TORSDOF 2
ENDMDL
MODEL 3
REMARK VINA RESULT:      -7.1      1.429      1.590
REMARK  Name = 
REMARK  2 active torsions:
REMARK  status: ('A' for Active; 'I' for Inactive)
REMARK    1  A    between atoms: C_7  and  C_8
REMARK    2  A    between atoms: N_13  and  C_14
REMARK                            x       y       z     vdW  Elec       q    Type
REMARK                         _______ _______ _______ _____ _____    ______ ____
ROOT
ATOM      1  F   UNL     1       0.899   3.076  22.063  0.00  0.00    +0.000 F 
ATOM      2  C   UNL     1       2.015   3.134  21.322  0.00  0.00    +0.000 A 
ATOM      3  C   UNL     1       3.003   2.174  21.513  0.00  0.00    +0.000 A 
ATOM      4  C   UNL     1       4.186   2.222  20.762  0.00  0.00    +0.000 A 
ATOM      5  C   UNL     1       4.345   3.243  19.810  0.00  0.00    +0.000 A 
ATOM      6  N   UNL     1       5.412   3.508  18.987  0.00  0.00    +0.000 NA
ATOM      7  C   UNL     1       5.086   4.593  18.301  0.00  0.00    +0.000 A 
ATOM      8  N   UNL     1       3.801   4.981  18.622  0.00  0.00    +0.000 N 
ATOM      9  C   UNL     1       3.324   4.171  19.622  0.00  0.00    +0.000 A 
ATOM     10  C   UNL     1       2.147   4.157  20.385  0.00  0.00    +0.000 A 
ENDROOT
BRANCH   7  11
ATOM     11  C   UNL     1       6.016   5.208  17.311  0.00  0.00    +0.000 A 
ATOM     12  C   UNL     1       6.130   5.047  15.917  0.00  0.00    +0.000 A 
ATOM     13  N   UNL     1       7.115   5.784  15.395  0.00  0.00    +0.000 NA
ATOM     14  N   UNL     1       7.628   6.424  16.460  0.00  0.00    +0.000 N 
ATOM     15  C   UNL     1       6.998   6.119  17.629  0.00  0.00    +0.000 A 
ATOM     16  H   UNL     1       8.409   7.055  16.314  0.00  0.00    +0.000 HD
ENDBRANCH   7  11
BRANCH   8  17
ATOM     17  C   UNL     1       3.046   6.033  17.986  0.00  0.00    +0.000 C 
ATOM     18  C   UNL     1       2.538   7.235  18.744  0.00  0.00    +0.000 C 
ATOM     19  C   UNL     1       3.579   7.408  17.671  0.00  0.00    +0.000 C 
ENDBRANCH   8  17
TORSDOF 2
ENDMDL
MODEL 4
REMARK VINA RESULT:      -7.1      3.191      5.512
REMARK  Name = 
REMARK  2 active torsions:
REMARK  status: ('A' for Active; 'I' for Inactive)
REMARK    1  A    between atoms: C_7  and  C_8
REMARK    2  A    between atoms: N_13  and  C_14
REMARK                            x       y       z     vdW  Elec       q    Type
REMARK                         _______ _______ _______ _____ _____    ______ ____
ROOT
ATOM      1  F   UNL     1       7.865   7.925  17.098  0.00  0.00    +0.000 F 
ATOM      2  C   UNL     1       7.125   6.925  17.595  0.00  0.00    +0.000 A 
ATOM      3  C   UNL     1       7.762   5.800  18.106  0.00  0.00    +0.000 A 
ATOM      4  C   UNL     1       7.009   4.734  18.616  0.00  0.00    +0.000 A 
ATOM      5  C   UNL     1       5.608   4.831  18.615  0.00  0.00    +0.000 A 
ATOM      6  N   UNL     1       4.671   3.916  19.030  0.00  0.00    +0.000 NA
ATOM      7  C   UNL     1       3.490   4.467  18.794  0.00  0.00    +0.000 A 
ATOM      8  N   UNL     1       3.660   5.744  18.301  0.00  0.00    +0.000 N 
ATOM      9  C   UNL     1       5.001   5.983  18.124  0.00  0.00    +0.000 A 
ATOM     10  C   UNL     1       5.736   7.047  17.582  0.00  0.00    +0.000 A 
ENDROOT
BRANCH   7  11
ATOM     11  C   UNL     1       2.215   3.755  19.094  0.00  0.00    +0.000 A 
ATOM     12  C   UNL     1       1.518   2.757  18.387  0.00  0.00    +0.000 A 
ATOM     13  N   UNL     1       0.391   2.384  19.004  0.00  0.00    +0.000 NA
ATOM     14  N   UNL     1       0.373   3.145  20.112  0.00  0.00    +0.000 N 
ATOM     15  C   UNL     1       1.447   3.976  20.216  0.00  0.00    +0.000 A 
ATOM     16  H   UNL     1      -0.406   3.043  20.754  0.00  0.00    +0.000 HD
ENDBRANCH   7  11
BRANCH   8  17
ATOM     17  C   UNL     1       2.614   6.706  18.052  0.00  0.00    +0.000 C 
ATOM     18  C   UNL     1       2.164   7.699  19.097  0.00  0.00    +0.000 C 
ATOM     19  C   UNL     1       2.834   8.183  17.838  0.00  0.00    +0.000 C 
ENDBRANCH   8  17
TORSDOF 2
ENDMDL
MODEL 5
REMARK VINA RESULT:      -7.0      0.652      1.081
REMARK  Name = 
REMARK  2 active torsions:
REMARK  status: ('A' for Active; 'I' for Inactive)
REMARK    1  A    between atoms: C_7  and  C_8
REMARK    2  A    between atoms: N_13  and  C_14
REMARK                            x       y       z     vdW  Elec       q    Type
REMARK                         _______ _______ _______ _____ _____    ______ ____
ROOT
ATOM      1  F   UNL     1       0.170   2.814  20.469  0.00  0.00    +0.000 F 
ATOM      2  C   UNL     1       1.235   2.904  19.660  0.00  0.00    +0.000 A 
ATOM      3  C   UNL     1       1.652   1.777  18.962  0.00  0.00    +0.000 A 
ATOM      4  C   UNL     1       2.772   1.842  18.122  0.00  0.00    +0.000 A 
ATOM      5  C   UNL     1       3.452   3.064  17.991  0.00  0.00    +0.000 A 
ATOM      6  N   UNL     1       4.575   3.362  17.260  0.00  0.00    +0.000 NA
ATOM      7  C   UNL     1       4.837   4.639  17.492  0.00  0.00    +0.000 A 
ATOM      8  N   UNL     1       3.858   5.177  18.301  0.00  0.00    +0.000 N 
ATOM      9  C   UNL     1       2.991   4.183  18.681  0.00  0.00    +0.000 A 
ATOM     10  C   UNL     1       1.891   4.129  19.548  0.00  0.00    +0.000 A 
ENDROOT
BRANCH   7  11
ATOM     11  C   UNL     1       6.013   5.325  16.884  0.00  0.00    +0.000 A 
ATOM     12  C   UNL     1       6.802   6.399  17.339  0.00  0.00    +0.000 A 
ATOM     13  N   UNL     1       7.773   6.723  16.478  0.00  0.00    +0.000 NA
ATOM     14  N   UNL     1       7.606   5.847  15.472  0.00  0.00    +0.000 N 
ATOM     15  C   UNL     1       6.570   4.984  15.671  0.00  0.00    +0.000 A 
ATOM     16  H   UNL     1       8.236   5.898  14.679  0.00  0.00    +0.000 HD
ENDBRANCH   7  11
BRANCH   8  17
ATOM     17  C   UNL     1       3.722   6.568  18.662  0.00  0.00    +0.000 C 
ATOM     18  C   UNL     1       3.112   7.588  17.732  0.00  0.00    +0.000 C 
ATOM     19  C   UNL     1       2.421   7.241  19.024  0.00  0.00    +0.000 C 
ENDBRANCH   8  17
TORSDOF 2
ENDMDL
MODEL 6
REMARK VINA RESULT:      -7.0      3.176      5.589
REMARK  Name = 
REMARK  2 active torsions:
REMARK  status: ('A' for Active; 'I' for Inactive)
REMARK    1  A    between atoms: C_7  and  C_8
REMARK    2  A    between atoms: N_13  and  C_14
REMARK                            x       y       z     vdW  Elec       q    Type
REMARK                         _______ _______ _______ _____ _____    ______ ____
ROOT
ATOM      1  F   UNL     1       8.110   8.660  17.326  0.00  0.00    +0.000 F 
ATOM      2  C   UNL     1       7.562   7.552  17.844  0.00  0.00    +0.000 A 
ATOM      3  C   UNL     1       8.344   6.715  18.632  0.00  0.00    +0.000 A 
ATOM      4  C   UNL     1       7.799   5.542  19.172  0.00  0.00    +0.000 A 
ATOM      5  C   UNL     1       6.451   5.240  18.915  0.00  0.00    +0.000 A 
ATOM      6  N   UNL     1       5.714   4.150  19.306  0.00  0.00    +0.000 NA
ATOM      7  C   UNL     1       4.508   4.315  18.784  0.00  0.00    +0.000 A 
ATOM      8  N   UNL     1       4.445   5.527  18.127  0.00  0.00    +0.000 N 
ATOM      9  C   UNL     1       5.687   6.114  18.146  0.00  0.00    +0.000 A 
ATOM     10  C   UNL     1       6.223   7.275  17.573  0.00  0.00    +0.000 A 
ENDROOT
BRANCH   7  11
ATOM     11  C   UNL     1       3.423   3.310  18.972  0.00  0.00    +0.000 A 
ATOM     12  C   UNL     1       2.524   3.098  20.035  0.00  0.00    +0.000 A 
ATOM     13  N   UNL     1       1.699   2.070  19.813  0.00  0.00    +0.000 NA
ATOM     14  N   UNL     1       2.070   1.627  18.599  0.00  0.00    +0.000 N 
ATOM     15  C   UNL     1       3.092   2.342  18.050  0.00  0.00    +0.000 A 
ATOM     16  H   UNL     1       1.580   0.831  18.206  0.00  0.00    +0.000 HD
ENDBRANCH   7  11
BRANCH   8  17
ATOM     17  C   UNL     1       3.265   6.122  17.549  0.00  0.00    +0.000 C 
ATOM     18  C   UNL     1       2.073   6.526  18.383  0.00  0.00    +0.000 C 
ATOM     19  C   UNL     1       2.884   7.576  17.672  0.00  0.00    +0.000 C 
ENDBRANCH   8  17
TORSDOF 2
ENDMDL
MODEL 7
REMARK VINA RESULT:      -6.8      3.244      5.861
REMARK  Name = 
REMARK  2 active torsions:
REMARK  status: ('A' for Active; 'I' for Inactive)
REMARK    1  A    between atoms: C_7  and  C_8
REMARK    2  A    between atoms: N_13  and  C_14
REMARK                            x       y       z     vdW  Elec       q    Type
REMARK                         _______ _______ _______ _____ _____    ______ ____
ROOT
ATOM      1  F   UNL     1       6.766   4.593  13.746  0.00  0.00    +0.000 F 
ATOM      2  C   UNL     1       6.524   4.549  15.064  0.00  0.00    +0.000 A 
ATOM      3  C   UNL     1       7.526   4.932  15.949  0.00  0.00    +0.000 A 
ATOM      4  C   UNL     1       7.303   4.880  17.331  0.00  0.00    +0.000 A 
ATOM      5  C   UNL     1       6.051   4.449  17.801  0.00  0.00    +0.000 A 
ATOM      6  N   UNL     1       5.613   4.289  19.093  0.00  0.00    +0.000 NA
ATOM      7  C   UNL     1       4.373   3.832  19.007  0.00  0.00    +0.000 A 
ATOM      8  N   UNL     1       3.990   3.766  17.683  0.00  0.00    +0.000 N 
ATOM      9  C   UNL     1       5.059   4.101  16.888  0.00  0.00    +0.000 A 
ATOM     10  C   UNL     1       5.273   4.118  15.503  0.00  0.00    +0.000 A 
ENDROOT
BRANCH   7  11
ATOM     11  C   UNL     1       3.567   3.509  20.219  0.00  0.00    +0.000 A 
ATOM     12  C   UNL     1       3.465   2.330  20.982  0.00  0.00    +0.000 A 
ATOM     13  N   UNL     1       2.610   2.453  22.003  0.00  0.00    +0.000 NA
ATOM     14  N   UNL     1       2.171   3.719  21.895  0.00  0.00    +0.000 N 
ATOM     15  C   UNL     1       2.720   4.395  20.847  0.00  0.00    +0.000 A 
ATOM     16  H   UNL     1       1.494   4.054  22.572  0.00  0.00    +0.000 HD
ENDBRANCH   7  11
BRANCH   8  17
ATOM     17  C   UNL     1       2.671   3.447  17.194  0.00  0.00    +0.000 C 
ATOM     18  C   UNL     1       1.761   2.472  17.902  0.00  0.00    +0.000 C 
ATOM     19  C   UNL     1       1.382   3.927  17.814  0.00  0.00    +0.000 C 
ENDBRANCH   8  17
TORSDOF 2
ENDMDL
MODEL 8
REMARK VINA RESULT:      -6.7      1.668      1.783
REMARK  Name = 
REMARK  2 active torsions:
REMARK  status: ('A' for Active; 'I' for Inactive)
REMARK    1  A    between atoms: C_7  and  C_8
REMARK    2  A    between atoms: N_13  and  C_14
REMARK                            x       y       z     vdW  Elec       q    Type
REMARK                         _______ _______ _______ _____ _____    ______ ____
ROOT
ATOM      1  F   UNL     1      -0.053   2.596  19.589  0.00  0.00    +0.000 F 
ATOM      2  C   UNL     1       1.198   2.863  19.193  0.00  0.00    +0.000 A 
ATOM      3  C   UNL     1       2.009   1.819  18.760  0.00  0.00    +0.000 A 
ATOM      4  C   UNL     1       3.327   2.071  18.355  0.00  0.00    +0.000 A 
ATOM      5  C   UNL     1       3.804   3.392  18.382  0.00  0.00    +0.000 A 
ATOM      6  N   UNL     1       5.050   3.875  18.065  0.00  0.00    +0.000 NA
ATOM      7  C   UNL     1       5.006   5.180  18.284  0.00  0.00    +0.000 A 
ATOM      8  N   UNL     1       3.733   5.546  18.668  0.00  0.00    +0.000 N 
ATOM      9  C   UNL     1       2.958   4.419  18.793  0.00  0.00    +0.000 A 
ATOM     10  C   UNL     1       1.647   4.183  19.229  0.00  0.00    +0.000 A 
ENDROOT
BRANCH   7  11
ATOM     11  C   UNL     1       6.195   6.055  18.073  0.00  0.00    +0.000 A 
ATOM     12  C   UNL     1       6.485   7.007  17.078  0.00  0.00    +0.000 A 
ATOM     13  N   UNL     1       7.682   7.578  17.247  0.00  0.00    +0.000 NA
ATOM     14  N   UNL     1       8.155   6.991  18.360  0.00  0.00    +0.000 N 
ATOM     15  C   UNL     1       7.299   6.078  18.897  0.00  0.00    +0.000 A 
ATOM     16  H   UNL     1       9.073   7.263  18.695  0.00  0.00    +0.000 HD
ENDBRANCH   7  11
BRANCH   8  17
ATOM     17  C   UNL     1       3.258   6.895  18.863  0.00  0.00    +0.000 C 
ATOM     18  C   UNL     1       2.988   7.831  17.711  0.00  0.00    +0.000 C 
ATOM     19  C   UNL     1       1.852   7.363  18.580  0.00  0.00    +0.000 C 
ENDBRANCH   8  17
TORSDOF 2
ENDMDL
MODEL 9
REMARK VINA RESULT:      -6.6      3.038      5.372
REMARK  Name = 
REMARK  2 active torsions:
REMARK  status: ('A' for Active; 'I' for Inactive)
REMARK    1  A    between atoms: C_7  and  C_8
REMARK    2  A    between atoms: N_13  and  C_14
REMARK                            x       y       z     vdW  Elec       q    Type
REMARK                         _______ _______ _______ _____ _____    ______ ____
ROOT
ATOM      1  F   UNL     1       7.621   8.294  17.198  0.00  0.00    +0.000 F 
ATOM      2  C   UNL     1       7.006   7.134  17.465  0.00  0.00    +0.000 A 
ATOM      3  C   UNL     1       7.771   5.982  17.617  0.00  0.00    +0.000 A 
ATOM      4  C   UNL     1       7.150   4.754  17.881  0.00  0.00    +0.000 A 
ATOM      5  C   UNL     1       5.751   4.712  18.001  0.00  0.00    +0.000 A 
ATOM      6  N   UNL     1       4.928   3.636  18.225  0.00  0.00    +0.000 NA
ATOM      7  C   UNL     1       3.692   4.112  18.223  0.00  0.00    +0.000 A 
ATOM      8  N   UNL     1       3.720   5.483  18.072  0.00  0.00    +0.000 N 
ATOM      9  C   UNL     1       5.016   5.888  17.873  0.00  0.00    +0.000 A 
ATOM     10  C   UNL     1       5.617   7.120  17.580  0.00  0.00    +0.000 A 
ENDROOT
BRANCH   7  11
ATOM     11  C   UNL     1       2.507   3.227  18.412  0.00  0.00    +0.000 A 
ATOM     12  C   UNL     1       1.128   3.480  18.291  0.00  0.00    +0.000 A 
ATOM     13  N   UNL     1       0.383   2.402  18.558  0.00  0.00    +0.000 NA
ATOM     14  N   UNL     1       1.293   1.455  18.845  0.00  0.00    +0.000 N 
ATOM     15  C   UNL     1       2.579   1.897  18.764  0.00  0.00    +0.000 A 
ATOM     16  H   UNL     1       0.962   0.528  19.090  0.00  0.00    +0.000 HD
ENDBRANCH   7  11
BRANCH   8  17
ATOM     17  C   UNL     1       2.586   6.371  18.157  0.00  0.00    +0.000 C 
ATOM     18  C   UNL     1       2.261   7.150  19.408  0.00  0.00    +0.000 C 
ATOM     19  C   UNL     1       2.668   7.877  18.153  0.00  0.00    +0.000 C 
ENDBRANCH   8  17
TORSDOF 2
ENDMDL
