MODEL 1
REMARK VINA RESULT:      -8.1      0.000      0.000
REMARK  Name = 
REMARK  6 active torsions:
REMARK  status: ('A' for Active; 'I' for Inactive)
REMARK    1  A    between atoms: N_3  and  C_4
REMARK    2  A    between atoms: C_4  and  C_5
REMARK    3  A    between atoms: C_5  and  C_6
REMARK    4  A    between atoms: C_6  and  C_7
REMARK    5  A    between atoms: C_7  and  C_8
REMARK    6  A    between atoms: C_15  and  C_16
REMARK                            x       y       z     vdW  Elec       q    Type
REMARK                         _______ _______ _______ _____ _____    ______ ____
ROOT
ATOM      1  O   UNL     1       5.239   6.029  19.417  0.00  0.00    +0.000 OA
ATOM      2  C   UNL     1       5.180   5.546  18.288  0.00  0.00    +0.000 C 
ATOM      3  N   UNL     1       6.266   5.573  17.444  0.00  0.00    +0.000 N 
ATOM      4  N   UNL     1       4.050   4.944  17.762  0.00  0.00    +0.000 N 
ATOM      5  C   UNL     1       2.771   5.181  18.169  0.00  0.00    +0.000 A 
ATOM      6  C   UNL     1       2.019   4.230  17.625  0.00  0.00    +0.000 A 
ATOM      7  O   UNL     1       2.729   3.308  16.864  0.00  0.00    +0.000 OA
ATOM      8  C   UNL     1       4.032   3.792  16.982  0.00  0.00    +0.000 A 
ATOM      9  O   UNL     1       4.987   3.264  16.426  0.00  0.00    +0.000 OA
ATOM     10  H   UNL     1       6.268   4.927  16.660  0.00  0.00    +0.000 HD
ENDROOT
BRANCH   5  11
ATOM     11  C   UNL     1       2.321   6.309  18.967  0.00  0.00    +0.000 A 
ATOM     12  C   UNL     1       1.901   6.115  20.287  0.00  0.00    +0.000 A 
ATOM     13  C   UNL     1       1.424   7.189  21.040  0.00  0.00    +0.000 A 
ATOM     14  C   UNL     1       1.365   8.464  20.479  0.00  0.00    +0.000 A 
ATOM     15  C   UNL     1       1.803   8.671  19.172  0.00  0.00    +0.000 A 
ATOM     16  C   UNL     1       2.283   7.598  18.416  0.00  0.00    +0.000 A 
ENDBRANCH   5  11
BRANCH   3  17
ATOM     17  C   UNL     1       7.523   6.158  17.862  0.00  0.00    +0.000 C 
BRANCH  17  18
ATOM     18  C   UNL     1       7.662   7.611  17.413  0.00  0.00    +0.000 C 
BRANCH  18  19
ATOM     19  C   UNL     1       8.509   8.428  18.391  0.00  0.00    +0.000 C 
BRANCH  19  20
ATOM     20  C   UNL     1       8.377   9.927  18.126  0.00  0.00    +0.000 C 
BRANCH  20  21
ATOM     21  C   UNL     1       9.500  10.705  18.766  0.00  0.00    +0.000 A 
ATOM     22  C   UNL     1       9.453  11.039  20.125  0.00  0.00    +0.000 A 
ATOM     23  C   UNL     1      10.481  11.785  20.706  0.00  0.00    +0.000 A 
ATOM     24  C   UNL     1      11.561  12.207  19.932  0.00  0.00    +0.000 A 
ATOM     25  C   UNL     1      11.617  11.878  18.579  0.00  0.00    +0.000 A 
ATOM     26  C   UNL     1      10.590  11.133  17.998  0.00  0.00    +0.000 A 
ENDBRANCH  20  21
ENDBRANCH  19  20
ENDBRANCH  18  19
ENDBRANCH  17  18
ENDBRANCH   3  17
TORSDOF 6
ENDMDL
MODEL 2
REMARK VINA RESULT:      -8.1      1.792      3.088
REMARK  Name = 
REMARK  6 active torsions:
REMARK  status: ('A' for Active; 'I' for Inactive)
REMARK    1  A    between atoms: N_3  and  C_4
REMARK    2  A    between atoms: C_4  and  C_5
REMARK    3  A    between atoms: C_5  and  C_6
REMARK    4  A    between atoms: C_6  and  C_7
REMARK    5  A    between atoms: C_7  and  C_8
REMARK    6  A    between atoms: C_15  and  C_16
REMARK                            x       y       z     vdW  Elec       q    Type
REMARK                         _______ _______ _______ _____ _____    ______ ____
ROOT
ATOM      1  O   UNL     1       6.735   5.906  18.812  0.00  0.00    +0.000 OA
ATOM      2  C   UNL     1       6.834   6.160  17.613  0.00  0.00    +0.000 C 
ATOM      3  N   UNL     1       7.570   7.235  17.170  0.00  0.00    +0.000 N 
ATOM      4  N   UNL     1       6.233   5.416  16.613  0.00  0.00    +0.000 N 
ATOM      5  C   UNL     1       5.131   4.630  16.771  0.00  0.00    +0.000 A 
ATOM      6  C   UNL     1       5.036   3.886  15.675  0.00  0.00    +0.000 A 
ATOM      7  O   UNL     1       6.052   4.101  14.750  0.00  0.00    +0.000 OA
ATOM      8  C   UNL     1       6.808   5.084  15.390  0.00  0.00    +0.000 A 
ATOM      9  O   UNL     1       7.809   5.580  14.888  0.00  0.00    +0.000 OA
ATOM     10  H   UNL     1       7.858   7.238  16.196  0.00  0.00    +0.000 HD
ENDROOT
BRANCH   5  11
ATOM     11  C   UNL     1       4.202   4.673  17.888  0.00  0.00    +0.000 A 
ATOM     12  C   UNL     1       3.323   5.752  18.032  0.00  0.00    +0.000 A 
ATOM     13  C   UNL     1       2.463   5.818  19.130  0.00  0.00    +0.000 A 
ATOM     14  C   UNL     1       2.476   4.806  20.089  0.00  0.00    +0.000 A 
ATOM     15  C   UNL     1       3.332   3.716  19.941  0.00  0.00    +0.000 A 
ATOM     16  C   UNL     1       4.193   3.647  18.843  0.00  0.00    +0.000 A 
ENDBRANCH   5  11
BRANCH   3  17
ATOM     17  C   UNL     1       8.268   8.097  18.101  0.00  0.00    +0.000 C 
BRANCH  17  18
ATOM     18  C   UNL     1       7.987   9.576  17.841  0.00  0.00    +0.000 C 
BRANCH  18  19
ATOM     19  C   UNL     1       9.163  10.458  18.266  0.00  0.00    +0.000 C 
BRANCH  19  20
ATOM     20  C   UNL     1       9.401  10.382  19.773  0.00  0.00    +0.000 C 
BRANCH  20  21
ATOM     21  C   UNL     1       9.668  11.746  20.362  0.00  0.00    +0.000 A 
ATOM     22  C   UNL     1      10.642  12.585  19.807  0.00  0.00    +0.000 A 
ATOM     23  C   UNL     1      10.906  13.834  20.374  0.00  0.00    +0.000 A 
ATOM     24  C   UNL     1      10.201  14.252  21.502  0.00  0.00    +0.000 A 
ATOM     25  C   UNL     1       9.229  13.424  22.060  0.00  0.00    +0.000 A 
ATOM     26  C   UNL     1       8.965  12.176  21.495  0.00  0.00    +0.000 A 
ENDBRANCH  20  21
ENDBRANCH  19  20
ENDBRANCH  18  19
ENDBRANCH  17  18
ENDBRANCH   3  17
TORSDOF 6
ENDMDL
MODEL 3
REMARK VINA RESULT:      -8.1      4.384      7.774
REMARK  Name = 
REMARK  6 active torsions:
REMARK  status: ('A' for Active; 'I' for Inactive)
REMARK    1  A    between atoms: N_3  and  C_4
REMARK    2  A    between atoms: C_4  and  C_5
REMARK    3  A    between atoms: C_5  and  C_6
REMARK    4  A    between atoms: C_6  and  C_7
REMARK    5  A    between atoms: C_7  and  C_8
REMARK    6  A    between atoms: C_15  and  C_16
REMARK                            x       y       z     vdW  Elec       q    Type
REMARK                         _______ _______ _______ _____ _____    ______ ____
ROOT
ATOM      1  O   UNL     1       2.943   6.284  18.047  0.00  0.00    +0.000 OA
ATOM      2  C   UNL     1       2.677   5.720  19.106  0.00  0.00    +0.000 C 
ATOM      3  N   UNL     1       2.168   6.417  20.177  0.00  0.00    +0.000 N 
ATOM      4  N   UNL     1       2.858   4.366  19.328  0.00  0.00    +0.000 N 
ATOM      5  C   UNL     1       3.731   3.567  18.651  0.00  0.00    +0.000 A 
ATOM      6  C   UNL     1       3.415   2.315  18.959  0.00  0.00    +0.000 A 
ATOM      7  O   UNL     1       2.325   2.196  19.814  0.00  0.00    +0.000 OA
ATOM      8  C   UNL     1       1.987   3.533  20.024  0.00  0.00    +0.000 A 
ATOM      9  O   UNL     1       1.068   3.876  20.756  0.00  0.00    +0.000 OA
ATOM     10  H   UNL     1       1.703   5.884  20.908  0.00  0.00    +0.000 HD
ENDROOT
BRANCH   5  11
ATOM     11  C   UNL     1       4.842   4.018  17.829  0.00  0.00    +0.000 A 
ATOM     12  C   UNL     1       4.772   3.922  16.435  0.00  0.00    +0.000 A 
ATOM     13  C   UNL     1       5.856   4.310  15.647  0.00  0.00    +0.000 A 
ATOM     14  C   UNL     1       7.016   4.796  16.246  0.00  0.00    +0.000 A 
ATOM     15  C   UNL     1       7.087   4.917  17.633  0.00  0.00    +0.000 A 
ATOM     16  C   UNL     1       6.003   4.531  18.425  0.00  0.00    +0.000 A 
ENDBRANCH   5  11
BRANCH   3  17
ATOM     17  C   UNL     1       1.912   7.840  20.089  0.00  0.00    +0.000 C 
BRANCH  17  18
ATOM     18  C   UNL     1       1.119   8.360  21.286  0.00  0.00    +0.000 C 
BRANCH  18  19
ATOM     19  C   UNL     1       0.551   9.757  21.025  0.00  0.00    +0.000 C 
BRANCH  19  20
ATOM     20  C   UNL     1       0.776  10.189  19.576  0.00  0.00    +0.000 C 
BRANCH  20  21
ATOM     21  C   UNL     1      -0.527  10.504  18.884  0.00  0.00    +0.000 A 
ATOM     22  C   UNL     1      -1.405  11.458  19.413  0.00  0.00    +0.000 A 
ATOM     23  C   UNL     1      -2.623  11.724  18.785  0.00  0.00    +0.000 A 
ATOM     24  C   UNL     1      -2.975  11.037  17.624  0.00  0.00    +0.000 A 
ATOM     25  C   UNL     1      -2.108  10.086  17.089  0.00  0.00    +0.000 A 
ATOM     26  C   UNL     1      -0.891   9.819  17.717  0.00  0.00    +0.000 A 
ENDBRANCH  20  21
ENDBRANCH  19  20
ENDBRANCH  18  19
ENDBRANCH  17  18
ENDBRANCH   3  17
TORSDOF 6
ENDMDL
MODEL 4
REMARK VINA RESULT:      -8.1      2.192      3.207
REMARK  Name = 
REMARK  6 active torsions:
REMARK  status: ('A' for Active; 'I' for Inactive)
REMARK    1  A    between atoms: N_3  and  C_4
REMARK    2  A    between atoms: C_4  and  C_5
REMARK    3  A    between atoms: C_5  and  C_6
REMARK    4  A    between atoms: C_6  and  C_7
REMARK    5  A    between atoms: C_7  and  C_8
REMARK    6  A    between atoms: C_15  and  C_16
REMARK                            x       y       z     vdW  Elec       q    Type
REMARK                         _______ _______ _______ _____ _____    ______ ____
ROOT
ATOM      1  O   UNL     1       6.645   5.221  18.343  0.00  0.00    +0.000 OA
ATOM      2  C   UNL     1       6.799   5.660  17.205  0.00  0.00    +0.000 C 
ATOM      3  N   UNL     1       7.502   6.820  16.976  0.00  0.00    +0.000 N 
ATOM      4  N   UNL     1       6.296   5.052  16.067  0.00  0.00    +0.000 N 
ATOM      5  C   UNL     1       5.230   4.204  16.034  0.00  0.00    +0.000 A 
ATOM      6  C   UNL     1       5.236   3.634  14.834  0.00  0.00    +0.000 A 
ATOM      7  O   UNL     1       6.291   4.032  14.020  0.00  0.00    +0.000 OA
ATOM      8  C   UNL     1       6.957   4.937  14.848  0.00  0.00    +0.000 A 
ATOM      9  O   UNL     1       7.957   5.546  14.492  0.00  0.00    +0.000 OA
ATOM     10  H   UNL     1       7.844   6.985  16.034  0.00  0.00    +0.000 HD
ENDROOT
BRANCH   5  11
ATOM     11  C   UNL     1       4.237   4.035  17.083  0.00  0.00    +0.000 A 
ATOM     12  C   UNL     1       3.361   5.079  17.398  0.00  0.00    +0.000 A 
ATOM     13  C   UNL     1       2.439   4.936  18.436  0.00  0.00    +0.000 A 
ATOM     14  C   UNL     1       2.387   3.749  19.164  0.00  0.00    +0.000 A 
ATOM     15  C   UNL     1       3.240   2.695  18.842  0.00  0.00    +0.000 A 
ATOM     16  C   UNL     1       4.163   2.835  17.802  0.00  0.00    +0.000 A 
ENDBRANCH   5  11
BRANCH   3  17
ATOM     17  C   UNL     1       8.099   7.559  18.069  0.00  0.00    +0.000 C 
BRANCH  17  18
ATOM     18  C   UNL     1       7.781   9.052  18.000  0.00  0.00    +0.000 C 
BRANCH  18  19
ATOM     19  C   UNL     1       8.897   9.897  18.617  0.00  0.00    +0.000 C 
BRANCH  19  20
ATOM     20  C   UNL     1       9.460  10.899  17.608  0.00  0.00    +0.000 C 
BRANCH  20  21
ATOM     21  C   UNL     1      10.481  11.810  18.243  0.00  0.00    +0.000 A 
ATOM     22  C   UNL     1      11.046  11.495  19.485  0.00  0.00    +0.000 A 
ATOM     23  C   UNL     1      11.968  12.357  20.082  0.00  0.00    +0.000 A 
ATOM     24  C   UNL     1      12.329  13.543  19.445  0.00  0.00    +0.000 A 
ATOM     25  C   UNL     1      11.773  13.865  18.208  0.00  0.00    +0.000 A 
ATOM     26  C   UNL     1      10.852  13.004  17.611  0.00  0.00    +0.000 A 
ENDBRANCH  20  21
ENDBRANCH  19  20
ENDBRANCH  18  19
ENDBRANCH  17  18
ENDBRANCH   3  17
TORSDOF 6
ENDMDL
MODEL 5
REMARK VINA RESULT:      -8.1      2.190      2.966
REMARK  Name = 
REMARK  6 active torsions:
REMARK  status: ('A' for Active; 'I' for Inactive)
REMARK    1  A    between atoms: N_3  and  C_4
REMARK    2  A    between atoms: C_4  and  C_5
REMARK    3  A    between atoms: C_5  and  C_6
REMARK    4  A    between atoms: C_6  and  C_7
REMARK    5  A    between atoms: C_7  and  C_8
REMARK    6  A    between atoms: C_15  and  C_16
REMARK                            x       y       z     vdW  Elec       q    Type
REMARK                         _______ _______ _______ _____ _____    ______ ____
ROOT
ATOM      1  O   UNL     1       5.859   5.903  18.556  0.00  0.00    +0.000 OA
ATOM      2  C   UNL     1       6.063   6.041  17.352  0.00  0.00    +0.000 C 
ATOM      3  N   UNL     1       6.501   7.239  16.835  0.00  0.00    +0.000 N 
ATOM      4  N   UNL     1       5.878   5.038  16.416  0.00  0.00    +0.000 N 
ATOM      5  C   UNL     1       5.053   3.964  16.567  0.00  0.00    +0.000 A 
ATOM      6  C   UNL     1       5.358   3.112  15.594  0.00  0.00    +0.000 A 
ATOM      7  O   UNL     1       6.394   3.537  14.769  0.00  0.00    +0.000 OA
ATOM      8  C   UNL     1       6.710   4.774  15.332  0.00  0.00    +0.000 A 
ATOM      9  O   UNL     1       7.580   5.505  14.877  0.00  0.00    +0.000 OA
ATOM     10  H   UNL     1       6.923   7.226  15.911  0.00  0.00    +0.000 HD
ENDROOT
BRANCH   5  11
ATOM     11  C   UNL     1       3.992   3.830  17.551  0.00  0.00    +0.000 A 
ATOM     12  C   UNL     1       4.127   2.934  18.617  0.00  0.00    +0.000 A 
ATOM     13  C   UNL     1       3.090   2.771  19.536  0.00  0.00    +0.000 A 
ATOM     14  C   UNL     1       1.912   3.502  19.396  0.00  0.00    +0.000 A 
ATOM     15  C   UNL     1       1.776   4.414  18.351  0.00  0.00    +0.000 A 
ATOM     16  C   UNL     1       2.814   4.581  17.430  0.00  0.00    +0.000 A 
ENDBRANCH   5  11
BRANCH   3  17
ATOM     17  C   UNL     1       6.752   8.376  17.696  0.00  0.00    +0.000 C 
BRANCH  17  18
ATOM     18  C   UNL     1       8.245   8.630  17.898  0.00  0.00    +0.000 C 
BRANCH  18  19
ATOM     19  C   UNL     1       8.537  10.109  18.160  0.00  0.00    +0.000 C 
BRANCH  19  20
ATOM     20  C   UNL     1       9.544  10.285  19.297  0.00  0.00    +0.000 C 
BRANCH  20  21
ATOM     21  C   UNL     1      10.537  11.379  18.993  0.00  0.00    +0.000 A 
ATOM     22  C   UNL     1      11.244  12.008  20.025  0.00  0.00    +0.000 A 
ATOM     23  C   UNL     1      12.140  13.041  19.741  0.00  0.00    +0.000 A 
ATOM     24  C   UNL     1      12.333  13.456  18.424  0.00  0.00    +0.000 A 
ATOM     25  C   UNL     1      11.635  12.835  17.391  0.00  0.00    +0.000 A 
ATOM     26  C   UNL     1      10.739  11.804  17.673  0.00  0.00    +0.000 A 
ENDBRANCH  20  21
ENDBRANCH  19  20
ENDBRANCH  18  19
ENDBRANCH  17  18
ENDBRANCH   3  17
TORSDOF 6
ENDMDL
MODEL 6
REMARK VINA RESULT:      -8.1      1.908      3.077
REMARK  Name = 
REMARK  6 active torsions:
REMARK  status: ('A' for Active; 'I' for Inactive)
REMARK    1  A    between atoms: N_3  and  C_4
REMARK    2  A    between atoms: C_4  and  C_5
REMARK    3  A    between atoms: C_5  and  C_6
REMARK    4  A    between atoms: C_6  and  C_7
REMARK    5  A    between atoms: C_7  and  C_8
REMARK    6  A    between atoms: C_15  and  C_16
REMARK                            x       y       z     vdW  Elec       q    Type
REMARK                         _______ _______ _______ _____ _____    ______ ____
ROOT
ATOM      1  O   UNL     1       6.701   5.802  18.799  0.00  0.00    +0.000 OA
ATOM      2  C   UNL     1       6.808   6.118  17.616  0.00  0.00    +0.000 C 
ATOM      3  N   UNL     1       7.534   7.222  17.236  0.00  0.00    +0.000 N 
ATOM      4  N   UNL     1       6.226   5.418  16.574  0.00  0.00    +0.000 N 
ATOM      5  C   UNL     1       5.132   4.612  16.681  0.00  0.00    +0.000 A 
ATOM      6  C   UNL     1       5.056   3.924  15.547  0.00  0.00    +0.000 A 
ATOM      7  O   UNL     1       6.078   4.197  14.645  0.00  0.00    +0.000 OA
ATOM      8  C   UNL     1       6.816   5.155  15.341  0.00  0.00    +0.000 A 
ATOM      9  O   UNL     1       7.815   5.688  14.875  0.00  0.00    +0.000 OA
ATOM     10  H   UNL     1       7.831   7.278  16.265  0.00  0.00    +0.000 HD
ENDROOT
BRANCH   5  11
ATOM     11  C   UNL     1       4.192   4.587  17.790  0.00  0.00    +0.000 A 
ATOM     12  C   UNL     1       3.238   5.600  17.928  0.00  0.00    +0.000 A 
ATOM     13  C   UNL     1       2.366   5.603  19.017  0.00  0.00    +0.000 A 
ATOM     14  C   UNL     1       2.441   4.594  19.975  0.00  0.00    +0.000 A 
ATOM     15  C   UNL     1       3.373   3.567  19.833  0.00  0.00    +0.000 A 
ATOM     16  C   UNL     1       4.246   3.560  18.743  0.00  0.00    +0.000 A 
ENDBRANCH   5  11
BRANCH   3  17
ATOM     17  C   UNL     1       8.213   8.044  18.216  0.00  0.00    +0.000 C 
BRANCH  17  18
ATOM     18  C   UNL     1       8.380   9.487  17.744  0.00  0.00    +0.000 C 
BRANCH  18  19
ATOM     19  C   UNL     1       8.671  10.434  18.911  0.00  0.00    +0.000 C 
BRANCH  19  20
ATOM     20  C   UNL     1      10.160  10.764  19.003  0.00  0.00    +0.000 C 
BRANCH  20  21
ATOM     21  C   UNL     1      10.479  12.078  18.335  0.00  0.00    +0.000 A 
ATOM     22  C   UNL     1       9.684  13.208  18.565  0.00  0.00    +0.000 A 
ATOM     23  C   UNL     1       9.965  14.414  17.921  0.00  0.00    +0.000 A 
ATOM     24  C   UNL     1      11.041  14.501  17.038  0.00  0.00    +0.000 A 
ATOM     25  C   UNL     1      11.839  13.383  16.803  0.00  0.00    +0.000 A 
ATOM     26  C   UNL     1      11.558  12.177  17.446  0.00  0.00    +0.000 A 
ENDBRANCH  20  21
ENDBRANCH  19  20
ENDBRANCH  18  19
ENDBRANCH  17  18
ENDBRANCH   3  17
TORSDOF 6
ENDMDL
MODEL 7
REMARK VINA RESULT:      -8.0      3.837      7.809
REMARK  Name = 
REMARK  6 active torsions:
REMARK  status: ('A' for Active; 'I' for Inactive)
REMARK    1  A    between atoms: N_3  and  C_4
REMARK    2  A    between atoms: C_4  and  C_5
REMARK    3  A    between atoms: C_5  and  C_6
REMARK    4  A    between atoms: C_6  and  C_7
REMARK    5  A    between atoms: C_7  and  C_8
REMARK    6  A    between atoms: C_15  and  C_16
REMARK                            x       y       z     vdW  Elec       q    Type
REMARK                         _______ _______ _______ _____ _____    ______ ____
ROOT
ATOM      1  O   UNL     1       3.065   6.484  18.355  0.00  0.00    +0.000 OA
ATOM      2  C   UNL     1       2.881   5.987  19.464  0.00  0.00    +0.000 C 
ATOM      3  N   UNL     1       2.221   6.678  20.454  0.00  0.00    +0.000 N 
ATOM      4  N   UNL     1       3.305   4.720  19.824  0.00  0.00    +0.000 N 
ATOM      5  C   UNL     1       4.331   4.038  19.239  0.00  0.00    +0.000 A 
ATOM      6  C   UNL     1       4.246   2.784  19.670  0.00  0.00    +0.000 A 
ATOM      7  O   UNL     1       3.174   2.547  20.524  0.00  0.00    +0.000 OA
ATOM      8  C   UNL     1       2.587   3.810  20.594  0.00  0.00    +0.000 A 
ATOM      9  O   UNL     1       1.600   4.044  21.280  0.00  0.00    +0.000 OA
ATOM     10  H   UNL     1       1.845   6.141  21.231  0.00  0.00    +0.000 HD
ENDROOT
BRANCH   5  11
ATOM     11  C   UNL     1       5.360   4.607  18.385  0.00  0.00    +0.000 A 
ATOM     12  C   UNL     1       6.379   5.391  18.936  0.00  0.00    +0.000 A 
ATOM     13  C   UNL     1       7.341   5.976  18.112  0.00  0.00    +0.000 A 
ATOM     14  C   UNL     1       7.291   5.782  16.733  0.00  0.00    +0.000 A 
ATOM     15  C   UNL     1       6.292   4.984  16.177  0.00  0.00    +0.000 A 
ATOM     16  C   UNL     1       5.329   4.395  17.000  0.00  0.00    +0.000 A 
ENDBRANCH   5  11
BRANCH   3  17
ATOM     17  C   UNL     1       1.706   8.011  20.220  0.00  0.00    +0.000 C 
BRANCH  17  18
ATOM     18  C   UNL     1       0.691   8.434  21.279  0.00  0.00    +0.000 C 
BRANCH  18  19
ATOM     19  C   UNL     1       0.319   9.912  21.149  0.00  0.00    +0.000 C 
BRANCH  19  20
ATOM     20  C   UNL     1       0.623  10.442  19.748  0.00  0.00    +0.000 C 
BRANCH  20  21
ATOM     21  C   UNL     1      -0.636  10.613  18.934  0.00  0.00    +0.000 A 
ATOM     22  C   UNL     1      -1.646  11.487  19.356  0.00  0.00    +0.000 A 
ATOM     23  C   UNL     1      -2.822  11.618  18.615  0.00  0.00    +0.000 A 
ATOM     24  C   UNL     1      -3.000  10.875  17.449  0.00  0.00    +0.000 A 
ATOM     25  C   UNL     1      -2.000  10.003  17.021  0.00  0.00    +0.000 A 
ATOM     26  C   UNL     1      -0.825   9.871  17.761  0.00  0.00    +0.000 A 
ENDBRANCH  20  21
ENDBRANCH  19  20
ENDBRANCH  18  19
ENDBRANCH  17  18
ENDBRANCH   3  17
TORSDOF 6
ENDMDL
MODEL 8
REMARK VINA RESULT:      -8.0      1.844      2.857
REMARK  Name = 
REMARK  6 active torsions:
REMARK  status: ('A' for Active; 'I' for Inactive)
REMARK    1  A    between atoms: N_3  and  C_4
REMARK    2  A    between atoms: C_4  and  C_5
REMARK    3  A    between atoms: C_5  and  C_6
REMARK    4  A    between atoms: C_6  and  C_7
REMARK    5  A    between atoms: C_7  and  C_8
REMARK    6  A    between atoms: C_15  and  C_16
REMARK                            x       y       z     vdW  Elec       q    Type
REMARK                         _______ _______ _______ _____ _____    ______ ____
ROOT
ATOM      1  O   UNL     1       6.721   5.834  18.849  0.00  0.00    +0.000 OA
ATOM      2  C   UNL     1       6.823   6.116  17.657  0.00  0.00    +0.000 C 
ATOM      3  N   UNL     1       7.572   7.192  17.240  0.00  0.00    +0.000 N 
ATOM      4  N   UNL     1       6.215   5.403  16.639  0.00  0.00    +0.000 N 
ATOM      5  C   UNL     1       5.103   4.626  16.777  0.00  0.00    +0.000 A 
ATOM      6  C   UNL     1       5.000   3.911  15.663  0.00  0.00    +0.000 A 
ATOM      7  O   UNL     1       6.019   4.136  14.744  0.00  0.00    +0.000 OA
ATOM      8  C   UNL     1       6.786   5.094  15.408  0.00  0.00    +0.000 A 
ATOM      9  O   UNL     1       7.793   5.591  14.919  0.00  0.00    +0.000 OA
ATOM     10  H   UNL     1       7.860   7.215  16.266  0.00  0.00    +0.000 HD
ENDROOT
BRANCH   5  11
ATOM     11  C   UNL     1       4.174   4.653  17.895  0.00  0.00    +0.000 A 
ATOM     12  C   UNL     1       4.145   3.597  18.812  0.00  0.00    +0.000 A 
ATOM     13  C   UNL     1       3.221   3.598  19.859  0.00  0.00    +0.000 A 
ATOM     14  C   UNL     1       2.322   4.654  19.995  0.00  0.00    +0.000 A 
ATOM     15  C   UNL     1       2.360   5.722  19.100  0.00  0.00    +0.000 A 
ATOM     16  C   UNL     1       3.284   5.724  18.052  0.00  0.00    +0.000 A 
ENDBRANCH   5  11
BRANCH   3  17
ATOM     17  C   UNL     1       8.279   8.023  18.192  0.00  0.00    +0.000 C 
BRANCH  17  18
ATOM     18  C   UNL     1       8.143   9.511  17.875  0.00  0.00    +0.000 C 
BRANCH  18  19
ATOM     19  C   UNL     1       9.060  10.364  18.753  0.00  0.00    +0.000 C 
BRANCH  19  20
ATOM     20  C   UNL     1      10.175  11.011  17.932  0.00  0.00    +0.000 C 
BRANCH  20  21
ATOM     21  C   UNL     1      10.482  12.406  18.416  0.00  0.00    +0.000 A 
ATOM     22  C   UNL     1      10.995  12.619  19.702  0.00  0.00    +0.000 A 
ATOM     23  C   UNL     1      11.249  13.915  20.156  0.00  0.00    +0.000 A 
ATOM     24  C   UNL     1      10.988  15.008  19.332  0.00  0.00    +0.000 A 
ATOM     25  C   UNL     1      10.478  14.807  18.051  0.00  0.00    +0.000 A 
ATOM     26  C   UNL     1      10.224  13.512  17.596  0.00  0.00    +0.000 A 
ENDBRANCH  20  21
ENDBRANCH  19  20
ENDBRANCH  18  19
ENDBRANCH  17  18
ENDBRANCH   3  17
TORSDOF 6
ENDMDL
MODEL 9
REMARK VINA RESULT:      -8.0      4.752      6.899
REMARK  Name = 
REMARK  6 active torsions:
REMARK  status: ('A' for Active; 'I' for Inactive)
REMARK    1  A    between atoms: N_3  and  C_4
REMARK    2  A    between atoms: C_4  and  C_5
REMARK    3  A    between atoms: C_5  and  C_6
REMARK    4  A    between atoms: C_6  and  C_7
REMARK    5  A    between atoms: C_7  and  C_8
REMARK    6  A    between atoms: C_15  and  C_16
REMARK                            x       y       z     vdW  Elec       q    Type
REMARK                         _______ _______ _______ _____ _____    ______ ____
ROOT
ATOM      1  O   UNL     1       3.044   6.729  19.314  0.00  0.00    +0.000 OA
ATOM      2  C   UNL     1       3.287   6.790  18.110  0.00  0.00    +0.000 C 
ATOM      3  N   UNL     1       2.974   7.910  17.375  0.00  0.00    +0.000 N 
ATOM      4  N   UNL     1       3.883   5.770  17.389  0.00  0.00    +0.000 N 
ATOM      5  C   UNL     1       3.870   4.451  17.734  0.00  0.00    +0.000 A 
ATOM      6  C   UNL     1       4.762   3.848  16.956  0.00  0.00    +0.000 A 
ATOM      7  O   UNL     1       5.428   4.702  16.085  0.00  0.00    +0.000 OA
ATOM      8  C   UNL     1       4.845   5.930  16.396  0.00  0.00    +0.000 A 
ATOM      9  O   UNL     1       5.144   6.970  15.823  0.00  0.00    +0.000 OA
ATOM     10  H   UNL     1       3.441   8.031  16.481  0.00  0.00    +0.000 HD
ENDROOT
BRANCH   5  11
ATOM     11  C   UNL     1       2.984   3.828  18.703  0.00  0.00    +0.000 A 
ATOM     12  C   UNL     1       1.642   3.597  18.384  0.00  0.00    +0.000 A 
ATOM     13  C   UNL     1       0.778   3.042  19.330  0.00  0.00    +0.000 A 
ATOM     14  C   UNL     1       1.251   2.715  20.600  0.00  0.00    +0.000 A 
ATOM     15  C   UNL     1       2.592   2.921  20.919  0.00  0.00    +0.000 A 
ATOM     16  C   UNL     1       3.459   3.474  19.974  0.00  0.00    +0.000 A 
ENDBRANCH   5  11
BRANCH   3  17
ATOM     17  C   UNL     1       2.359   9.064  17.997  0.00  0.00    +0.000 C 
BRANCH  17  18
ATOM     18  C   UNL     1       0.838   9.052  17.863  0.00  0.00    +0.000 C 
BRANCH  18  19
ATOM     19  C   UNL     1       0.216  10.362  18.350  0.00  0.00    +0.000 C 
BRANCH  19  20
ATOM     20  C   UNL     1       1.021  10.968  19.499  0.00  0.00    +0.000 C 
BRANCH  20  21
ATOM     21  C   UNL     1       0.340  10.751  20.828  0.00  0.00    +0.000 A 
ATOM     22  C   UNL     1       0.329   9.485  21.426  0.00  0.00    +0.000 A 
ATOM     23  C   UNL     1      -0.329   9.283  22.641  0.00  0.00    +0.000 A 
ATOM     24  C   UNL     1      -0.983  10.343  23.267  0.00  0.00    +0.000 A 
ATOM     25  C   UNL     1      -0.976  11.607  22.680  0.00  0.00    +0.000 A 
ATOM     26  C   UNL     1      -0.320  11.810  21.465  0.00  0.00    +0.000 A 
ENDBRANCH  20  21
ENDBRANCH  19  20
ENDBRANCH  18  19
ENDBRANCH  17  18
ENDBRANCH   3  17
TORSDOF 6
ENDMDL
