MODEL 1
REMARK VINA RESULT:      -8.1      0.000      0.000
REMARK  Name = 
REMARK  4 active torsions:
REMARK  status: ('A' for Active; 'I' for Inactive)
REMARK    1  A    between atoms: C_2  and  O_3
REMARK    2  A    between atoms: C_2  and  C_4
REMARK    3  A    between atoms: C_8  and  C_9
REMARK    4  A    between atoms: N_13  and  C_14
REMARK                            x       y       z     vdW  Elec       q    Type
REMARK                         _______ _______ _______ _____ _____    ______ ____
ROOT
ATOM      1  C   UNL     1       5.412   4.410  15.865  0.00  0.00    +0.000 A 
ATOM      2  C   UNL     1       5.058   5.421  16.728  0.00  0.00    +0.000 A 
ATOM      3  N   UNL     1       4.499   4.905  17.858  0.00  0.00    +0.000 NA
ATOM      4  C   UNL     1       4.542   3.601  17.675  0.00  0.00    +0.000 A 
ATOM      5  N   UNL     1       4.102   2.625  18.484  0.00  0.00    +0.000 N 
ATOM      6  O   UNL     1       5.108   3.222  16.487  0.00  0.00    +0.000 OA
ATOM      7  H   UNL     1       4.387   1.668  18.325  0.00  0.00    +0.000 HD
ENDROOT
BRANCH   5   8
ATOM      8  C   UNL     1       3.114   2.808  19.474  0.00  0.00    +0.000 A 
ATOM      9  C   UNL     1       3.400   2.636  20.836  0.00  0.00    +0.000 A 
ATOM     10  C   UNL     1       2.410   2.776  21.812  0.00  0.00    +0.000 A 
ATOM     11  C   UNL     1       1.100   3.063  21.435  0.00  0.00    +0.000 A 
ATOM     12  C   UNL     1       0.787   3.210  20.087  0.00  0.00    +0.000 A 
ATOM     13  C   UNL     1       1.788   3.086  19.120  0.00  0.00    +0.000 A 
ATOM     14  F   UNL     1       1.454   3.213  17.826  0.00  0.00    +0.000 F 
ENDBRANCH   5   8
BRANCH   1  19
ATOM     15  C   UNL     1       6.314   3.376  12.348  0.00  0.00    +0.000 A 
ATOM     16  C   UNL     1       7.353   4.270  12.060  0.00  0.00    +0.000 A 
ATOM     17  C   UNL     1       7.726   5.218  13.009  0.00  0.00    +0.000 A 
ATOM     18  C   UNL     1       7.070   5.262  14.241  0.00  0.00    +0.000 A 
ATOM     19  C   UNL     1       6.028   4.368  14.548  0.00  0.00    +0.000 A 
ATOM     20  C   UNL     1       5.636   3.443  13.574  0.00  0.00    +0.000 A 
BRANCH  15  22
ATOM     21  O   UNL     1       4.777   2.278  10.906  0.00  0.00    +0.000 OA
ATOM     22  C   UNL     1       5.900   2.343  11.372  0.00  0.00    +0.000 C 
BRANCH  22  23
ATOM     23  O   UNL     1       6.878   1.454  11.097  0.00  0.00    +0.000 OA
ATOM     24  H   UNL     1       7.728   1.625  11.546  0.00  0.00    +0.000 HD
ENDBRANCH  22  23
ENDBRANCH  15  22
ENDBRANCH   1  19
TORSDOF 4
ENDMDL
MODEL 2
REMARK VINA RESULT:      -8.0      1.013      1.432
REMARK  Name = 
REMARK  4 active torsions:
REMARK  status: ('A' for Active; 'I' for Inactive)
REMARK    1  A    between atoms: C_2  and  O_3
REMARK    2  A    between atoms: C_2  and  C_4
REMARK    3  A    between atoms: C_8  and  C_9
REMARK    4  A    between atoms: N_13  and  C_14
REMARK                            x       y       z     vdW  Elec       q    Type
REMARK                         _______ _______ _______ _____ _____    ______ ____
ROOT
ATOM      1  C   UNL     1       5.427   4.444  15.806  0.00  0.00    +0.000 A 
ATOM      2  C   UNL     1       5.039   5.464  16.644  0.00  0.00    +0.000 A 
ATOM      3  N   UNL     1       4.483   4.958  17.779  0.00  0.00    +0.000 NA
ATOM      4  C   UNL     1       4.561   3.652  17.626  0.00  0.00    +0.000 A 
ATOM      5  N   UNL     1       4.138   2.682  18.451  0.00  0.00    +0.000 N 
ATOM      6  O   UNL     1       5.147   3.263  16.451  0.00  0.00    +0.000 OA
ATOM      7  H   UNL     1       4.449   1.730  18.315  0.00  0.00    +0.000 HD
ENDROOT
BRANCH   5   8
ATOM      8  C   UNL     1       3.137   2.861  19.428  0.00  0.00    +0.000 A 
ATOM      9  C   UNL     1       1.908   3.463  19.119  0.00  0.00    +0.000 A 
ATOM     10  C   UNL     1       0.936   3.678  20.098  0.00  0.00    +0.000 A 
ATOM     11  C   UNL     1       1.188   3.317  21.419  0.00  0.00    +0.000 A 
ATOM     12  C   UNL     1       2.412   2.743  21.755  0.00  0.00    +0.000 A 
ATOM     13  C   UNL     1       3.371   2.516  20.765  0.00  0.00    +0.000 A 
ATOM     14  F   UNL     1       4.549   1.979  21.120  0.00  0.00    +0.000 F 
ENDBRANCH   5   8
BRANCH   1  19
ATOM     15  C   UNL     1       6.383   3.363  12.318  0.00  0.00    +0.000 A 
ATOM     16  C   UNL     1       7.407   4.273  12.023  0.00  0.00    +0.000 A 
ATOM     17  C   UNL     1       7.751   5.246  12.957  0.00  0.00    +0.000 A 
ATOM     18  C   UNL     1       7.083   5.299  14.181  0.00  0.00    +0.000 A 
ATOM     19  C   UNL     1       6.056   4.390  14.495  0.00  0.00    +0.000 A 
ATOM     20  C   UNL     1       5.692   3.440  13.536  0.00  0.00    +0.000 A 
BRANCH  15  22
ATOM     21  O   UNL     1       4.870   2.176  10.922  0.00  0.00    +0.000 OA
ATOM     22  C   UNL     1       6.000   2.303  11.358  0.00  0.00    +0.000 C 
BRANCH  22  23
ATOM     23  O   UNL     1       7.017   1.466  11.062  0.00  0.00    +0.000 OA
ATOM     24  H   UNL     1       7.731   1.860  10.526  0.00  0.00    +0.000 HD
ENDBRANCH  22  23
ENDBRANCH  15  22
ENDBRANCH   1  19
TORSDOF 4
ENDMDL
MODEL 3
REMARK VINA RESULT:      -7.6      6.634      8.487
REMARK  Name = 
REMARK  4 active torsions:
REMARK  status: ('A' for Active; 'I' for Inactive)
REMARK    1  A    between atoms: C_2  and  O_3
REMARK    2  A    between atoms: C_2  and  C_4
REMARK    3  A    between atoms: C_8  and  C_9
REMARK    4  A    between atoms: N_13  and  C_14
REMARK                            x       y       z     vdW  Elec       q    Type
REMARK                         _______ _______ _______ _____ _____    ______ ____
ROOT
ATOM      1  C   UNL     1       8.563   9.050  18.577  0.00  0.00    +0.000 A 
ATOM      2  C   UNL     1       8.681   7.766  19.058  0.00  0.00    +0.000 A 
ATOM      3  N   UNL     1       7.860   6.925  18.370  0.00  0.00    +0.000 NA
ATOM      4  C   UNL     1       7.279   7.698  17.475  0.00  0.00    +0.000 A 
ATOM      5  N   UNL     1       6.362   7.372  16.551  0.00  0.00    +0.000 N 
ATOM      6  O   UNL     1       7.676   9.008  17.527  0.00  0.00    +0.000 OA
ATOM      7  H   UNL     1       6.159   8.008  15.792  0.00  0.00    +0.000 HD
ENDROOT
BRANCH   5   8
ATOM      8  C   UNL     1       5.517   6.247  16.644  0.00  0.00    +0.000 A 
ATOM      9  C   UNL     1       4.365   6.257  17.443  0.00  0.00    +0.000 A 
ATOM     10  C   UNL     1       3.553   5.128  17.567  0.00  0.00    +0.000 A 
ATOM     11  C   UNL     1       3.899   3.949  16.910  0.00  0.00    +0.000 A 
ATOM     12  C   UNL     1       5.054   3.906  16.134  0.00  0.00    +0.000 A 
ATOM     13  C   UNL     1       5.849   5.047  16.002  0.00  0.00    +0.000 A 
ATOM     14  F   UNL     1       6.967   4.972  15.262  0.00  0.00    +0.000 F 
ENDBRANCH   5   8
BRANCH   1  19
ATOM     15  C   UNL     1      10.214  12.434  18.308  0.00  0.00    +0.000 A 
ATOM     16  C   UNL     1      10.472  12.718  19.655  0.00  0.00    +0.000 A 
ATOM     17  C   UNL     1      10.077  11.812  20.636  0.00  0.00    +0.000 A 
ATOM     18  C   UNL     1       9.439  10.626  20.268  0.00  0.00    +0.000 A 
ATOM     19  C   UNL     1       9.177  10.323  18.920  0.00  0.00    +0.000 A 
ATOM     20  C   UNL     1       9.544  11.256  17.944  0.00  0.00    +0.000 A 
BRANCH  15  22
ATOM     21  O   UNL     1      11.599  13.165  16.521  0.00  0.00    +0.000 OA
ATOM     22  C   UNL     1      10.633  13.364  17.235  0.00  0.00    +0.000 C 
BRANCH  22  23
ATOM     23  O   UNL     1       9.869  14.475  17.171  0.00  0.00    +0.000 OA
ATOM     24  H   UNL     1      10.353  15.296  16.962  0.00  0.00    +0.000 HD
ENDBRANCH  22  23
ENDBRANCH  15  22
ENDBRANCH   1  19
TORSDOF 4
ENDMDL
MODEL 4
REMARK VINA RESULT:      -7.6      5.833      7.889
REMARK  Name = 
REMARK  4 active torsions:
REMARK  status: ('A' for Active; 'I' for Inactive)
REMARK    1  A    between atoms: C_2  and  O_3
REMARK    2  A    between atoms: C_2  and  C_4
REMARK    3  A    between atoms: C_8  and  C_9
REMARK    4  A    between atoms: N_13  and  C_14
REMARK                            x       y       z     vdW  Elec       q    Type
REMARK                         _______ _______ _______ _____ _____    ______ ____
ROOT
ATOM      1  C   UNL     1       7.439   6.951  17.598  0.00  0.00    +0.000 A 
ATOM      2  C   UNL     1       8.224   6.852  18.724  0.00  0.00    +0.000 A 
ATOM      3  N   UNL     1       8.733   8.071  19.055  0.00  0.00    +0.000 NA
ATOM      4  C   UNL     1       8.238   8.887  18.147  0.00  0.00    +0.000 A 
ATOM      5  N   UNL     1       8.441  10.206  18.003  0.00  0.00    +0.000 N 
ATOM      6  O   UNL     1       7.419   8.277  17.235  0.00  0.00    +0.000 OA
ATOM      7  H   UNL     1       7.838  10.749  17.401  0.00  0.00    +0.000 HD
ENDROOT
BRANCH   5   8
ATOM      8  C   UNL     1       9.562  10.891  18.517  0.00  0.00    +0.000 A 
ATOM      9  C   UNL     1      10.653  11.228  17.703  0.00  0.00    +0.000 A 
ATOM     10  C   UNL     1      11.780  11.867  18.223  0.00  0.00    +0.000 A 
ATOM     11  C   UNL     1      11.848  12.158  19.583  0.00  0.00    +0.000 A 
ATOM     12  C   UNL     1      10.789  11.807  20.416  0.00  0.00    +0.000 A 
ATOM     13  C   UNL     1       9.659  11.183  19.883  0.00  0.00    +0.000 A 
ATOM     14  F   UNL     1       8.661  10.839  20.712  0.00  0.00    +0.000 F 
ENDBRANCH   5   8
BRANCH   1  19
ATOM     15  C   UNL     1       6.292   4.690  14.802  0.00  0.00    +0.000 A 
ATOM     16  C   UNL     1       5.054   4.256  15.294  0.00  0.00    +0.000 A 
ATOM     17  C   UNL     1       4.624   4.686  16.546  0.00  0.00    +0.000 A 
ATOM     18  C   UNL     1       5.423   5.552  17.294  0.00  0.00    +0.000 A 
ATOM     19  C   UNL     1       6.666   6.002  16.812  0.00  0.00    +0.000 A 
ATOM     20  C   UNL     1       7.107   5.535  15.569  0.00  0.00    +0.000 A 
BRANCH  15  22
ATOM     21  O   UNL     1       7.548   4.931  12.799  0.00  0.00    +0.000 OA
ATOM     22  C   UNL     1       6.776   4.268  13.468  0.00  0.00    +0.000 C 
BRANCH  22  23
ATOM     23  O   UNL     1       6.230   3.106  13.051  0.00  0.00    +0.000 OA
ATOM     24  H   UNL     1       6.820   2.330  13.110  0.00  0.00    +0.000 HD
ENDBRANCH  22  23
ENDBRANCH  15  22
ENDBRANCH   1  19
TORSDOF 4
ENDMDL
MODEL 5
REMARK VINA RESULT:      -7.6      5.747      8.145
REMARK  Name = 
REMARK  4 active torsions:
REMARK  status: ('A' for Active; 'I' for Inactive)
REMARK    1  A    between atoms: C_2  and  O_3
REMARK    2  A    between atoms: C_2  and  C_4
REMARK    3  A    between atoms: C_8  and  C_9
REMARK    4  A    between atoms: N_13  and  C_14
REMARK                            x       y       z     vdW  Elec       q    Type
REMARK                         _______ _______ _______ _____ _____    ______ ____
ROOT
ATOM      1  C   UNL     1       7.399   6.912  17.596  0.00  0.00    +0.000 A 
ATOM      2  C   UNL     1       8.190   6.817  18.718  0.00  0.00    +0.000 A 
ATOM      3  N   UNL     1       8.702   8.037  19.040  0.00  0.00    +0.000 NA
ATOM      4  C   UNL     1       8.202   8.850  18.133  0.00  0.00    +0.000 A 
ATOM      5  N   UNL     1       8.404  10.168  17.982  0.00  0.00    +0.000 N 
ATOM      6  O   UNL     1       7.377   8.236  17.228  0.00  0.00    +0.000 OA
ATOM      7  H   UNL     1       7.797  10.709  17.380  0.00  0.00    +0.000 HD
ENDROOT
BRANCH   5   8
ATOM      8  C   UNL     1       9.528  10.855  18.486  0.00  0.00    +0.000 A 
ATOM      9  C   UNL     1      10.615  11.186  17.665  0.00  0.00    +0.000 A 
ATOM     10  C   UNL     1      11.746  11.828  18.176  0.00  0.00    +0.000 A 
ATOM     11  C   UNL     1      11.820  12.126  19.534  0.00  0.00    +0.000 A 
ATOM     12  C   UNL     1      10.764  11.781  20.374  0.00  0.00    +0.000 A 
ATOM     13  C   UNL     1       9.631  11.156  19.850  0.00  0.00    +0.000 A 
ATOM     14  F   UNL     1       8.636  10.818  20.685  0.00  0.00    +0.000 F 
ENDBRANCH   5   8
BRANCH   1  19
ATOM     15  C   UNL     1       4.854   4.306  16.607  0.00  0.00    +0.000 A 
ATOM     16  C   UNL     1       5.237   4.040  15.286  0.00  0.00    +0.000 A 
ATOM     17  C   UNL     1       6.304   4.737  14.727  0.00  0.00    +0.000 A 
ATOM     18  C   UNL     1       6.989   5.685  15.489  0.00  0.00    +0.000 A 
ATOM     19  C   UNL     1       6.621   5.960  16.818  0.00  0.00    +0.000 A 
ATOM     20  C   UNL     1       5.524   5.281  17.360  0.00  0.00    +0.000 A 
BRANCH  15  22
ATOM     21  O   UNL     1       2.629   4.055  17.403  0.00  0.00    +0.000 OA
ATOM     22  C   UNL     1       3.735   3.573  17.242  0.00  0.00    +0.000 C 
BRANCH  22  23
ATOM     23  O   UNL     1       4.087   2.342  17.670  0.00  0.00    +0.000 OA
ATOM     24  H   UNL     1       4.040   2.213  18.637  0.00  0.00    +0.000 HD
ENDBRANCH  22  23
ENDBRANCH  15  22
ENDBRANCH   1  19
TORSDOF 4
ENDMDL
MODEL 6
REMARK VINA RESULT:      -7.6      5.676      7.160
REMARK  Name = 
REMARK  4 active torsions:
REMARK  status: ('A' for Active; 'I' for Inactive)
REMARK    1  A    between atoms: C_2  and  O_3
REMARK    2  A    between atoms: C_2  and  C_4
REMARK    3  A    between atoms: C_8  and  C_9
REMARK    4  A    between atoms: N_13  and  C_14
REMARK                            x       y       z     vdW  Elec       q    Type
REMARK                         _______ _______ _______ _____ _____    ______ ____
ROOT
ATOM      1  C   UNL     1       2.762   7.076  18.454  0.00  0.00    +0.000 A 
ATOM      2  C   UNL     1       2.242   7.372  19.693  0.00  0.00    +0.000 A 
ATOM      3  N   UNL     1       1.600   8.572  19.663  0.00  0.00    +0.000 NA
ATOM      4  C   UNL     1       1.719   8.973  18.414  0.00  0.00    +0.000 A 
ATOM      5  N   UNL     1       1.278  10.108  17.850  0.00  0.00    +0.000 N 
ATOM      6  O   UNL     1       2.400   8.099  17.609  0.00  0.00    +0.000 OA
ATOM      7  H   UNL     1       1.247  10.196  16.843  0.00  0.00    +0.000 HD
ENDROOT
BRANCH   5   8
ATOM      8  C   UNL     1       0.993  11.287  18.571  0.00  0.00    +0.000 A 
ATOM      9  C   UNL     1       1.952  12.297  18.736  0.00  0.00    +0.000 A 
ATOM     10  C   UNL     1       1.681  13.443  19.486  0.00  0.00    +0.000 A 
ATOM     11  C   UNL     1       0.446  13.586  20.114  0.00  0.00    +0.000 A 
ATOM     12  C   UNL     1      -0.511  12.583  19.988  0.00  0.00    +0.000 A 
ATOM     13  C   UNL     1      -0.237  11.449  19.221  0.00  0.00    +0.000 A 
ATOM     14  F   UNL     1      -1.171  10.489  19.132  0.00  0.00    +0.000 F 
ENDBRANCH   5   8
BRANCH   1  19
ATOM     15  C   UNL     1       5.567   5.006  17.007  0.00  0.00    +0.000 A 
ATOM     16  C   UNL     1       4.908   3.796  16.751  0.00  0.00    +0.000 A 
ATOM     17  C   UNL     1       3.562   3.665  17.082  0.00  0.00    +0.000 A 
ATOM     18  C   UNL     1       2.880   4.740  17.654  0.00  0.00    +0.000 A 
ATOM     19  C   UNL     1       3.526   5.963  17.912  0.00  0.00    +0.000 A 
ATOM     20  C   UNL     1       4.887   6.073  17.611  0.00  0.00    +0.000 A 
BRANCH  15  22
ATOM     21  O   UNL     1       7.378   6.016  15.847  0.00  0.00    +0.000 OA
ATOM     22  C   UNL     1       6.993   5.190  16.654  0.00  0.00    +0.000 C 
BRANCH  22  23
ATOM     23  O   UNL     1       7.809   4.312  17.277  0.00  0.00    +0.000 OA
ATOM     24  H   UNL     1       7.373   3.745  17.941  0.00  0.00    +0.000 HD
ENDBRANCH  22  23
ENDBRANCH  15  22
ENDBRANCH   1  19
TORSDOF 4
ENDMDL
MODEL 7
REMARK VINA RESULT:      -7.6      5.759      7.264
REMARK  Name = 
REMARK  4 active torsions:
REMARK  status: ('A' for Active; 'I' for Inactive)
REMARK    1  A    between atoms: C_2  and  O_3
REMARK    2  A    between atoms: C_2  and  C_4
REMARK    3  A    between atoms: C_8  and  C_9
REMARK    4  A    between atoms: N_13  and  C_14
REMARK                            x       y       z     vdW  Elec       q    Type
REMARK                         _______ _______ _______ _____ _____    ______ ____
ROOT
ATOM      1  C   UNL     1       2.777   7.044  18.475  0.00  0.00    +0.000 A 
ATOM      2  C   UNL     1       2.268   7.341  19.718  0.00  0.00    +0.000 A 
ATOM      3  N   UNL     1       1.624   8.540  19.691  0.00  0.00    +0.000 NA
ATOM      4  C   UNL     1       1.732   8.940  18.441  0.00  0.00    +0.000 A 
ATOM      5  N   UNL     1       1.285  10.073  17.879  0.00  0.00    +0.000 N 
ATOM      6  O   UNL     1       2.406   8.064  17.632  0.00  0.00    +0.000 OA
ATOM      7  H   UNL     1       1.245  10.159  16.872  0.00  0.00    +0.000 HD
ENDROOT
BRANCH   5   8
ATOM      8  C   UNL     1       1.004  11.252  18.600  0.00  0.00    +0.000 A 
ATOM      9  C   UNL     1      -0.217  11.434  19.264  0.00  0.00    +0.000 A 
ATOM     10  C   UNL     1      -0.510  12.620  19.941  0.00  0.00    +0.000 A 
ATOM     11  C   UNL     1       0.411  13.664  19.942  0.00  0.00    +0.000 A 
ATOM     12  C   UNL     1       1.619  13.517  19.265  0.00  0.00    +0.000 A 
ATOM     13  C   UNL     1       1.910  12.321  18.606  0.00  0.00    +0.000 A 
ATOM     14  F   UNL     1       3.073  12.214  17.946  0.00  0.00    +0.000 F 
ENDBRANCH   5   8
BRANCH   1  19
ATOM     15  C   UNL     1       5.573   4.973  17.010  0.00  0.00    +0.000 A 
ATOM     16  C   UNL     1       4.912   3.763  16.760  0.00  0.00    +0.000 A 
ATOM     17  C   UNL     1       3.569   3.631  17.100  0.00  0.00    +0.000 A 
ATOM     18  C   UNL     1       2.890   4.707  17.676  0.00  0.00    +0.000 A 
ATOM     19  C   UNL     1       3.537   5.930  17.928  0.00  0.00    +0.000 A 
ATOM     20  C   UNL     1       4.896   6.041  17.617  0.00  0.00    +0.000 A 
BRANCH  15  22
ATOM     21  O   UNL     1       7.369   5.942  15.793  0.00  0.00    +0.000 OA
ATOM     22  C   UNL     1       6.996   5.158  16.646  0.00  0.00    +0.000 C 
BRANCH  22  23
ATOM     23  O   UNL     1       7.824   4.329  17.318  0.00  0.00    +0.000 OA
ATOM     24  H   UNL     1       8.558   4.771  17.784  0.00  0.00    +0.000 HD
ENDBRANCH  22  23
ENDBRANCH  15  22
ENDBRANCH   1  19
TORSDOF 4
ENDMDL
MODEL 8
REMARK VINA RESULT:      -7.5      4.970      5.894
REMARK  Name = 
REMARK  4 active torsions:
REMARK  status: ('A' for Active; 'I' for Inactive)
REMARK    1  A    between atoms: C_2  and  O_3
REMARK    2  A    between atoms: C_2  and  C_4
REMARK    3  A    between atoms: C_8  and  C_9
REMARK    4  A    between atoms: N_13  and  C_14
REMARK                            x       y       z     vdW  Elec       q    Type
REMARK                         _______ _______ _______ _____ _____    ______ ____
ROOT
ATOM      1  C   UNL     1       3.832   6.659  18.128  0.00  0.00    +0.000 A 
ATOM      2  C   UNL     1       2.885   6.385  19.088  0.00  0.00    +0.000 A 
ATOM      3  N   UNL     1       1.918   7.344  19.087  0.00  0.00    +0.000 NA
ATOM      4  C   UNL     1       2.277   8.166  18.122  0.00  0.00    +0.000 A 
ATOM      5  N   UNL     1       1.677   9.294  17.712  0.00  0.00    +0.000 N 
ATOM      6  O   UNL     1       3.427   7.799  17.475  0.00  0.00    +0.000 OA
ATOM      7  H   UNL     1       1.933   9.713  16.828  0.00  0.00    +0.000 HD
ENDROOT
BRANCH   5   8
ATOM      8  C   UNL     1       0.802  10.056  18.514  0.00  0.00    +0.000 A 
ATOM      9  C   UNL     1       1.240  10.683  19.689  0.00  0.00    +0.000 A 
ATOM     10  C   UNL     1       0.362  11.400  20.504  0.00  0.00    +0.000 A 
ATOM     11  C   UNL     1      -0.988  11.480  20.169  0.00  0.00    +0.000 A 
ATOM     12  C   UNL     1      -1.452  10.842  19.022  0.00  0.00    +0.000 A 
ATOM     13  C   UNL     1      -0.562  10.142  18.204  0.00  0.00    +0.000 A 
ATOM     14  F   UNL     1      -1.039   9.520  17.114  0.00  0.00    +0.000 F 
ENDBRANCH   5   8
BRANCH   1  19
ATOM     15  C   UNL     1       6.478   5.060  15.962  0.00  0.00    +0.000 A 
ATOM     16  C   UNL     1       7.389   4.617  16.930  0.00  0.00    +0.000 A 
ATOM     17  C   UNL     1       7.141   4.872  18.275  0.00  0.00    +0.000 A 
ATOM     18  C   UNL     1       5.983   5.556  18.649  0.00  0.00    +0.000 A 
ATOM     19  C   UNL     1       5.055   6.003  17.691  0.00  0.00    +0.000 A 
ATOM     20  C   UNL     1       5.331   5.774  16.339  0.00  0.00    +0.000 A 
BRANCH  15  22
ATOM     21  O   UNL     1       6.040   3.992  13.885  0.00  0.00    +0.000 OA
ATOM     22  C   UNL     1       6.699   4.793  14.523  0.00  0.00    +0.000 C 
BRANCH  22  23
ATOM     23  O   UNL     1       7.738   5.486  14.011  0.00  0.00    +0.000 OA
ATOM     24  H   UNL     1       7.619   6.454  13.994  0.00  0.00    +0.000 HD
ENDBRANCH  22  23
ENDBRANCH  15  22
ENDBRANCH   1  19
TORSDOF 4
ENDMDL
MODEL 9
REMARK VINA RESULT:      -7.5      5.761      7.265
REMARK  Name = 
REMARK  4 active torsions:
REMARK  status: ('A' for Active; 'I' for Inactive)
REMARK    1  A    between atoms: C_2  and  O_3
REMARK    2  A    between atoms: C_2  and  C_4
REMARK    3  A    between atoms: C_8  and  C_9
REMARK    4  A    between atoms: N_13  and  C_14
REMARK                            x       y       z     vdW  Elec       q    Type
REMARK                         _______ _______ _______ _____ _____    ______ ____
ROOT
ATOM      1  C   UNL     1       2.255   7.489  18.568  0.00  0.00    +0.000 A 
ATOM      2  C   UNL     1       1.840   8.671  17.998  0.00  0.00    +0.000 A 
ATOM      3  N   UNL     1       1.321   9.498  18.947  0.00  0.00    +0.000 NA
ATOM      4  C   UNL     1       1.447   8.823  20.071  0.00  0.00    +0.000 A 
ATOM      5  N   UNL     1       1.074   9.177  21.310  0.00  0.00    +0.000 N 
ATOM      6  O   UNL     1       2.031   7.593  19.921  0.00  0.00    +0.000 OA
ATOM      7  H   UNL     1       1.420   8.664  22.110  0.00  0.00    +0.000 HD
ENDROOT
BRANCH   5   8
ATOM      8  C   UNL     1       0.081  10.140  21.589  0.00  0.00    +0.000 A 
ATOM      9  C   UNL     1      -0.305  11.093  20.635  0.00  0.00    +0.000 A 
ATOM     10  C   UNL     1      -1.257  12.072  20.928  0.00  0.00    +0.000 A 
ATOM     11  C   UNL     1      -1.822  12.133  22.199  0.00  0.00    +0.000 A 
ATOM     12  C   UNL     1      -1.433  11.214  23.171  0.00  0.00    +0.000 A 
ATOM     13  C   UNL     1      -0.494  10.228  22.863  0.00  0.00    +0.000 A 
ATOM     14  F   UNL     1      -0.122   9.368  23.824  0.00  0.00    +0.000 F 
ENDBRANCH   5   8
BRANCH   1  19
ATOM     15  C   UNL     1       2.906   3.864  17.744  0.00  0.00    +0.000 A 
ATOM     16  C   UNL     1       4.169   3.945  17.142  0.00  0.00    +0.000 A 
ATOM     17  C   UNL     1       4.778   5.187  16.989  0.00  0.00    +0.000 A 
ATOM     18  C   UNL     1       4.132   6.337  17.444  0.00  0.00    +0.000 A 
ATOM     19  C   UNL     1       2.866   6.273  18.055  0.00  0.00    +0.000 A 
ATOM     20  C   UNL     1       2.246   5.025  18.171  0.00  0.00    +0.000 A 
BRANCH  15  22
ATOM     21  O   UNL     1       1.051   2.453  18.206  0.00  0.00    +0.000 OA
ATOM     22  C   UNL     1       2.234   2.559  17.940  0.00  0.00    +0.000 C 
BRANCH  22  23
ATOM     23  O   UNL     1       3.079   1.511  17.848  0.00  0.00    +0.000 OA
ATOM     24  H   UNL     1       2.649   0.646  17.709  0.00  0.00    +0.000 HD
ENDBRANCH  22  23
ENDBRANCH  15  22
ENDBRANCH   1  19
TORSDOF 4
ENDMDL
