MODEL 1
REMARK VINA RESULT:      -7.8      0.000      0.000
REMARK  Name = 
REMARK  6 active torsions:
REMARK  status: ('A' for Active; 'I' for Inactive)
REMARK    1  A    between atoms: C_2  and  O_3
REMARK    2  A    between atoms: C_2  and  C_4
REMARK    3  A    between atoms: C_4  and  C_5
REMARK    4  A    between atoms: C_5  and  C_6
REMARK    5  A    between atoms: C_6  and  O_7
REMARK    6  A    between atoms: O_7  and  C_8
REMARK                            x       y       z     vdW  Elec       q    Type
REMARK                         _______ _______ _______ _____ _____    ______ ____
ROOT
ATOM      1  C   UNL     1       5.542   5.749  16.189  0.00  0.00    +0.000 A 
ATOM      2  C   UNL     1       4.776   6.867  16.522  0.00  0.00    +0.000 A 
ATOM      3  C   UNL     1       3.748   6.760  17.463  0.00  0.00    +0.000 A 
ATOM      4  C   UNL     1       3.491   5.549  18.101  0.00  0.00    +0.000 A 
ATOM      5  C   UNL     1       4.277   4.422  17.786  0.00  0.00    +0.000 A 
ATOM      6  C   UNL     1       5.285   4.527  16.816  0.00  0.00    +0.000 A 
ATOM      7  C   UNL     1       4.000   3.121  18.500  0.00  0.00    +0.000 C 
ATOM      8  N   UNL     1       3.373   3.417  19.763  0.00  0.00    +0.000 N 
ATOM      9  C   UNL     1       3.023   2.404  20.739  0.00  0.00    +0.000 C 
ATOM     10  C   UNL     1       1.908   3.122  21.515  0.00  0.00    +0.000 C 
ATOM     11  O   UNL     1       1.339   2.712  22.514  0.00  0.00    +0.000 OA
ATOM     12  N   UNL     1       1.669   4.310  20.877  0.00  0.00    +0.000 N 
ATOM     13  C   UNL     1       2.519   4.474  19.848  0.00  0.00    +0.000 C 
ATOM     14  N   UNL     1       2.484   5.509  19.088  0.00  0.00    +0.000 NA
ATOM     15  H   UNL     1       0.977   4.987  21.152  0.00  0.00    +0.000 HD
ENDROOT
BRANCH   1  16
ATOM     16  O   UNL     1       6.553   5.724  15.267  0.00  0.00    +0.000 OA
BRANCH  16  17
ATOM     17  C   UNL     1       6.871   4.452  14.695  0.00  0.00    +0.000 C 
BRANCH  17  18
ATOM     18  C   UNL     1       5.797   4.098  13.669  0.00  0.00    +0.000 C 
BRANCH  18  19
ATOM     19  C   UNL     1       6.358   3.526  12.371  0.00  0.00    +0.000 C 
BRANCH  19  21
ATOM     20  O   UNL     1       4.255   2.985  11.329  0.00  0.00    +0.000 OA
ATOM     21  C   UNL     1       5.366   2.626  11.687  0.00  0.00    +0.000 C 
BRANCH  21  22
ATOM     22  O   UNL     1       5.799   1.351  11.541  0.00  0.00    +0.000 OA
ATOM     23  H   UNL     1       6.452   1.238  10.821  0.00  0.00    +0.000 HD
ENDBRANCH  21  22
ENDBRANCH  19  21
ENDBRANCH  18  19
ENDBRANCH  17  18
ENDBRANCH  16  17
ENDBRANCH   1  16
TORSDOF 6
ENDMDL
MODEL 2
REMARK VINA RESULT:      -7.7      2.672      6.324
REMARK  Name = 
REMARK  6 active torsions:
REMARK  status: ('A' for Active; 'I' for Inactive)
REMARK    1  A    between atoms: C_2  and  O_3
REMARK    2  A    between atoms: C_2  and  C_4
REMARK    3  A    between atoms: C_4  and  C_5
REMARK    4  A    between atoms: C_5  and  C_6
REMARK    5  A    between atoms: C_6  and  O_7
REMARK    6  A    between atoms: O_7  and  C_8
REMARK                            x       y       z     vdW  Elec       q    Type
REMARK                         _______ _______ _______ _____ _____    ______ ____
ROOT
ATOM      1  C   UNL     1       2.733   5.081  20.423  0.00  0.00    +0.000 A 
ATOM      2  C   UNL     1       2.189   6.194  19.781  0.00  0.00    +0.000 A 
ATOM      3  C   UNL     1       2.803   6.718  18.640  0.00  0.00    +0.000 A 
ATOM      4  C   UNL     1       3.946   6.123  18.111  0.00  0.00    +0.000 A 
ATOM      5  C   UNL     1       4.487   4.984  18.741  0.00  0.00    +0.000 A 
ATOM      6  C   UNL     1       3.886   4.483  19.905  0.00  0.00    +0.000 A 
ATOM      7  C   UNL     1       5.715   4.338  18.145  0.00  0.00    +0.000 C 
ATOM      8  N   UNL     1       5.765   4.661  16.742  0.00  0.00    +0.000 N 
ATOM      9  C   UNL     1       6.781   4.155  15.840  0.00  0.00    +0.000 C 
ATOM     10  C   UNL     1       6.749   5.223  14.737  0.00  0.00    +0.000 C 
ATOM     11  O   UNL     1       7.372   5.202  13.688  0.00  0.00    +0.000 OA
ATOM     12  N   UNL     1       5.891   6.207  15.149  0.00  0.00    +0.000 N 
ATOM     13  C   UNL     1       5.326   5.881  16.325  0.00  0.00    +0.000 C 
ATOM     14  N   UNL     1       4.492   6.653  16.922  0.00  0.00    +0.000 NA
ATOM     15  H   UNL     1       5.681   7.047  14.635  0.00  0.00    +0.000 HD
ENDROOT
BRANCH   1  16
ATOM     16  O   UNL     1       2.240   4.496  21.557  0.00  0.00    +0.000 OA
BRANCH  16  17
ATOM     17  C   UNL     1       1.698   3.180  21.421  0.00  0.00    +0.000 C 
BRANCH  17  18
ATOM     18  C   UNL     1       0.749   3.166  20.224  0.00  0.00    +0.000 C 
BRANCH  18  19
ATOM     19  C   UNL     1       1.025   2.032  19.241  0.00  0.00    +0.000 C 
BRANCH  19  21
ATOM     20  O   UNL     1       2.803   1.977  17.618  0.00  0.00    +0.000 OA
ATOM     21  C   UNL     1       1.790   2.514  18.039  0.00  0.00    +0.000 C 
BRANCH  21  22
ATOM     22  O   UNL     1       1.280   3.639  17.485  0.00  0.00    +0.000 OA
ATOM     23  H   UNL     1       1.957   4.313  17.273  0.00  0.00    +0.000 HD
ENDBRANCH  21  22
ENDBRANCH  19  21
ENDBRANCH  18  19
ENDBRANCH  17  18
ENDBRANCH  16  17
ENDBRANCH   1  16
TORSDOF 6
ENDMDL
MODEL 3
REMARK VINA RESULT:      -7.6      1.221      1.386
REMARK  Name = 
REMARK  6 active torsions:
REMARK  status: ('A' for Active; 'I' for Inactive)
REMARK    1  A    between atoms: C_2  and  O_3
REMARK    2  A    between atoms: C_2  and  C_4
REMARK    3  A    between atoms: C_4  and  C_5
REMARK    4  A    between atoms: C_5  and  C_6
REMARK    5  A    between atoms: C_6  and  O_7
REMARK    6  A    between atoms: O_7  and  C_8
REMARK                            x       y       z     vdW  Elec       q    Type
REMARK                         _______ _______ _______ _____ _____    ______ ____
ROOT
ATOM      1  C   UNL     1       5.611   5.156  15.682  0.00  0.00    +0.000 A 
ATOM      2  C   UNL     1       5.976   6.139  16.603  0.00  0.00    +0.000 A 
ATOM      3  C   UNL     1       5.336   6.215  17.843  0.00  0.00    +0.000 A 
ATOM      4  C   UNL     1       4.345   5.298  18.189  0.00  0.00    +0.000 A 
ATOM      5  C   UNL     1       3.989   4.288  17.273  0.00  0.00    +0.000 A 
ATOM      6  C   UNL     1       4.612   4.238  16.017  0.00  0.00    +0.000 A 
ATOM      7  C   UNL     1       2.928   3.289  17.669  0.00  0.00    +0.000 C 
ATOM      8  N   UNL     1       2.890   3.210  19.107  0.00  0.00    +0.000 N 
ATOM      9  C   UNL     1       2.028   2.301  19.836  0.00  0.00    +0.000 C 
ATOM     10  C   UNL     1       1.921   3.022  21.188  0.00  0.00    +0.000 C 
ATOM     11  O   UNL     1       1.365   2.606  22.191  0.00  0.00    +0.000 OA
ATOM     12  N   UNL     1       2.566   4.223  21.059  0.00  0.00    +0.000 N 
ATOM     13  C   UNL     1       3.122   4.334  19.840  0.00  0.00    +0.000 C 
ATOM     14  N   UNL     1       3.773   5.380  19.476  0.00  0.00    +0.000 NA
ATOM     15  H   UNL     1       2.647   4.919  21.782  0.00  0.00    +0.000 HD
ENDROOT
BRANCH   1  16
ATOM     16  O   UNL     1       6.145   4.999  14.433  0.00  0.00    +0.000 OA
BRANCH  16  17
ATOM     17  C   UNL     1       6.265   3.659  13.947  0.00  0.00    +0.000 C 
BRANCH  17  18
ATOM     18  C   UNL     1       6.289   3.694  12.421  0.00  0.00    +0.000 C 
BRANCH  18  19
ATOM     19  C   UNL     1       5.578   2.510  11.773  0.00  0.00    +0.000 C 
BRANCH  19  21
ATOM     20  O   UNL     1       7.688   1.726  10.916  0.00  0.00    +0.000 OA
ATOM     21  C   UNL     1       6.555   1.471  11.294  0.00  0.00    +0.000 C 
BRANCH  21  22
ATOM     22  O   UNL     1       6.047   0.217  11.273  0.00  0.00    +0.000 OA
ATOM     23  H   UNL     1       5.344   0.067  11.937  0.00  0.00    +0.000 HD
ENDBRANCH  21  22
ENDBRANCH  19  21
ENDBRANCH  18  19
ENDBRANCH  17  18
ENDBRANCH  16  17
ENDBRANCH   1  16
TORSDOF 6
ENDMDL
MODEL 4
REMARK VINA RESULT:      -7.4      4.160      6.489
REMARK  Name = 
REMARK  6 active torsions:
REMARK  status: ('A' for Active; 'I' for Inactive)
REMARK    1  A    between atoms: C_2  and  O_3
REMARK    2  A    between atoms: C_2  and  C_4
REMARK    3  A    between atoms: C_4  and  C_5
REMARK    4  A    between atoms: C_5  and  C_6
REMARK    5  A    between atoms: C_6  and  O_7
REMARK    6  A    between atoms: O_7  and  C_8
REMARK                            x       y       z     vdW  Elec       q    Type
REMARK                         _______ _______ _______ _____ _____    ______ ____
ROOT
ATOM      1  C   UNL     1       7.128   6.873  17.692  0.00  0.00    +0.000 A 
ATOM      2  C   UNL     1       7.648   5.827  18.455  0.00  0.00    +0.000 A 
ATOM      3  C   UNL     1       6.796   4.866  19.006  0.00  0.00    +0.000 A 
ATOM      4  C   UNL     1       5.422   4.922  18.783  0.00  0.00    +0.000 A 
ATOM      5  C   UNL     1       4.893   5.963  17.994  0.00  0.00    +0.000 A 
ATOM      6  C   UNL     1       5.750   6.944  17.471  0.00  0.00    +0.000 A 
ATOM      7  C   UNL     1       3.404   6.001  17.743  0.00  0.00    +0.000 C 
ATOM      8  N   UNL     1       2.885   4.663  17.879  0.00  0.00    +0.000 N 
ATOM      9  C   UNL     1       1.497   4.316  17.645  0.00  0.00    +0.000 C 
ATOM     10  C   UNL     1       1.373   3.035  18.483  0.00  0.00    +0.000 C 
ATOM     11  O   UNL     1       0.401   2.299  18.544  0.00  0.00    +0.000 OA
ATOM     12  N   UNL     1       2.556   2.871  19.152  0.00  0.00    +0.000 N 
ATOM     13  C   UNL     1       3.433   3.829  18.805  0.00  0.00    +0.000 C 
ATOM     14  N   UNL     1       4.612   3.895  19.310  0.00  0.00    +0.000 NA
ATOM     15  H   UNL     1       2.762   2.122  19.792  0.00  0.00    +0.000 HD
ENDROOT
BRANCH   1  16
ATOM     16  O   UNL     1       7.856   7.884  17.125  0.00  0.00    +0.000 OA
BRANCH  16  17
ATOM     17  C   UNL     1       7.726   9.180  17.715  0.00  0.00    +0.000 C 
BRANCH  17  18
ATOM     18  C   UNL     1       8.832   9.356  18.752  0.00  0.00    +0.000 C 
BRANCH  18  19
ATOM     19  C   UNL     1       9.415  10.766  18.788  0.00  0.00    +0.000 C 
BRANCH  19  21
ATOM     20  O   UNL     1      10.669  12.026  20.414  0.00  0.00    +0.000 OA
ATOM     21  C   UNL     1       9.851  11.151  20.176  0.00  0.00    +0.000 C 
BRANCH  21  22
ATOM     22  O   UNL     1       9.285  10.401  21.150  0.00  0.00    +0.000 OA
ATOM     23  H   UNL     1       9.135  10.890  21.985  0.00  0.00    +0.000 HD
ENDBRANCH  21  22
ENDBRANCH  19  21
ENDBRANCH  18  19
ENDBRANCH  17  18
ENDBRANCH  16  17
ENDBRANCH   1  16
TORSDOF 6
ENDMDL
MODEL 5
REMARK VINA RESULT:      -7.4      3.781      6.057
REMARK  Name = 
REMARK  6 active torsions:
REMARK  status: ('A' for Active; 'I' for Inactive)
REMARK    1  A    between atoms: C_2  and  O_3
REMARK    2  A    between atoms: C_2  and  C_4
REMARK    3  A    between atoms: C_4  and  C_5
REMARK    4  A    between atoms: C_5  and  C_6
REMARK    5  A    between atoms: C_6  and  O_7
REMARK    6  A    between atoms: O_7  and  C_8
REMARK                            x       y       z     vdW  Elec       q    Type
REMARK                         _______ _______ _______ _____ _____    ______ ____
ROOT
ATOM      1  C   UNL     1       6.857   6.230  16.825  0.00  0.00    +0.000 A 
ATOM      2  C   UNL     1       6.927   5.190  15.899  0.00  0.00    +0.000 A 
ATOM      3  C   UNL     1       6.057   4.101  15.996  0.00  0.00    +0.000 A 
ATOM      4  C   UNL     1       5.092   4.049  17.000  0.00  0.00    +0.000 A 
ATOM      5  C   UNL     1       5.001   5.108  17.925  0.00  0.00    +0.000 A 
ATOM      6  C   UNL     1       5.899   6.183  17.842  0.00  0.00    +0.000 A 
ATOM      7  C   UNL     1       3.937   5.048  18.995  0.00  0.00    +0.000 C 
ATOM      8  N   UNL     1       2.863   4.210  18.526  0.00  0.00    +0.000 N 
ATOM      9  C   UNL     1       1.644   3.978  19.274  0.00  0.00    +0.000 C 
ATOM     10  C   UNL     1       1.190   2.635  18.680  0.00  0.00    +0.000 C 
ATOM     11  O   UNL     1       0.147   2.051  18.922  0.00  0.00    +0.000 OA
ATOM     12  N   UNL     1       2.175   2.214  17.827  0.00  0.00    +0.000 N 
ATOM     13  C   UNL     1       3.155   3.131  17.747  0.00  0.00    +0.000 C 
ATOM     14  N   UNL     1       4.198   2.957  17.018  0.00  0.00    +0.000 NA
ATOM     15  H   UNL     1       2.161   1.355  17.304  0.00  0.00    +0.000 HD
ENDROOT
BRANCH   1  16
ATOM     16  O   UNL     1       7.668   7.332  16.849  0.00  0.00    +0.000 OA
BRANCH  16  17
ATOM     17  C   UNL     1       7.964   7.887  18.133  0.00  0.00    +0.000 C 
BRANCH  17  18
ATOM     18  C   UNL     1       8.348   9.354  17.952  0.00  0.00    +0.000 C 
BRANCH  18  19
ATOM     19  C   UNL     1       9.231   9.895  19.073  0.00  0.00    +0.000 C 
BRANCH  19  21
ATOM     20  O   UNL     1       9.208  12.252  19.571  0.00  0.00    +0.000 OA
ATOM     21  C   UNL     1       9.585  11.340  18.851  0.00  0.00    +0.000 C 
BRANCH  21  22
ATOM     22  O   UNL     1      10.331  11.552  17.740  0.00  0.00    +0.000 OA
ATOM     23  H   UNL     1      11.010  12.248  17.851  0.00  0.00    +0.000 HD
ENDBRANCH  21  22
ENDBRANCH  19  21
ENDBRANCH  18  19
ENDBRANCH  17  18
ENDBRANCH  16  17
ENDBRANCH   1  16
TORSDOF 6
ENDMDL
MODEL 6
REMARK VINA RESULT:      -7.4      0.918      1.078
REMARK  Name = 
REMARK  6 active torsions:
REMARK  status: ('A' for Active; 'I' for Inactive)
REMARK    1  A    between atoms: C_2  and  O_3
REMARK    2  A    between atoms: C_2  and  C_4
REMARK    3  A    between atoms: C_4  and  C_5
REMARK    4  A    between atoms: C_5  and  C_6
REMARK    5  A    between atoms: C_6  and  O_7
REMARK    6  A    between atoms: O_7  and  C_8
REMARK                            x       y       z     vdW  Elec       q    Type
REMARK                         _______ _______ _______ _____ _____    ______ ____
ROOT
ATOM      1  C   UNL     1       5.809   5.093  15.363  0.00  0.00    +0.000 A 
ATOM      2  C   UNL     1       5.409   6.364  15.775  0.00  0.00    +0.000 A 
ATOM      3  C   UNL     1       4.544   6.512  16.863  0.00  0.00    +0.000 A 
ATOM      4  C   UNL     1       4.090   5.398  17.567  0.00  0.00    +0.000 A 
ATOM      5  C   UNL     1       4.510   4.112  17.171  0.00  0.00    +0.000 A 
ATOM      6  C   UNL     1       5.352   3.969  16.057  0.00  0.00    +0.000 A 
ATOM      7  C   UNL     1       4.027   2.916  17.955  0.00  0.00    +0.000 C 
ATOM      8  N   UNL     1       3.695   3.348  19.289  0.00  0.00    +0.000 N 
ATOM      9  C   UNL     1       3.254   2.448  20.335  0.00  0.00    +0.000 C 
ATOM     10  C   UNL     1       2.488   3.417  21.249  0.00  0.00    +0.000 C 
ATOM     11  O   UNL     1       1.993   3.154  22.333  0.00  0.00    +0.000 OA
ATOM     12  N   UNL     1       2.461   4.633  20.620  0.00  0.00    +0.000 N 
ATOM     13  C   UNL     1       3.158   4.587  19.471  0.00  0.00    +0.000 C 
ATOM     14  N   UNL     1       3.268   5.604  18.695  0.00  0.00    +0.000 NA
ATOM     15  H   UNL     1       2.012   5.460  20.976  0.00  0.00    +0.000 HD
ENDROOT
BRANCH   1  16
ATOM     16  O   UNL     1       6.628   4.821  14.301  0.00  0.00    +0.000 OA
BRANCH  16  17
ATOM     17  C   UNL     1       6.250   3.729  13.459  0.00  0.00    +0.000 C 
BRANCH  17  18
ATOM     18  C   UNL     1       6.937   3.898  12.106  0.00  0.00    +0.000 C 
BRANCH  18  19
ATOM     19  C   UNL     1       7.273   2.575  11.424  0.00  0.00    +0.000 C 
BRANCH  19  21
ATOM     20  O   UNL     1       4.922   2.097  11.208  0.00  0.00    +0.000 OA
ATOM     21  C   UNL     1       6.066   1.684  11.317  0.00  0.00    +0.000 C 
BRANCH  21  22
ATOM     22  O   UNL     1       6.357   0.364  11.400  0.00  0.00    +0.000 OA
ATOM     23  H   UNL     1       5.650  -0.168  11.819  0.00  0.00    +0.000 HD
ENDBRANCH  21  22
ENDBRANCH  19  21
ENDBRANCH  18  19
ENDBRANCH  17  18
ENDBRANCH  16  17
ENDBRANCH   1  16
TORSDOF 6
ENDMDL
MODEL 7
REMARK VINA RESULT:      -7.3      4.003      6.177
REMARK  Name = 
REMARK  6 active torsions:
REMARK  status: ('A' for Active; 'I' for Inactive)
REMARK    1  A    between atoms: C_2  and  O_3
REMARK    2  A    between atoms: C_2  and  C_4
REMARK    3  A    between atoms: C_4  and  C_5
REMARK    4  A    between atoms: C_5  and  C_6
REMARK    5  A    between atoms: C_6  and  O_7
REMARK    6  A    between atoms: O_7  and  C_8
REMARK                            x       y       z     vdW  Elec       q    Type
REMARK                         _______ _______ _______ _____ _____    ______ ____
ROOT
ATOM      1  C   UNL     1       7.191   6.944  17.666  0.00  0.00    +0.000 A 
ATOM      2  C   UNL     1       7.711   5.941  18.486  0.00  0.00    +0.000 A 
ATOM      3  C   UNL     1       6.861   4.991  19.060  0.00  0.00    +0.000 A 
ATOM      4  C   UNL     1       5.492   5.013  18.803  0.00  0.00    +0.000 A 
ATOM      5  C   UNL     1       4.964   6.009  17.957  0.00  0.00    +0.000 A 
ATOM      6  C   UNL     1       5.818   6.980  17.410  0.00  0.00    +0.000 A 
ATOM      7  C   UNL     1       3.482   6.009  17.670  0.00  0.00    +0.000 C 
ATOM      8  N   UNL     1       2.982   4.670  17.853  0.00  0.00    +0.000 N 
ATOM      9  C   UNL     1       1.606   4.289  17.603  0.00  0.00    +0.000 C 
ATOM     10  C   UNL     1       1.483   3.044  18.495  0.00  0.00    +0.000 C 
ATOM     11  O   UNL     1       0.523   2.295  18.566  0.00  0.00    +0.000 OA
ATOM     12  N   UNL     1       2.652   2.930  19.198  0.00  0.00    +0.000 N 
ATOM     13  C   UNL     1       3.522   3.887  18.829  0.00  0.00    +0.000 C 
ATOM     14  N   UNL     1       4.687   3.996  19.357  0.00  0.00    +0.000 NA
ATOM     15  H   UNL     1       2.855   2.214  19.875  0.00  0.00    +0.000 HD
ENDROOT
BRANCH   1  16
ATOM     16  O   UNL     1       7.915   7.940  17.071  0.00  0.00    +0.000 OA
BRANCH  16  17
ATOM     17  C   UNL     1       7.873   9.227  17.694  0.00  0.00    +0.000 C 
BRANCH  17  18
ATOM     18  C   UNL     1       8.942   9.276  18.783  0.00  0.00    +0.000 C 
BRANCH  18  19
ATOM     19  C   UNL     1       9.259  10.689  19.263  0.00  0.00    +0.000 C 
BRANCH  19  21
ATOM     20  O   UNL     1      10.769  11.434  17.540  0.00  0.00    +0.000 OA
ATOM     21  C   UNL     1       9.708  11.571  18.130  0.00  0.00    +0.000 C 
BRANCH  21  22
ATOM     22  O   UNL     1       8.843  12.574  17.846  0.00  0.00    +0.000 OA
ATOM     23  H   UNL     1       8.715  12.722  16.887  0.00  0.00    +0.000 HD
ENDBRANCH  21  22
ENDBRANCH  19  21
ENDBRANCH  18  19
ENDBRANCH  17  18
ENDBRANCH  16  17
ENDBRANCH   1  16
TORSDOF 6
ENDMDL
MODEL 8
REMARK VINA RESULT:      -7.3      1.048      1.281
REMARK  Name = 
REMARK  6 active torsions:
REMARK  status: ('A' for Active; 'I' for Inactive)
REMARK    1  A    between atoms: C_2  and  O_3
REMARK    2  A    between atoms: C_2  and  C_4
REMARK    3  A    between atoms: C_4  and  C_5
REMARK    4  A    between atoms: C_5  and  C_6
REMARK    5  A    between atoms: C_6  and  O_7
REMARK    6  A    between atoms: O_7  and  C_8
REMARK                            x       y       z     vdW  Elec       q    Type
REMARK                         _______ _______ _______ _____ _____    ______ ____
ROOT
ATOM      1  C   UNL     1       6.706   4.950  16.320  0.00  0.00    +0.000 A 
ATOM      2  C   UNL     1       6.751   6.097  17.113  0.00  0.00    +0.000 A 
ATOM      3  C   UNL     1       5.834   6.269  18.154  0.00  0.00    +0.000 A 
ATOM      4  C   UNL     1       4.881   5.292  18.432  0.00  0.00    +0.000 A 
ATOM      5  C   UNL     1       4.845   4.120  17.649  0.00  0.00    +0.000 A 
ATOM      6  C   UNL     1       5.747   3.968  16.585  0.00  0.00    +0.000 A 
ATOM      7  C   UNL     1       3.821   3.060  17.974  0.00  0.00    +0.000 C 
ATOM      8  N   UNL     1       3.455   3.189  19.362  0.00  0.00    +0.000 N 
ATOM      9  C   UNL     1       2.536   2.292  20.034  0.00  0.00    +0.000 C 
ATOM     10  C   UNL     1       2.048   3.185  21.185  0.00  0.00    +0.000 C 
ATOM     11  O   UNL     1       1.315   2.851  22.101  0.00  0.00    +0.000 OA
ATOM     12  N   UNL     1       2.589   4.428  20.993  0.00  0.00    +0.000 N 
ATOM     13  C   UNL     1       3.402   4.430  19.922  0.00  0.00    +0.000 C 
ATOM     14  N   UNL     1       4.018   5.486  19.531  0.00  0.00    +0.000 NA
ATOM     15  H   UNL     1       2.433   5.226  21.585  0.00  0.00    +0.000 HD
ENDROOT
BRANCH   1  16
ATOM     16  O   UNL     1       7.529   4.681  15.261  0.00  0.00    +0.000 OA
BRANCH  16  17
ATOM     17  C   UNL     1       7.027   4.993  13.959  0.00  0.00    +0.000 C 
BRANCH  17  18
ATOM     18  C   UNL     1       6.177   3.822  13.472  0.00  0.00    +0.000 C 
BRANCH  18  19
ATOM     19  C   UNL     1       6.577   3.311  12.091  0.00  0.00    +0.000 C 
BRANCH  19  21
ATOM     20  O   UNL     1       5.767   1.237  11.174  0.00  0.00    +0.000 OA
ATOM     21  C   UNL     1       5.538   2.386  11.520  0.00  0.00    +0.000 C 
BRANCH  21  22
ATOM     22  O   UNL     1       4.320   2.959  11.375  0.00  0.00    +0.000 OA
ATOM     23  H   UNL     1       4.084   3.149  10.444  0.00  0.00    +0.000 HD
ENDBRANCH  21  22
ENDBRANCH  19  21
ENDBRANCH  18  19
ENDBRANCH  17  18
ENDBRANCH  16  17
ENDBRANCH   1  16
TORSDOF 6
ENDMDL
MODEL 9
REMARK VINA RESULT:      -7.3      3.276      7.002
REMARK  Name = 
REMARK  6 active torsions:
REMARK  status: ('A' for Active; 'I' for Inactive)
REMARK    1  A    between atoms: C_2  and  O_3
REMARK    2  A    between atoms: C_2  and  C_4
REMARK    3  A    between atoms: C_4  and  C_5
REMARK    4  A    between atoms: C_5  and  C_6
REMARK    5  A    between atoms: C_6  and  O_7
REMARK    6  A    between atoms: O_7  and  C_8
REMARK                            x       y       z     vdW  Elec       q    Type
REMARK                         _______ _______ _______ _____ _____    ______ ____
ROOT
ATOM      1  C   UNL     1       4.825   4.479  19.171  0.00  0.00    +0.000 A 
ATOM      2  C   UNL     1       5.698   5.562  19.282  0.00  0.00    +0.000 A 
ATOM      3  C   UNL     1       6.552   5.888  18.225  0.00  0.00    +0.000 A 
ATOM      4  C   UNL     1       6.528   5.158  17.039  0.00  0.00    +0.000 A 
ATOM      5  C   UNL     1       5.631   4.078  16.912  0.00  0.00    +0.000 A 
ATOM      6  C   UNL     1       4.800   3.734  17.989  0.00  0.00    +0.000 A 
ATOM      7  C   UNL     1       5.601   3.307  15.614  0.00  0.00    +0.000 C 
ATOM      8  N   UNL     1       6.079   4.167  14.561  0.00  0.00    +0.000 N 
ATOM      9  C   UNL     1       6.127   3.775  13.167  0.00  0.00    +0.000 C 
ATOM     10  C   UNL     1       7.217   4.719  12.636  0.00  0.00    +0.000 C 
ATOM     11  O   UNL     1       7.568   4.842  11.474  0.00  0.00    +0.000 OA
ATOM     12  N   UNL     1       7.724   5.399  13.711  0.00  0.00    +0.000 N 
ATOM     13  C   UNL     1       7.064   5.067  14.835  0.00  0.00    +0.000 C 
ATOM     14  N   UNL     1       7.366   5.566  15.980  0.00  0.00    +0.000 NA
ATOM     15  H   UNL     1       8.465   6.079  13.671  0.00  0.00    +0.000 HD
ENDROOT
BRANCH   1  16
ATOM     16  O   UNL     1       3.964   4.049  20.143  0.00  0.00    +0.000 OA
BRANCH  16  17
ATOM     17  C   UNL     1       2.739   4.772  20.286  0.00  0.00    +0.000 C 
BRANCH  17  18
ATOM     18  C   UNL     1       1.711   3.862  20.953  0.00  0.00    +0.000 C 
BRANCH  18  19
ATOM     19  C   UNL     1       0.675   3.300  19.985  0.00  0.00    +0.000 C 
BRANCH  19  21
ATOM     20  O   UNL     1       1.172   3.319  17.628  0.00  0.00    +0.000 OA
ATOM     21  C   UNL     1       1.315   2.793  18.721  0.00  0.00    +0.000 C 
BRANCH  21  22
ATOM     22  O   UNL     1       2.035   1.660  18.893  0.00  0.00    +0.000 OA
ATOM     23  H   UNL     1       2.932   1.702  18.503  0.00  0.00    +0.000 HD
ENDBRANCH  21  22
ENDBRANCH  19  21
ENDBRANCH  18  19
ENDBRANCH  17  18
ENDBRANCH  16  17
ENDBRANCH   1  16
TORSDOF 6
ENDMDL
