MODEL 1
REMARK VINA RESULT:      -8.0      0.000      0.000
REMARK  Name = 
REMARK  7 active torsions:
REMARK  status: ('A' for Active; 'I' for Inactive)
REMARK    1  A    between atoms: C_1  and  C_2
REMARK    2  A    between atoms: C_2  and  C_3
REMARK    3  A    between atoms: C_2  and  C_4
REMARK    4  A    between atoms: C_9  and  C_11
REMARK    5  A    between atoms: C_11  and  C_12
REMARK    6  A    between atoms: C_12  and  C_13
REMARK    7  A    between atoms: N_15  and  C_16
REMARK                            x       y       z     vdW  Elec       q    Type
REMARK                         _______ _______ _______ _____ _____    ______ ____
ROOT
ATOM      1  C   UNL     1       6.320   3.768  12.348  0.00  0.00    +0.000 A 
ATOM      2  N   UNL     1       7.414   4.495  12.236  0.00  0.00    +0.000 NA
ATOM      3  N   UNL     1       7.702   5.177  13.407  0.00  0.00    +0.000 NA
ATOM      4  C   UNL     1       6.779   4.989  14.324  0.00  0.00    +0.000 A 
ATOM      5  N   UNL     1       6.816   5.592  15.556  0.00  0.00    +0.000 N 
ATOM      6  C   UNL     1       5.783   5.645  16.461  0.00  0.00    +0.000 C 
ATOM      7  O   UNL     1       4.645   5.205  16.306  0.00  0.00    +0.000 OA
ATOM      8  S   UNL     1       5.566   3.882  13.883  0.00  0.00    +0.000 S 
ATOM      9  H   UNL     1       7.689   6.067  15.754  0.00  0.00    +0.000 HD
ENDROOT
BRANCH   1  11
ATOM     10  C   UNL     1       6.124   1.455  11.455  0.00  0.00    +0.000 C 
ATOM     11  C   UNL     1       5.718   2.916  11.268  0.00  0.00    +0.000 C 
ATOM     12  C   UNL     1       4.199   3.068  11.238  0.00  0.00    +0.000 C 
ENDBRANCH   1  11
BRANCH   6  13
ATOM     13  C   UNL     1       6.150   6.347  17.749  0.00  0.00    +0.000 C 
BRANCH  13  14
ATOM     14  C   UNL     1       5.017   6.175  18.756  0.00  0.00    +0.000 C 
BRANCH  14  15
ATOM     15  C   UNL     1       4.984   4.752  19.281  0.00  0.00    +0.000 C 
ATOM     16  O   UNL     1       5.989   4.052  19.339  0.00  0.00    +0.000 OA
ATOM     17  N   UNL     1       3.732   4.351  19.672  0.00  0.00    +0.000 N 
ATOM     18  H   UNL     1       3.021   5.067  19.760  0.00  0.00    +0.000 HD
BRANCH  17  19
ATOM     19  C   UNL     1       3.405   3.014  20.171  0.00  0.00    +0.000 C 
ATOM     20  C   UNL     1       2.082   3.067  20.952  0.00  0.00    +0.000 C 
ATOM     21  C   UNL     1       0.889   3.371  20.040  0.00  0.00    +0.000 C 
ATOM     22  C   UNL     1       0.798   2.401  18.862  0.00  0.00    +0.000 C 
ATOM     23  C   UNL     1       2.120   2.270  18.110  0.00  0.00    +0.000 C 
ATOM     24  C   UNL     1       3.276   1.959  19.060  0.00  0.00    +0.000 C 
ENDBRANCH  17  19
ENDBRANCH  14  15
ENDBRANCH  13  14
ENDBRANCH   6  13
TORSDOF 5
ENDMDL
MODEL 2
REMARK VINA RESULT:      -7.9      1.350      1.473
REMARK  Name = 
REMARK  7 active torsions:
REMARK  status: ('A' for Active; 'I' for Inactive)
REMARK    1  A    between atoms: C_1  and  C_2
REMARK    2  A    between atoms: C_2  and  C_3
REMARK    3  A    between atoms: C_2  and  C_4
REMARK    4  A    between atoms: C_9  and  C_11
REMARK    5  A    between atoms: C_11  and  C_12
REMARK    6  A    between atoms: C_12  and  C_13
REMARK    7  A    between atoms: N_15  and  C_16
REMARK                            x       y       z     vdW  Elec       q    Type
REMARK                         _______ _______ _______ _____ _____    ______ ____
ROOT
ATOM      1  C   UNL     1       6.321   3.751  12.246  0.00  0.00    +0.000 A 
ATOM      2  N   UNL     1       7.494   4.315  12.038  0.00  0.00    +0.000 NA
ATOM      3  N   UNL     1       7.897   5.082  13.120  0.00  0.00    +0.000 NA
ATOM      4  C   UNL     1       6.982   5.119  14.063  0.00  0.00    +0.000 A 
ATOM      5  N   UNL     1       7.127   5.848  15.217  0.00  0.00    +0.000 N 
ATOM      6  C   UNL     1       6.133   6.135  16.122  0.00  0.00    +0.000 C 
ATOM      7  O   UNL     1       4.945   5.829  16.032  0.00  0.00    +0.000 OA
ATOM      8  S   UNL     1       5.627   4.133  13.767  0.00  0.00    +0.000 S 
ATOM      9  H   UNL     1       8.058   6.226  15.348  0.00  0.00    +0.000 HD
ENDROOT
BRANCH   1  11
ATOM     10  C   UNL     1       5.980   1.406  11.494  0.00  0.00    +0.000 C 
ATOM     11  C   UNL     1       5.589   2.867  11.279  0.00  0.00    +0.000 C 
ATOM     12  C   UNL     1       4.078   3.058  11.403  0.00  0.00    +0.000 C 
ENDBRANCH   1  11
BRANCH   6  13
ATOM     13  C   UNL     1       6.619   6.924  17.315  0.00  0.00    +0.000 C 
BRANCH  13  14
ATOM     14  C   UNL     1       7.513   6.036  18.176  0.00  0.00    +0.000 C 
BRANCH  14  15
ATOM     15  C   UNL     1       6.687   5.296  19.212  0.00  0.00    +0.000 C 
ATOM     16  O   UNL     1       7.099   5.080  20.346  0.00  0.00    +0.000 OA
ATOM     17  N   UNL     1       5.458   4.908  18.742  0.00  0.00    +0.000 N 
ATOM     18  H   UNL     1       5.150   5.304  17.862  0.00  0.00    +0.000 HD
BRANCH  17  19
ATOM     19  C   UNL     1       4.480   4.138  19.512  0.00  0.00    +0.000 C 
ATOM     20  C   UNL     1       3.276   5.033  19.853  0.00  0.00    +0.000 C 
ATOM     21  C   UNL     1       2.474   5.416  18.605  0.00  0.00    +0.000 C 
ATOM     22  C   UNL     1       2.044   4.194  17.795  0.00  0.00    +0.000 C 
ATOM     23  C   UNL     1       3.205   3.246  17.504  0.00  0.00    +0.000 C 
ATOM     24  C   UNL     1       3.968   2.888  18.778  0.00  0.00    +0.000 C 
ENDBRANCH  17  19
ENDBRANCH  14  15
ENDBRANCH  13  14
ENDBRANCH   6  13
TORSDOF 5
ENDMDL
MODEL 3
REMARK VINA RESULT:      -7.7      1.176      1.722
REMARK  Name = 
REMARK  7 active torsions:
REMARK  status: ('A' for Active; 'I' for Inactive)
REMARK    1  A    between atoms: C_1  and  C_2
REMARK    2  A    between atoms: C_2  and  C_3
REMARK    3  A    between atoms: C_2  and  C_4
REMARK    4  A    between atoms: C_9  and  C_11
REMARK    5  A    between atoms: C_11  and  C_12
REMARK    6  A    between atoms: C_12  and  C_13
REMARK    7  A    between atoms: N_15  and  C_16
REMARK                            x       y       z     vdW  Elec       q    Type
REMARK                         _______ _______ _______ _____ _____    ______ ____
ROOT
ATOM      1  C   UNL     1       6.395   3.786  12.368  0.00  0.00    +0.000 A 
ATOM      2  N   UNL     1       7.236   4.780  12.162  0.00  0.00    +0.000 NA
ATOM      3  N   UNL     1       7.656   5.355  13.350  0.00  0.00    +0.000 NA
ATOM      4  C   UNL     1       7.062   4.818  14.392  0.00  0.00    +0.000 A 
ATOM      5  N   UNL     1       7.279   5.245  15.679  0.00  0.00    +0.000 N 
ATOM      6  C   UNL     1       6.526   4.911  16.779  0.00  0.00    +0.000 C 
ATOM      7  O   UNL     1       5.512   4.215  16.793  0.00  0.00    +0.000 OA
ATOM      8  S   UNL     1       6.052   3.500  14.024  0.00  0.00    +0.000 S 
ATOM      9  H   UNL     1       8.047   5.901  15.769  0.00  0.00    +0.000 HD
ENDROOT
BRANCH   1  11
ATOM     10  C   UNL     1       6.144   1.488  11.452  0.00  0.00    +0.000 C 
ATOM     11  C   UNL     1       5.741   2.954  11.304  0.00  0.00    +0.000 C 
ATOM     12  C   UNL     1       4.222   3.116  11.343  0.00  0.00    +0.000 C 
ENDBRANCH   1  11
BRANCH   6  13
ATOM     13  C   UNL     1       7.046   5.511  18.065  0.00  0.00    +0.000 C 
BRANCH  13  14
ATOM     14  C   UNL     1       6.080   5.182  19.200  0.00  0.00    +0.000 C 
BRANCH  14  15
ATOM     15  C   UNL     1       4.702   5.746  18.905  0.00  0.00    +0.000 C 
ATOM     16  O   UNL     1       4.542   6.837  18.368  0.00  0.00    +0.000 OA
ATOM     17  N   UNL     1       3.685   4.914  19.298  0.00  0.00    +0.000 N 
ATOM     18  H   UNL     1       3.932   3.965  19.552  0.00  0.00    +0.000 HD
BRANCH  17  19
ATOM     19  C   UNL     1       2.261   5.229  19.178  0.00  0.00    +0.000 C 
ATOM     20  C   UNL     1       1.678   4.508  17.950  0.00  0.00    +0.000 C 
ATOM     21  C   UNL     1       1.658   2.987  18.135  0.00  0.00    +0.000 C 
ATOM     22  C   UNL     1       0.938   2.569  19.416  0.00  0.00    +0.000 C 
ATOM     23  C   UNL     1       1.444   3.323  20.644  0.00  0.00    +0.000 C 
ATOM     24  C   UNL     1       1.438   4.833  20.414  0.00  0.00    +0.000 C 
ENDBRANCH  17  19
ENDBRANCH  14  15
ENDBRANCH  13  14
ENDBRANCH   6  13
TORSDOF 5
ENDMDL
MODEL 4
REMARK VINA RESULT:      -7.7      1.302      1.973
REMARK  Name = 
REMARK  7 active torsions:
REMARK  status: ('A' for Active; 'I' for Inactive)
REMARK    1  A    between atoms: C_1  and  C_2
REMARK    2  A    between atoms: C_2  and  C_3
REMARK    3  A    between atoms: C_2  and  C_4
REMARK    4  A    between atoms: C_9  and  C_11
REMARK    5  A    between atoms: C_11  and  C_12
REMARK    6  A    between atoms: C_12  and  C_13
REMARK    7  A    between atoms: N_15  and  C_16
REMARK                            x       y       z     vdW  Elec       q    Type
REMARK                         _______ _______ _______ _____ _____    ______ ____
ROOT
ATOM      1  C   UNL     1       6.750   4.180  13.051  0.00  0.00    +0.000 A 
ATOM      2  N   UNL     1       7.572   5.183  13.290  0.00  0.00    +0.000 NA
ATOM      3  N   UNL     1       7.659   5.466  14.643  0.00  0.00    +0.000 NA
ATOM      4  C   UNL     1       6.850   4.715  15.356  0.00  0.00    +0.000 A 
ATOM      5  N   UNL     1       6.722   4.835  16.717  0.00  0.00    +0.000 N 
ATOM      6  C   UNL     1       5.735   4.270  17.489  0.00  0.00    +0.000 C 
ATOM      7  O   UNL     1       4.780   3.604  17.092  0.00  0.00    +0.000 OA
ATOM      8  S   UNL     1       6.020   3.530  14.460  0.00  0.00    +0.000 S 
ATOM      9  H   UNL     1       7.415   5.441  17.141  0.00  0.00    +0.000 HD
ENDROOT
BRANCH   1  11
ATOM     10  C   UNL     1       7.376   2.489  11.339  0.00  0.00    +0.000 C 
ATOM     11  C   UNL     1       6.416   3.622  11.698  0.00  0.00    +0.000 C 
ATOM     12  C   UNL     1       4.963   3.153  11.645  0.00  0.00    +0.000 C 
ENDBRANCH   1  11
BRANCH   6  13
ATOM     13  C   UNL     1       5.893   4.554  18.965  0.00  0.00    +0.000 C 
BRANCH  13  14
ATOM     14  C   UNL     1       5.339   5.942  19.273  0.00  0.00    +0.000 C 
BRANCH  14  15
ATOM     15  C   UNL     1       3.866   6.016  18.919  0.00  0.00    +0.000 C 
ATOM     16  O   UNL     1       3.399   6.926  18.244  0.00  0.00    +0.000 OA
ATOM     17  N   UNL     1       3.136   4.972  19.430  0.00  0.00    +0.000 N 
ATOM     18  H   UNL     1       3.651   4.184  19.805  0.00  0.00    +0.000 HD
BRANCH  17  19
ATOM     19  C   UNL     1       1.688   4.820  19.282  0.00  0.00    +0.000 C 
ATOM     20  C   UNL     1       1.385   3.985  18.026  0.00  0.00    +0.000 C 
ATOM     21  C   UNL     1       1.849   2.532  18.178  0.00  0.00    +0.000 C 
ATOM     22  C   UNL     1       1.281   1.871  19.432  0.00  0.00    +0.000 C 
ATOM     23  C   UNL     1       1.500   2.712  20.688  0.00  0.00    +0.000 C 
ATOM     24  C   UNL     1       1.016   4.147  20.490  0.00  0.00    +0.000 C 
ENDBRANCH  17  19
ENDBRANCH  14  15
ENDBRANCH  13  14
ENDBRANCH   6  13
TORSDOF 5
ENDMDL
MODEL 5
REMARK VINA RESULT:      -7.6      4.574      8.664
REMARK  Name = 
REMARK  7 active torsions:
REMARK  status: ('A' for Active; 'I' for Inactive)
REMARK    1  A    between atoms: C_1  and  C_2
REMARK    2  A    between atoms: C_2  and  C_3
REMARK    3  A    between atoms: C_2  and  C_4
REMARK    4  A    between atoms: C_9  and  C_11
REMARK    5  A    between atoms: C_11  and  C_12
REMARK    6  A    between atoms: C_12  and  C_13
REMARK    7  A    between atoms: N_15  and  C_16
REMARK                            x       y       z     vdW  Elec       q    Type
REMARK                         _______ _______ _______ _____ _____    ______ ____
ROOT
ATOM      1  C   UNL     1       3.168   3.846  19.787  0.00  0.00    +0.000 A 
ATOM      2  N   UNL     1       4.079   2.898  19.881  0.00  0.00    +0.000 NA
ATOM      3  N   UNL     1       5.327   3.339  19.474  0.00  0.00    +0.000 NA
ATOM      4  C   UNL     1       5.288   4.575  19.026  0.00  0.00    +0.000 A 
ATOM      5  N   UNL     1       6.390   5.223  18.525  0.00  0.00    +0.000 N 
ATOM      6  C   UNL     1       6.381   6.403  17.820  0.00  0.00    +0.000 C 
ATOM      7  O   UNL     1       5.393   7.052  17.481  0.00  0.00    +0.000 OA
ATOM      8  S   UNL     1       3.773   5.331  19.180  0.00  0.00    +0.000 S 
ATOM      9  H   UNL     1       7.260   4.726  18.673  0.00  0.00    +0.000 HD
ENDROOT
BRANCH   1  11
ATOM     10  C   UNL     1       1.026   2.747  19.162  0.00  0.00    +0.000 C 
ATOM     11  C   UNL     1       1.714   3.704  20.135  0.00  0.00    +0.000 C 
ATOM     12  C   UNL     1       1.543   3.241  21.580  0.00  0.00    +0.000 C 
ENDBRANCH   1  11
BRANCH   6  13
ATOM     13  C   UNL     1       7.763   6.884  17.440  0.00  0.00    +0.000 C 
BRANCH  13  14
ATOM     14  C   UNL     1       8.320   7.755  18.563  0.00  0.00    +0.000 C 
BRANCH  14  15
ATOM     15  C   UNL     1       8.242   9.222  18.184  0.00  0.00    +0.000 C 
ATOM     16  O   UNL     1       7.608   9.615  17.210  0.00  0.00    +0.000 OA
ATOM     17  N   UNL     1       8.945  10.036  19.035  0.00  0.00    +0.000 N 
ATOM     18  H   UNL     1       9.268   9.630  19.906  0.00  0.00    +0.000 HD
BRANCH  17  19
ATOM     19  C   UNL     1       9.080  11.485  18.878  0.00  0.00    +0.000 C 
ATOM     20  C   UNL     1       9.606  12.097  20.187  0.00  0.00    +0.000 C 
ATOM     21  C   UNL     1      11.047  11.669  20.481  0.00  0.00    +0.000 C 
ATOM     22  C   UNL     1      11.989  11.964  19.315  0.00  0.00    +0.000 C 
ATOM     23  C   UNL     1      11.458  11.434  17.985  0.00  0.00    +0.000 C 
ATOM     24  C   UNL     1      10.023  11.893  17.733  0.00  0.00    +0.000 C 
ENDBRANCH  17  19
ENDBRANCH  14  15
ENDBRANCH  13  14
ENDBRANCH   6  13
TORSDOF 5
ENDMDL
MODEL 6
REMARK VINA RESULT:      -7.2      1.119      1.410
REMARK  Name = 
REMARK  7 active torsions:
REMARK  status: ('A' for Active; 'I' for Inactive)
REMARK    1  A    between atoms: C_1  and  C_2
REMARK    2  A    between atoms: C_2  and  C_3
REMARK    3  A    between atoms: C_2  and  C_4
REMARK    4  A    between atoms: C_9  and  C_11
REMARK    5  A    between atoms: C_11  and  C_12
REMARK    6  A    between atoms: C_12  and  C_13
REMARK    7  A    between atoms: N_15  and  C_16
REMARK                            x       y       z     vdW  Elec       q    Type
REMARK                         _______ _______ _______ _____ _____    ______ ____
ROOT
ATOM      1  C   UNL     1       6.132   3.378  12.438  0.00  0.00    +0.000 A 
ATOM      2  N   UNL     1       7.121   4.091  11.937  0.00  0.00    +0.000 NA
ATOM      3  N   UNL     1       7.699   4.914  12.890  0.00  0.00    +0.000 NA
ATOM      4  C   UNL     1       7.078   4.838  14.045  0.00  0.00    +0.000 A 
ATOM      5  N   UNL     1       7.436   5.589  15.137  0.00  0.00    +0.000 N 
ATOM      6  C   UNL     1       6.696   5.749  16.285  0.00  0.00    +0.000 C 
ATOM      7  O   UNL     1       5.579   5.288  16.511  0.00  0.00    +0.000 OA
ATOM      8  S   UNL     1       5.835   3.678  14.100  0.00  0.00    +0.000 S 
ATOM      9  H   UNL     1       8.310   6.089  15.022  0.00  0.00    +0.000 HD
ENDROOT
BRANCH   1  11
ATOM     10  C   UNL     1       4.242   3.132  10.842  0.00  0.00    +0.000 C 
ATOM     11  C   UNL     1       5.286   2.396  11.681  0.00  0.00    +0.000 C 
ATOM     12  C   UNL     1       6.152   1.487  10.813  0.00  0.00    +0.000 C 
ENDBRANCH   1  11
BRANCH   6  13
ATOM     13  C   UNL     1       7.382   6.607  17.324  0.00  0.00    +0.000 C 
BRANCH  13  14
ATOM     14  C   UNL     1       6.400   6.913  18.451  0.00  0.00    +0.000 C 
BRANCH  14  15
ATOM     15  C   UNL     1       6.064   5.649  19.220  0.00  0.00    +0.000 C 
ATOM     16  O   UNL     1       6.921   4.981  19.790  0.00  0.00    +0.000 OA
ATOM     17  N   UNL     1       4.726   5.349  19.204  0.00  0.00    +0.000 N 
ATOM     18  H   UNL     1       4.093   6.066  18.871  0.00  0.00    +0.000 HD
BRANCH  17  19
ATOM     19  C   UNL     1       4.133   4.163  19.824  0.00  0.00    +0.000 C 
ATOM     20  C   UNL     1       2.661   4.445  20.168  0.00  0.00    +0.000 C 
ATOM     21  C   UNL     1       1.801   4.616  18.910  0.00  0.00    +0.000 C 
ATOM     22  C   UNL     1       1.930   3.430  17.956  0.00  0.00    +0.000 C 
ATOM     23  C   UNL     1       3.384   3.076  17.654  0.00  0.00    +0.000 C 
ATOM     24  C   UNL     1       4.197   2.909  18.936  0.00  0.00    +0.000 C 
ENDBRANCH  17  19
ENDBRANCH  14  15
ENDBRANCH  13  14
ENDBRANCH   6  13
TORSDOF 5
ENDMDL
MODEL 7
REMARK VINA RESULT:      -7.2      4.581      7.878
REMARK  Name = 
REMARK  7 active torsions:
REMARK  status: ('A' for Active; 'I' for Inactive)
REMARK    1  A    between atoms: C_1  and  C_2
REMARK    2  A    between atoms: C_2  and  C_3
REMARK    3  A    between atoms: C_2  and  C_4
REMARK    4  A    between atoms: C_9  and  C_11
REMARK    5  A    between atoms: C_11  and  C_12
REMARK    6  A    between atoms: C_12  and  C_13
REMARK    7  A    between atoms: N_15  and  C_16
REMARK                            x       y       z     vdW  Elec       q    Type
REMARK                         _______ _______ _______ _____ _____    ______ ____
ROOT
ATOM      1  C   UNL     1       0.413  10.002  21.244  0.00  0.00    +0.000 A 
ATOM      2  N   UNL     1       0.383   8.877  21.932  0.00  0.00    +0.000 NA
ATOM      3  N   UNL     1       1.116   7.876  21.315  0.00  0.00    +0.000 NA
ATOM      4  C   UNL     1       1.605   8.267  20.160  0.00  0.00    +0.000 A 
ATOM      5  N   UNL     1       2.332   7.442  19.338  0.00  0.00    +0.000 N 
ATOM      6  C   UNL     1       2.659   7.692  18.026  0.00  0.00    +0.000 C 
ATOM      7  O   UNL     1       2.324   8.667  17.357  0.00  0.00    +0.000 OA
ATOM      8  S   UNL     1       1.322   9.904  19.794  0.00  0.00    +0.000 S 
ATOM      9  H   UNL     1       2.588   6.560  19.766  0.00  0.00    +0.000 HD
ENDROOT
BRANCH   1  11
ATOM     10  C   UNL     1      -1.156  11.767  20.466  0.00  0.00    +0.000 C 
ATOM     11  C   UNL     1      -0.281  11.279  21.620  0.00  0.00    +0.000 C 
ATOM     12  C   UNL     1      -1.102  11.098  22.895  0.00  0.00    +0.000 C 
ENDBRANCH   1  11
BRANCH   6  13
ATOM     13  C   UNL     1       3.505   6.605  17.403  0.00  0.00    +0.000 C 
BRANCH  13  14
ATOM     14  C   UNL     1       4.786   6.437  18.214  0.00  0.00    +0.000 C 
BRANCH  14  15
ATOM     15  C   UNL     1       4.908   5.013  18.725  0.00  0.00    +0.000 C 
ATOM     16  O   UNL     1       5.921   4.599  19.277  0.00  0.00    +0.000 OA
ATOM     17  N   UNL     1       3.781   4.263  18.503  0.00  0.00    +0.000 N 
ATOM     18  H   UNL     1       2.943   4.757  18.217  0.00  0.00    +0.000 HD
BRANCH  17  19
ATOM     19  C   UNL     1       3.642   2.848  18.849  0.00  0.00    +0.000 C 
ATOM     20  C   UNL     1       3.483   2.706  20.372  0.00  0.00    +0.000 C 
ATOM     21  C   UNL     1       2.156   3.291  20.867  0.00  0.00    +0.000 C 
ATOM     22  C   UNL     1       0.953   2.706  20.128  0.00  0.00    +0.000 C 
ATOM     23  C   UNL     1       1.114   2.764  18.611  0.00  0.00    +0.000 C 
ATOM     24  C   UNL     1       2.446   2.163  18.167  0.00  0.00    +0.000 C 
ENDBRANCH  17  19
ENDBRANCH  14  15
ENDBRANCH  13  14
ENDBRANCH   6  13
TORSDOF 5
ENDMDL
MODEL 8
REMARK VINA RESULT:      -7.2      5.439      7.681
REMARK  Name = 
REMARK  7 active torsions:
REMARK  status: ('A' for Active; 'I' for Inactive)
REMARK    1  A    between atoms: C_1  and  C_2
REMARK    2  A    between atoms: C_2  and  C_3
REMARK    3  A    between atoms: C_2  and  C_4
REMARK    4  A    between atoms: C_9  and  C_11
REMARK    5  A    between atoms: C_11  and  C_12
REMARK    6  A    between atoms: C_12  and  C_13
REMARK    7  A    between atoms: N_15  and  C_16
REMARK                            x       y       z     vdW  Elec       q    Type
REMARK                         _______ _______ _______ _____ _____    ______ ____
ROOT
ATOM      1  C   UNL     1       9.571  12.769  19.135  0.00  0.00    +0.000 A 
ATOM      2  N   UNL     1       9.870  12.356  20.351  0.00  0.00    +0.000 NA
ATOM      3  N   UNL     1       9.727  10.983  20.479  0.00  0.00    +0.000 NA
ATOM      4  C   UNL     1       9.261  10.434  19.380  0.00  0.00    +0.000 A 
ATOM      5  N   UNL     1       8.993   9.092  19.270  0.00  0.00    +0.000 N 
ATOM      6  C   UNL     1       8.283   8.490  18.259  0.00  0.00    +0.000 C 
ATOM      7  O   UNL     1       7.733   9.049  17.311  0.00  0.00    +0.000 OA
ATOM      8  S   UNL     1       9.081  11.512  18.076  0.00  0.00    +0.000 S 
ATOM      9  H   UNL     1       9.329   8.542  20.052  0.00  0.00    +0.000 HD
ENDROOT
BRANCH   1  11
ATOM     10  C   UNL     1       8.266  14.579  18.039  0.00  0.00    +0.000 C 
ATOM     11  C   UNL     1       9.608  14.191  18.657  0.00  0.00    +0.000 C 
ATOM     12  C   UNL     1       9.985  15.138  19.795  0.00  0.00    +0.000 C 
ENDBRANCH   1  11
BRANCH   6  13
ATOM     13  C   UNL     1       8.194   6.988  18.402  0.00  0.00    +0.000 C 
BRANCH  13  14
ATOM     14  C   UNL     1       6.841   6.511  17.883  0.00  0.00    +0.000 C 
BRANCH  14  15
ATOM     15  C   UNL     1       6.142   5.659  18.927  0.00  0.00    +0.000 C 
ATOM     16  O   UNL     1       6.754   5.089  19.823  0.00  0.00    +0.000 OA
ATOM     17  N   UNL     1       4.783   5.604  18.754  0.00  0.00    +0.000 N 
ATOM     18  H   UNL     1       4.369   6.262  18.104  0.00  0.00    +0.000 HD
BRANCH  17  19
ATOM     19  C   UNL     1       3.871   4.818  19.587  0.00  0.00    +0.000 C 
ATOM     20  C   UNL     1       2.417   5.183  19.243  0.00  0.00    +0.000 C 
ATOM     21  C   UNL     1       2.033   4.734  17.829  0.00  0.00    +0.000 C 
ATOM     22  C   UNL     1       2.298   3.246  17.602  0.00  0.00    +0.000 C 
ATOM     23  C   UNL     1       3.712   2.836  18.006  0.00  0.00    +0.000 C 
ATOM     24  C   UNL     1       4.046   3.299  19.423  0.00  0.00    +0.000 C 
ENDBRANCH  17  19
ENDBRANCH  14  15
ENDBRANCH  13  14
ENDBRANCH   6  13
TORSDOF 5
ENDMDL
MODEL 9
REMARK VINA RESULT:      -7.2      4.731      7.227
REMARK  Name = 
REMARK  7 active torsions:
REMARK  status: ('A' for Active; 'I' for Inactive)
REMARK    1  A    between atoms: C_1  and  C_2
REMARK    2  A    between atoms: C_2  and  C_3
REMARK    3  A    between atoms: C_2  and  C_4
REMARK    4  A    between atoms: C_9  and  C_11
REMARK    5  A    between atoms: C_11  and  C_12
REMARK    6  A    between atoms: C_12  and  C_13
REMARK    7  A    between atoms: N_15  and  C_16
REMARK                            x       y       z     vdW  Elec       q    Type
REMARK                         _______ _______ _______ _____ _____    ______ ____
ROOT
ATOM      1  C   UNL     1       9.720  11.311  19.430  0.00  0.00    +0.000 A 
ATOM      2  N   UNL     1       9.299  11.906  18.331  0.00  0.00    +0.000 NA
ATOM      3  N   UNL     1       8.479  11.081  17.580  0.00  0.00    +0.000 NA
ATOM      4  C   UNL     1       8.375   9.881  18.106  0.00  0.00    +0.000 A 
ATOM      5  N   UNL     1       7.651   8.869  17.525  0.00  0.00    +0.000 N 
ATOM      6  C   UNL     1       7.695   7.540  17.875  0.00  0.00    +0.000 C 
ATOM      7  O   UNL     1       8.415   7.028  18.729  0.00  0.00    +0.000 OA
ATOM      8  S   UNL     1       9.156   9.702  19.607  0.00  0.00    +0.000 S 
ATOM      9  H   UNL     1       7.082   9.170  16.743  0.00  0.00    +0.000 HD
ENDROOT
BRANCH   1  11
ATOM     10  C   UNL     1      12.057  12.005  19.920  0.00  0.00    +0.000 C 
ATOM     11  C   UNL     1      10.631  11.913  20.460  0.00  0.00    +0.000 C 
ATOM     12  C   UNL     1      10.120  13.282  20.906  0.00  0.00    +0.000 C 
ENDBRANCH   1  11
BRANCH   6  13
ATOM     13  C   UNL     1       6.747   6.679  17.072  0.00  0.00    +0.000 C 
BRANCH  13  14
ATOM     14  C   UNL     1       5.966   5.773  18.020  0.00  0.00    +0.000 C 
BRANCH  14  15
ATOM     15  C   UNL     1       4.481   6.072  17.937  0.00  0.00    +0.000 C 
ATOM     16  O   UNL     1       4.026   6.925  17.183  0.00  0.00    +0.000 OA
ATOM     17  N   UNL     1       3.728   5.298  18.782  0.00  0.00    +0.000 N 
ATOM     18  H   UNL     1       4.183   4.501  19.213  0.00  0.00    +0.000 HD
BRANCH  17  19
ATOM     19  C   UNL     1       2.277   5.410  18.941  0.00  0.00    +0.000 C 
ATOM     20  C   UNL     1       1.579   4.408  18.006  0.00  0.00    +0.000 C 
ATOM     21  C   UNL     1       1.839   2.957  18.425  0.00  0.00    +0.000 C 
ATOM     22  C   UNL     1       1.470   2.701  19.885  0.00  0.00    +0.000 C 
ATOM     23  C   UNL     1       2.087   3.726  20.833  0.00  0.00    +0.000 C 
ATOM     24  C   UNL     1       1.795   5.155  20.378  0.00  0.00    +0.000 C 
ENDBRANCH  17  19
ENDBRANCH  14  15
ENDBRANCH  13  14
ENDBRANCH   6  13
TORSDOF 5
ENDMDL
