MODEL 1
REMARK VINA RESULT:      -7.4      0.000      0.000
REMARK  Name = 
REMARK  4 active torsions:
REMARK  status: ('A' for Active; 'I' for Inactive)
REMARK    1  A    between atoms: C_1  and  C_2
REMARK    2  A    between atoms: C_2  and  N_3
REMARK    3  A    between atoms: C_2  and  C_20
REMARK    4  A    between atoms: C_10  and  C_11
REMARK                            x       y       z     vdW  Elec       q    Type
REMARK                         _______ _______ _______ _____ _____    ______ ____
ROOT
ATOM      1  N   UNL     1       1.397   9.178  19.488  0.00  0.00    +0.000 N 
ATOM      2  C   UNL     1       1.144   8.073  20.246  0.00  0.00    +0.000 C 
ATOM      3  O   UNL     1       0.425   8.132  21.242  0.00  0.00    +0.000 OA
ATOM      4  N   UNL     1       1.754   6.902  19.834  0.00  0.00    +0.000 N 
ATOM      5  C   UNL     1       1.360   5.660  20.486  0.00  0.00    +0.000 C 
ATOM      6  C   UNL     1       2.573   4.949  21.067  0.00  0.00    +0.000 C 
ATOM      7  C   UNL     1       3.598   4.668  19.972  0.00  0.00    +0.000 C 
ATOM      8  C   UNL     1       3.989   5.958  19.224  0.00  0.00    +0.000 C 
ATOM      9  C   UNL     1       2.752   6.768  18.766  0.00  0.00    +0.000 C 
ATOM     10  H   UNL     1       1.519   9.037  18.493  0.00  0.00    +0.000 HD
ENDROOT
BRANCH   8  11
ATOM     11  C   UNL     1       4.928   5.647  18.066  0.00  0.00    +0.000 A 
ATOM     12  C   UNL     1       4.579   6.013  16.755  0.00  0.00    +0.000 A 
ATOM     13  C   UNL     1       5.443   5.751  15.685  0.00  0.00    +0.000 A 
ATOM     14  C   UNL     1       6.661   5.125  15.921  0.00  0.00    +0.000 A 
ATOM     15  F   UNL     1       7.486   4.880  14.895  0.00  0.00    +0.000 F 
ATOM     16  C   UNL     1       7.019   4.758  17.210  0.00  0.00    +0.000 A 
ATOM     17  F   UNL     1       8.195   4.157  17.441  0.00  0.00    +0.000 F 
ATOM     18  C   UNL     1       6.163   5.011  18.279  0.00  0.00    +0.000 A 
ENDBRANCH   8  11
BRANCH   1  20
ATOM     19  C   UNL     1       1.799  11.588  19.610  0.00  0.00    +0.000 C 
ATOM     20  C   UNL     1       0.777  10.466  19.814  0.00  0.00    +0.000 C 
BRANCH  20  21
ATOM     21  C   UNL     1      -0.500  10.659  19.004  0.00  0.00    +0.000 A 
ATOM     22  N   UNL     1      -0.646   9.913  17.864  0.00  0.00    +0.000 NA
ATOM     23  C   UNL     1      -1.817  10.023  17.195  0.00  0.00    +0.000 A 
ATOM     24  C   UNL     1      -2.861  10.845  17.593  0.00  0.00    +0.000 A 
ATOM     25  C   UNL     1      -2.700  11.600  18.749  0.00  0.00    +0.000 A 
ATOM     26  C   UNL     1      -1.512  11.499  19.464  0.00  0.00    +0.000 A 
ATOM     27  F   UNL     1      -1.378  12.195  20.599  0.00  0.00    +0.000 F 
ENDBRANCH  20  21
ENDBRANCH   1  20
TORSDOF 3
ENDMDL
MODEL 2
REMARK VINA RESULT:      -7.3      2.808      4.444
REMARK  Name = 
REMARK  4 active torsions:
REMARK  status: ('A' for Active; 'I' for Inactive)
REMARK    1  A    between atoms: C_1  and  C_2
REMARK    2  A    between atoms: C_2  and  N_3
REMARK    3  A    between atoms: C_2  and  C_20
REMARK    4  A    between atoms: C_10  and  C_11
REMARK                            x       y       z     vdW  Elec       q    Type
REMARK                         _______ _______ _______ _____ _____    ______ ____
ROOT
ATOM      1  N   UNL     1       0.737   9.484  18.964  0.00  0.00    +0.000 N 
ATOM      2  C   UNL     1       1.822   9.347  18.149  0.00  0.00    +0.000 C 
ATOM      3  O   UNL     1       2.065  10.168  17.265  0.00  0.00    +0.000 OA
ATOM      4  N   UNL     1       2.609   8.232  18.368  0.00  0.00    +0.000 N 
ATOM      5  C   UNL     1       3.881   8.143  17.663  0.00  0.00    +0.000 C 
ATOM      6  C   UNL     1       3.965   6.850  16.865  0.00  0.00    +0.000 C 
ATOM      7  C   UNL     1       3.787   5.647  17.785  0.00  0.00    +0.000 C 
ATOM      8  C   UNL     1       2.475   5.743  18.590  0.00  0.00    +0.000 C 
ATOM      9  C   UNL     1       2.310   7.119  19.279  0.00  0.00    +0.000 C 
ATOM     10  H   UNL     1       0.832   9.157  19.917  0.00  0.00    +0.000 HD
ENDROOT
BRANCH   8  11
ATOM     11  C   UNL     1       2.364   4.593  19.580  0.00  0.00    +0.000 A 
ATOM     12  C   UNL     1       1.132   4.303  20.193  0.00  0.00    +0.000 A 
ATOM     13  C   UNL     1       1.013   3.234  21.089  0.00  0.00    +0.000 A 
ATOM     14  C   UNL     1       2.123   2.448  21.376  0.00  0.00    +0.000 A 
ATOM     15  F   UNL     1       2.003   1.424  22.231  0.00  0.00    +0.000 F 
ATOM     16  C   UNL     1       3.345   2.723  20.780  0.00  0.00    +0.000 A 
ATOM     17  F   UNL     1       4.416   1.964  21.052  0.00  0.00    +0.000 F 
ATOM     18  C   UNL     1       3.473   3.786  19.890  0.00  0.00    +0.000 A 
ENDBRANCH   8  11
BRANCH   1  20
ATOM     19  C   UNL     1      -1.325  10.295  17.926  0.00  0.00    +0.000 C 
ATOM     20  C   UNL     1      -0.149  10.646  18.841  0.00  0.00    +0.000 C 
BRANCH  20  21
ATOM     21  C   UNL     1      -0.582  11.129  20.221  0.00  0.00    +0.000 A 
ATOM     22  N   UNL     1      -0.406  10.273  21.277  0.00  0.00    +0.000 NA
ATOM     23  C   UNL     1      -0.712  10.737  22.511  0.00  0.00    +0.000 A 
ATOM     24  C   UNL     1      -1.192  12.014  22.761  0.00  0.00    +0.000 A 
ATOM     25  C   UNL     1      -1.370  12.873  21.681  0.00  0.00    +0.000 A 
ATOM     26  C   UNL     1      -1.054  12.428  20.403  0.00  0.00    +0.000 A 
ATOM     27  F   UNL     1      -1.185  13.272  19.372  0.00  0.00    +0.000 F 
ENDBRANCH  20  21
ENDBRANCH   1  20
TORSDOF 3
ENDMDL
MODEL 3
REMARK VINA RESULT:      -7.2      1.074      1.309
REMARK  Name = 
REMARK  4 active torsions:
REMARK  status: ('A' for Active; 'I' for Inactive)
REMARK    1  A    between atoms: C_1  and  C_2
REMARK    2  A    between atoms: C_2  and  N_3
REMARK    3  A    between atoms: C_2  and  C_20
REMARK    4  A    between atoms: C_10  and  C_11
REMARK                            x       y       z     vdW  Elec       q    Type
REMARK                         _______ _______ _______ _____ _____    ______ ____
ROOT
ATOM      1  N   UNL     1       1.422   9.153  19.650  0.00  0.00    +0.000 N 
ATOM      2  C   UNL     1       1.150   8.027  20.369  0.00  0.00    +0.000 C 
ATOM      3  O   UNL     1       0.429   8.063  21.365  0.00  0.00    +0.000 OA
ATOM      4  N   UNL     1       1.743   6.862  19.920  0.00  0.00    +0.000 N 
ATOM      5  C   UNL     1       1.329   5.604  20.529  0.00  0.00    +0.000 C 
ATOM      6  C   UNL     1       2.531   4.856  21.088  0.00  0.00    +0.000 C 
ATOM      7  C   UNL     1       3.554   4.598  19.987  0.00  0.00    +0.000 C 
ATOM      8  C   UNL     1       3.967   5.907  19.284  0.00  0.00    +0.000 C 
ATOM      9  C   UNL     1       2.743   6.749  18.850  0.00  0.00    +0.000 C 
ATOM     10  H   UNL     1       1.544   9.044  18.651  0.00  0.00    +0.000 HD
ENDROOT
BRANCH   8  11
ATOM     11  C   UNL     1       4.904   5.621  18.119  0.00  0.00    +0.000 A 
ATOM     12  C   UNL     1       4.553   6.014  16.815  0.00  0.00    +0.000 A 
ATOM     13  C   UNL     1       5.417   5.776  15.740  0.00  0.00    +0.000 A 
ATOM     14  C   UNL     1       6.636   5.145  15.961  0.00  0.00    +0.000 A 
ATOM     15  F   UNL     1       7.460   4.923  14.929  0.00  0.00    +0.000 F 
ATOM     16  C   UNL     1       6.995   4.752  17.241  0.00  0.00    +0.000 A 
ATOM     17  F   UNL     1       8.172   4.147  17.458  0.00  0.00    +0.000 F 
ATOM     18  C   UNL     1       6.141   4.981  18.316  0.00  0.00    +0.000 A 
ENDBRANCH   8  11
BRANCH   1  20
ATOM     19  C   UNL     1       1.826  11.564  19.757  0.00  0.00    +0.000 C 
ATOM     20  C   UNL     1       0.820  10.439  20.017  0.00  0.00    +0.000 C 
BRANCH  20  21
ATOM     21  C   UNL     1      -0.504  10.632  19.286  0.00  0.00    +0.000 A 
ATOM     22  N   UNL     1      -1.450  11.422  19.886  0.00  0.00    +0.000 NA
ATOM     23  C   UNL     1      -2.589  11.661  19.194  0.00  0.00    +0.000 A 
ATOM     24  C   UNL     1      -2.849  11.151  17.930  0.00  0.00    +0.000 A 
ATOM     25  C   UNL     1      -1.882  10.349  17.333  0.00  0.00    +0.000 A 
ATOM     26  C   UNL     1      -0.698  10.095  18.014  0.00  0.00    +0.000 A 
ATOM     27  F   UNL     1       0.247   9.358  17.418  0.00  0.00    +0.000 F 
ENDBRANCH  20  21
ENDBRANCH   1  20
TORSDOF 3
ENDMDL
MODEL 4
REMARK VINA RESULT:      -7.2      2.934      4.529
REMARK  Name = 
REMARK  4 active torsions:
REMARK  status: ('A' for Active; 'I' for Inactive)
REMARK    1  A    between atoms: C_1  and  C_2
REMARK    2  A    between atoms: C_2  and  N_3
REMARK    3  A    between atoms: C_2  and  C_20
REMARK    4  A    between atoms: C_10  and  C_11
REMARK                            x       y       z     vdW  Elec       q    Type
REMARK                         _______ _______ _______ _____ _____    ______ ____
ROOT
ATOM      1  N   UNL     1       0.736   9.483  19.056  0.00  0.00    +0.000 N 
ATOM      2  C   UNL     1       1.797   9.355  18.209  0.00  0.00    +0.000 C 
ATOM      3  O   UNL     1       2.014  10.185  17.328  0.00  0.00    +0.000 OA
ATOM      4  N   UNL     1       2.590   8.238  18.394  0.00  0.00    +0.000 N 
ATOM      5  C   UNL     1       3.842   8.157  17.652  0.00  0.00    +0.000 C 
ATOM      6  C   UNL     1       3.903   6.873  16.838  0.00  0.00    +0.000 C 
ATOM      7  C   UNL     1       3.751   5.660  17.750  0.00  0.00    +0.000 C 
ATOM      8  C   UNL     1       2.463   5.747  18.593  0.00  0.00    +0.000 C 
ATOM      9  C   UNL     1       2.318   7.116  19.301  0.00  0.00    +0.000 C 
ATOM     10  H   UNL     1       0.859   9.146  20.003  0.00  0.00    +0.000 HD
ENDROOT
BRANCH   8  11
ATOM     11  C   UNL     1       2.380   4.586  19.575  0.00  0.00    +0.000 A 
ATOM     12  C   UNL     1       1.170   4.298  20.230  0.00  0.00    +0.000 A 
ATOM     13  C   UNL     1       1.077   3.220  21.117  0.00  0.00    +0.000 A 
ATOM     14  C   UNL     1       2.191   2.423  21.354  0.00  0.00    +0.000 A 
ATOM     15  F   UNL     1       2.095   1.391  22.201  0.00  0.00    +0.000 F 
ATOM     16  C   UNL     1       3.391   2.696  20.715  0.00  0.00    +0.000 A 
ATOM     17  F   UNL     1       4.466   1.926  20.938  0.00  0.00    +0.000 F 
ATOM     18  C   UNL     1       3.494   3.768  19.834  0.00  0.00    +0.000 A 
ENDBRANCH   8  11
BRANCH   1  20
ATOM     19  C   UNL     1      -1.438  10.251  18.239  0.00  0.00    +0.000 C 
ATOM     20  C   UNL     1      -0.153  10.646  18.972  0.00  0.00    +0.000 C 
BRANCH  20  21
ATOM     21  C   UNL     1      -0.404  11.223  20.361  0.00  0.00    +0.000 A 
ATOM     22  N   UNL     1      -0.519  12.585  20.470  0.00  0.00    +0.000 NA
ATOM     23  C   UNL     1      -0.827  13.086  21.688  0.00  0.00    +0.000 A 
ATOM     24  C   UNL     1      -1.023  12.307  22.819  0.00  0.00    +0.000 A 
ATOM     25  C   UNL     1      -0.900  10.928  22.697  0.00  0.00    +0.000 A 
ATOM     26  C   UNL     1      -0.596  10.382  21.455  0.00  0.00    +0.000 A 
ATOM     27  F   UNL     1      -0.521   9.052  21.332  0.00  0.00    +0.000 F 
ENDBRANCH  20  21
ENDBRANCH   1  20
TORSDOF 3
ENDMDL
MODEL 5
REMARK VINA RESULT:      -7.1      3.108      8.696
REMARK  Name = 
REMARK  4 active torsions:
REMARK  status: ('A' for Active; 'I' for Inactive)
REMARK    1  A    between atoms: C_1  and  C_2
REMARK    2  A    between atoms: C_2  and  N_3
REMARK    3  A    between atoms: C_2  and  C_20
REMARK    4  A    between atoms: C_10  and  C_11
REMARK                            x       y       z     vdW  Elec       q    Type
REMARK                         _______ _______ _______ _____ _____    ______ ____
ROOT
ATOM      1  N   UNL     1       2.358   7.004  19.014  0.00  0.00    +0.000 N 
ATOM      2  C   UNL     1       2.619   8.078  18.215  0.00  0.00    +0.000 C 
ATOM      3  O   UNL     1       3.510   8.042  17.367  0.00  0.00    +0.000 OA
ATOM      4  N   UNL     1       1.839   9.199  18.430  0.00  0.00    +0.000 N 
ATOM      5  C   UNL     1       1.941  10.296  17.476  0.00  0.00    +0.000 C 
ATOM      6  C   UNL     1       2.293  11.595  18.187  0.00  0.00    +0.000 C 
ATOM      7  C   UNL     1       1.250  11.916  19.253  0.00  0.00    +0.000 C 
ATOM      8  C   UNL     1       1.077  10.746  20.242  0.00  0.00    +0.000 C 
ATOM      9  C   UNL     1       0.873   9.393  19.519  0.00  0.00    +0.000 C 
ATOM     10  H   UNL     1       1.396   6.860  19.291  0.00  0.00    +0.000 HD
ENDROOT
BRANCH   8  11
ATOM     11  C   UNL     1      -0.042  11.038  21.232  0.00  0.00    +0.000 A 
ATOM     12  C   UNL     1      -0.188  10.250  22.388  0.00  0.00    +0.000 A 
ATOM     13  C   UNL     1      -1.200  10.522  23.316  0.00  0.00    +0.000 A 
ATOM     14  C   UNL     1      -2.070  11.583  23.095  0.00  0.00    +0.000 A 
ATOM     15  F   UNL     1      -3.034  11.841  23.988  0.00  0.00    +0.000 F 
ATOM     16  C   UNL     1      -1.939  12.368  21.960  0.00  0.00    +0.000 A 
ATOM     17  F   UNL     1      -2.774  13.395  21.747  0.00  0.00    +0.000 F 
ATOM     18  C   UNL     1      -0.937  12.103  21.030  0.00  0.00    +0.000 A 
ENDBRANCH   8  11
BRANCH   1  20
ATOM     19  C   UNL     1       4.559   5.968  19.274  0.00  0.00    +0.000 C 
ATOM     20  C   UNL     1       3.103   5.752  18.851  0.00  0.00    +0.000 C 
BRANCH  20  21
ATOM     21  C   UNL     1       2.415   4.624  19.612  0.00  0.00    +0.000 A 
ATOM     22  N   UNL     1       2.757   4.445  20.927  0.00  0.00    +0.000 NA
ATOM     23  C   UNL     1       2.082   3.500  21.622  0.00  0.00    +0.000 A 
ATOM     24  C   UNL     1       1.081   2.708  21.079  0.00  0.00    +0.000 A 
ATOM     25  C   UNL     1       0.745   2.896  19.743  0.00  0.00    +0.000 A 
ATOM     26  C   UNL     1       1.412   3.868  19.007  0.00  0.00    +0.000 A 
ATOM     27  F   UNL     1       1.056   4.075  17.734  0.00  0.00    +0.000 F 
ENDBRANCH  20  21
ENDBRANCH   1  20
TORSDOF 3
ENDMDL
MODEL 6
REMARK VINA RESULT:      -7.1      2.483      8.366
REMARK  Name = 
REMARK  4 active torsions:
REMARK  status: ('A' for Active; 'I' for Inactive)
REMARK    1  A    between atoms: C_1  and  C_2
REMARK    2  A    between atoms: C_2  and  N_3
REMARK    3  A    between atoms: C_2  and  C_20
REMARK    4  A    between atoms: C_10  and  C_11
REMARK                            x       y       z     vdW  Elec       q    Type
REMARK                         _______ _______ _______ _____ _____    ______ ____
ROOT
ATOM      1  N   UNL     1       1.537   7.270  19.948  0.00  0.00    +0.000 N 
ATOM      2  C   UNL     1       1.509   8.369  20.754  0.00  0.00    +0.000 C 
ATOM      3  O   UNL     1       2.046   8.365  21.860  0.00  0.00    +0.000 OA
ATOM      4  N   UNL     1       0.831   9.468  20.259  0.00  0.00    +0.000 N 
ATOM      5  C   UNL     1       0.940  10.725  20.988  0.00  0.00    +0.000 C 
ATOM      6  C   UNL     1      -0.438  11.255  21.356  0.00  0.00    +0.000 C 
ATOM      7  C   UNL     1      -1.286  11.443  20.103  0.00  0.00    +0.000 C 
ATOM      8  C   UNL     1      -1.370  10.143  19.279  0.00  0.00    +0.000 C 
ATOM      9  C   UNL     1       0.023   9.514  19.034  0.00  0.00    +0.000 C 
ATOM     10  H   UNL     1       1.571   7.431  18.950  0.00  0.00    +0.000 HD
ENDROOT
BRANCH   8  11
ATOM     11  C   UNL     1      -2.128  10.375  17.979  0.00  0.00    +0.000 A 
ATOM     12  C   UNL     1      -1.759   9.684  16.812  0.00  0.00    +0.000 A 
ATOM     13  C   UNL     1      -2.462   9.873  15.616  0.00  0.00    +0.000 A 
ATOM     14  C   UNL     1      -3.537  10.753  15.581  0.00  0.00    +0.000 A 
ATOM     15  F   UNL     1      -4.209  10.928  14.435  0.00  0.00    +0.000 F 
ATOM     16  C   UNL     1      -3.912  11.443  16.724  0.00  0.00    +0.000 A 
ATOM     17  F   UNL     1      -4.951  12.289  16.694  0.00  0.00    +0.000 F 
ATOM     18  C   UNL     1      -3.216  11.263  17.917  0.00  0.00    +0.000 A 
ENDBRANCH   8  11
BRANCH   1  20
ATOM     19  C   UNL     1       1.248   4.936  20.623  0.00  0.00    +0.000 C 
ATOM     20  C   UNL     1       2.255   6.059  20.359  0.00  0.00    +0.000 C 
BRANCH  20  21
ATOM     21  C   UNL     1       3.311   5.692  19.322  0.00  0.00    +0.000 A 
ATOM     22  N   UNL     1       4.616   5.637  19.739  0.00  0.00    +0.000 NA
ATOM     23  C   UNL     1       5.538   5.227  18.837  0.00  0.00    +0.000 A 
ATOM     24  C   UNL     1       5.239   4.870  17.531  0.00  0.00    +0.000 A 
ATOM     25  C   UNL     1       3.912   4.933  17.119  0.00  0.00    +0.000 A 
ATOM     26  C   UNL     1       2.941   5.340  18.026  0.00  0.00    +0.000 A 
ATOM     27  F   UNL     1       1.659   5.357  17.638  0.00  0.00    +0.000 F 
ENDBRANCH  20  21
ENDBRANCH   1  20
TORSDOF 3
ENDMDL
MODEL 7
REMARK VINA RESULT:      -7.1      1.027      1.032
REMARK  Name = 
REMARK  4 active torsions:
REMARK  status: ('A' for Active; 'I' for Inactive)
REMARK    1  A    between atoms: C_1  and  C_2
REMARK    2  A    between atoms: C_2  and  N_3
REMARK    3  A    between atoms: C_2  and  C_20
REMARK    4  A    between atoms: C_10  and  C_11
REMARK                            x       y       z     vdW  Elec       q    Type
REMARK                         _______ _______ _______ _____ _____    ______ ____
ROOT
ATOM      1  N   UNL     1       1.380   9.357  19.153  0.00  0.00    +0.000 N 
ATOM      2  C   UNL     1       1.296   8.316  20.030  0.00  0.00    +0.000 C 
ATOM      3  O   UNL     1       0.801   8.460  21.147  0.00  0.00    +0.000 OA
ATOM      4  N   UNL     1       1.812   7.111  19.592  0.00  0.00    +0.000 N 
ATOM      5  C   UNL     1       1.570   5.927  20.406  0.00  0.00    +0.000 C 
ATOM      6  C   UNL     1       2.882   5.249  20.774  0.00  0.00    +0.000 C 
ATOM      7  C   UNL     1       3.656   4.874  19.514  0.00  0.00    +0.000 C 
ATOM      8  C   UNL     1       3.876   6.098  18.603  0.00  0.00    +0.000 C 
ATOM      9  C   UNL     1       2.566   6.884  18.352  0.00  0.00    +0.000 C 
ATOM     10  H   UNL     1       1.291   9.139  18.169  0.00  0.00    +0.000 HD
ENDROOT
BRANCH   8  11
ATOM     11  C   UNL     1       4.553   5.689  17.303  0.00  0.00    +0.000 A 
ATOM     12  C   UNL     1       4.851   6.654  16.326  0.00  0.00    +0.000 A 
ATOM     13  C   UNL     1       5.493   6.293  15.136  0.00  0.00    +0.000 A 
ATOM     14  C   UNL     1       5.842   4.965  14.916  0.00  0.00    +0.000 A 
ATOM     15  F   UNL     1       6.459   4.625  13.777  0.00  0.00    +0.000 F 
ATOM     16  C   UNL     1       5.553   4.002  15.871  0.00  0.00    +0.000 A 
ATOM     17  F   UNL     1       5.892   2.721  15.663  0.00  0.00    +0.000 F 
ATOM     18  C   UNL     1       4.911   4.352  17.056  0.00  0.00    +0.000 A 
ENDBRANCH   8  11
BRANCH   1  20
ATOM     19  C   UNL     1       1.823  11.762  19.071  0.00  0.00    +0.000 C 
ATOM     20  C   UNL     1       0.835  10.674  19.501  0.00  0.00    +0.000 C 
BRANCH  20  21
ATOM     21  C   UNL     1      -0.554  10.848  18.897  0.00  0.00    +0.000 A 
ATOM     22  N   UNL     1      -0.884  10.058  17.826  0.00  0.00    +0.000 NA
ATOM     23  C   UNL     1      -2.146  10.155  17.349  0.00  0.00    +0.000 A 
ATOM     24  C   UNL     1      -3.110  11.003  17.873  0.00  0.00    +0.000 A 
ATOM     25  C   UNL     1      -2.763  11.802  18.957  0.00  0.00    +0.000 A 
ATOM     26  C   UNL     1      -1.477  11.717  19.477  0.00  0.00    +0.000 A 
ATOM     27  F   UNL     1      -1.160  12.456  20.547  0.00  0.00    +0.000 F 
ENDBRANCH  20  21
ENDBRANCH   1  20
TORSDOF 3
ENDMDL
MODEL 8
REMARK VINA RESULT:      -7.0      1.475      1.661
REMARK  Name = 
REMARK  4 active torsions:
REMARK  status: ('A' for Active; 'I' for Inactive)
REMARK    1  A    between atoms: C_1  and  C_2
REMARK    2  A    between atoms: C_2  and  N_3
REMARK    3  A    between atoms: C_2  and  C_20
REMARK    4  A    between atoms: C_10  and  C_11
REMARK                            x       y       z     vdW  Elec       q    Type
REMARK                         _______ _______ _______ _____ _____    ______ ____
ROOT
ATOM      1  N   UNL     1       1.431   9.385  19.225  0.00  0.00    +0.000 N 
ATOM      2  C   UNL     1       1.324   8.333  20.086  0.00  0.00    +0.000 C 
ATOM      3  O   UNL     1       0.830   8.469  21.204  0.00  0.00    +0.000 OA
ATOM      4  N   UNL     1       1.816   7.123  19.630  0.00  0.00    +0.000 N 
ATOM      5  C   UNL     1       1.547   5.932  20.426  0.00  0.00    +0.000 C 
ATOM      6  C   UNL     1       2.844   5.221  20.785  0.00  0.00    +0.000 C 
ATOM      7  C   UNL     1       3.613   4.850  19.521  0.00  0.00    +0.000 C 
ATOM      8  C   UNL     1       3.860   6.083  18.629  0.00  0.00    +0.000 C 
ATOM      9  C   UNL     1       2.567   6.900  18.388  0.00  0.00    +0.000 C 
ATOM     10  H   UNL     1       1.341   9.183  18.237  0.00  0.00    +0.000 HD
ENDROOT
BRANCH   8  11
ATOM     11  C   UNL     1       4.531   5.679  17.324  0.00  0.00    +0.000 A 
ATOM     12  C   UNL     1       4.823   6.649  16.349  0.00  0.00    +0.000 A 
ATOM     13  C   UNL     1       5.460   6.293  15.154  0.00  0.00    +0.000 A 
ATOM     14  C   UNL     1       5.809   4.967  14.928  0.00  0.00    +0.000 A 
ATOM     15  F   UNL     1       6.421   4.632  13.785  0.00  0.00    +0.000 F 
ATOM     16  C   UNL     1       5.526   3.999  15.881  0.00  0.00    +0.000 A 
ATOM     17  F   UNL     1       5.866   2.720  15.667  0.00  0.00    +0.000 F 
ATOM     18  C   UNL     1       4.890   4.344  17.070  0.00  0.00    +0.000 A 
ENDBRANCH   8  11
BRANCH   1  20
ATOM     19  C   UNL     1       1.847  11.789  19.041  0.00  0.00    +0.000 C 
ATOM     20  C   UNL     1       0.913  10.707  19.591  0.00  0.00    +0.000 C 
BRANCH  20  21
ATOM     21  C   UNL     1      -0.529  10.859  19.123  0.00  0.00    +0.000 A 
ATOM     22  N   UNL     1      -1.335  11.720  19.822  0.00  0.00    +0.000 NA
ATOM     23  C   UNL     1      -2.589  11.917  19.352  0.00  0.00    +0.000 A 
ATOM     24  C   UNL     1      -3.097  11.299  18.219  0.00  0.00    +0.000 A 
ATOM     25  C   UNL     1      -2.271  10.425  17.520  0.00  0.00    +0.000 A 
ATOM     26  C   UNL     1      -0.974  10.211  17.972  0.00  0.00    +0.000 A 
ATOM     27  F   UNL     1      -0.169   9.404  17.272  0.00  0.00    +0.000 F 
ENDBRANCH  20  21
ENDBRANCH   1  20
TORSDOF 3
ENDMDL
MODEL 9
REMARK VINA RESULT:      -6.9      3.685      6.105
REMARK  Name = 
REMARK  4 active torsions:
REMARK  status: ('A' for Active; 'I' for Inactive)
REMARK    1  A    between atoms: C_1  and  C_2
REMARK    2  A    between atoms: C_2  and  N_3
REMARK    3  A    between atoms: C_2  and  C_20
REMARK    4  A    between atoms: C_10  and  C_11
REMARK                            x       y       z     vdW  Elec       q    Type
REMARK                         _______ _______ _______ _____ _____    ______ ____
ROOT
ATOM      1  N   UNL     1      -3.533  11.588  18.988  0.00  0.00    +0.000 N 
ATOM      2  C   UNL     1      -2.843  12.429  19.809  0.00  0.00    +0.000 C 
ATOM      3  O   UNL     1      -3.268  13.551  20.079  0.00  0.00    +0.000 OA
ATOM      4  N   UNL     1      -1.641  11.950  20.298  0.00  0.00    +0.000 N 
ATOM      5  C   UNL     1      -0.965  12.724  21.331  0.00  0.00    +0.000 C 
ATOM      6  C   UNL     1       0.455  13.066  20.904  0.00  0.00    +0.000 C 
ATOM      7  C   UNL     1       1.238  11.794  20.600  0.00  0.00    +0.000 C 
ATOM      8  C   UNL     1       0.516  10.924  19.552  0.00  0.00    +0.000 C 
ATOM      9  C   UNL     1      -0.975  10.702  19.903  0.00  0.00    +0.000 C 
ATOM     10  H   UNL     1      -3.468  10.597  19.183  0.00  0.00    +0.000 HD
ENDROOT
BRANCH   8  11
ATOM     11  C   UNL     1       1.253   9.609  19.340  0.00  0.00    +0.000 A 
ATOM     12  C   UNL     1       1.275   8.638  20.356  0.00  0.00    +0.000 A 
ATOM     13  C   UNL     1       1.931   7.417  20.164  0.00  0.00    +0.000 A 
ATOM     14  C   UNL     1       2.568   7.159  18.956  0.00  0.00    +0.000 A 
ATOM     15  F   UNL     1       3.191   5.987  18.776  0.00  0.00    +0.000 F 
ATOM     16  C   UNL     1       2.556   8.108  17.945  0.00  0.00    +0.000 A 
ATOM     17  F   UNL     1       3.165   7.860  16.777  0.00  0.00    +0.000 F 
ATOM     18  C   UNL     1       1.908   9.327  18.128  0.00  0.00    +0.000 A 
ENDBRANCH   8  11
BRANCH   1  20
ATOM     19  C   UNL     1      -4.869  11.668  16.940  0.00  0.00    +0.000 C 
ATOM     20  C   UNL     1      -4.835  11.981  18.439  0.00  0.00    +0.000 C 
BRANCH  20  21
ATOM     21  C   UNL     1      -5.962  11.315  19.220  0.00  0.00    +0.000 A 
ATOM     22  N   UNL     1      -6.264  10.014  18.913  0.00  0.00    +0.000 NA
ATOM     23  C   UNL     1      -7.206   9.400  19.667  0.00  0.00    +0.000 A 
ATOM     24  C   UNL     1      -7.877  10.011  20.715  0.00  0.00    +0.000 A 
ATOM     25  C   UNL     1      -7.565  11.333  21.015  0.00  0.00    +0.000 A 
ATOM     26  C   UNL     1      -6.594  11.986  20.266  0.00  0.00    +0.000 A 
ATOM     27  F   UNL     1      -6.266  13.243  20.585  0.00  0.00    +0.000 F 
ENDBRANCH  20  21
ENDBRANCH   1  20
TORSDOF 3
ENDMDL
