MODEL 1
REMARK VINA RESULT:      -7.8      0.000      0.000
REMARK  Name = 
REMARK  8 active torsions:
REMARK  status: ('A' for Active; 'I' for Inactive)
REMARK    1  A    between atoms: O_1  and  C_2
REMARK    2  A    between atoms: C_4  and  C_5
REMARK    3  A    between atoms: C_5  and  S_6
REMARK    4  A    between atoms: S_6  and  C_7
REMARK    5  A    between atoms: N_11  and  C_12
REMARK    6  A    between atoms: C_12  and  C_13
REMARK    7  A    between atoms: C_13  and  C_14
REMARK    8  A    between atoms: C_14  and  N_15
REMARK                            x       y       z     vdW  Elec       q    Type
REMARK                         _______ _______ _______ _____ _____    ______ ____
ROOT
ATOM      1  C   UNL     1       6.824   5.871  17.646  0.00  0.00    +0.000 A 
ATOM      2  N   UNL     1       6.742   6.858  16.784  0.00  0.00    +0.000 NA
ATOM      3  N   UNL     1       7.500   7.949  17.173  0.00  0.00    +0.000 NA
ATOM      4  C   UNL     1       8.134   7.749  18.311  0.00  0.00    +0.000 A 
ATOM      5  N   UNL     1       8.977   8.616  18.917  0.00  0.00    +0.000 N 
ATOM      6  S   UNL     1       7.807   6.207  19.009  0.00  0.00    +0.000 S 
ATOM      7  H   UNL     1       9.452   8.341  19.771  0.00  0.00    +0.000 HD
ENDROOT
BRANCH   1   8
ATOM      8  S   UNL     1       5.971   4.356  17.444  0.00  0.00    +0.000 S 
BRANCH   8   9
ATOM      9  C   UNL     1       4.387   4.924  16.751  0.00  0.00    +0.000 C 
BRANCH   9  12
ATOM     10  C   UNL     1       2.711   5.758  19.877  0.00  0.00    +0.000 A 
ATOM     11  N   UNL     1       3.352   5.038  18.957  0.00  0.00    +0.000 NA
ATOM     12  C   UNL     1       3.520   5.639  17.768  0.00  0.00    +0.000 A 
ATOM     13  N   UNL     1       3.038   6.862  17.454  0.00  0.00    +0.000 NA
ATOM     14  C   UNL     1       2.380   7.545  18.408  0.00  0.00    +0.000 A 
ATOM     15  C   UNL     1       1.875   8.808  18.133  0.00  0.00    +0.000 A 
ATOM     16  C   UNL     1       1.233   9.561  19.127  0.00  0.00    +0.000 A 
ATOM     17 CL   UNL     1       0.650  11.137  18.755  0.00  0.00    +0.000 Cl
ATOM     18  C   UNL     1       1.077   9.054  20.410  0.00  0.00    +0.000 A 
ATOM     19  C   UNL     1       1.549   7.783  20.696  0.00  0.00    +0.000 A 
ATOM     20  C   UNL     1       2.194   7.020  19.689  0.00  0.00    +0.000 A 
BRANCH  10  21
ATOM     21  O   UNL     1       2.631   5.117  21.073  0.00  0.00    +0.000 OA
ATOM     22  H   UNL     1       1.799   4.625  20.950  0.00  0.00    +0.000 HD
ENDBRANCH  10  21
ENDBRANCH   9  12
ENDBRANCH   8   9
ENDBRANCH   1   8
BRANCH   5  23
ATOM     23  C   UNL     1       8.930  10.029  18.586  0.00  0.00    +0.000 C 
BRANCH  23  24
ATOM     24  C   UNL     1       9.363  10.891  19.777  0.00  0.00    +0.000 C 
BRANCH  24  25
ATOM     25  C   UNL     1      10.129  12.144  19.323  0.00  0.00    +0.000 C 
BRANCH  25  26
ATOM     26  N   UNL     1       9.646  12.695  18.051  0.00  0.00    +0.000 NA
ATOM     27  C   UNL     1      10.708  13.165  17.139  0.00  0.00    +0.000 C 
ATOM     28  C   UNL     1      11.245  14.576  17.429  0.00  0.00    +0.000 C 
ATOM     29  O   UNL     1      10.182  15.534  17.452  0.00  0.00    +0.000 OA
ATOM     30  C   UNL     1       9.236  15.192  18.469  0.00  0.00    +0.000 C 
ATOM     31  C   UNL     1       8.658  13.782  18.257  0.00  0.00    +0.000 C 
ENDBRANCH  25  26
ENDBRANCH  24  25
ENDBRANCH  23  24
ENDBRANCH   5  23
TORSDOF 8
ENDMDL
MODEL 2
REMARK VINA RESULT:      -7.6      1.073      1.325
REMARK  Name = 
REMARK  8 active torsions:
REMARK  status: ('A' for Active; 'I' for Inactive)
REMARK    1  A    between atoms: O_1  and  C_2
REMARK    2  A    between atoms: C_4  and  C_5
REMARK    3  A    between atoms: C_5  and  S_6
REMARK    4  A    between atoms: S_6  and  C_7
REMARK    5  A    between atoms: N_11  and  C_12
REMARK    6  A    between atoms: C_12  and  C_13
REMARK    7  A    between atoms: C_13  and  C_14
REMARK    8  A    between atoms: C_14  and  N_15
REMARK                            x       y       z     vdW  Elec       q    Type
REMARK                         _______ _______ _______ _____ _____    ______ ____
ROOT
ATOM      1  C   UNL     1       6.286   5.128  17.641  0.00  0.00    +0.000 A 
ATOM      2  N   UNL     1       6.376   5.944  16.615  0.00  0.00    +0.000 NA
ATOM      3  N   UNL     1       7.170   7.043  16.896  0.00  0.00    +0.000 NA
ATOM      4  C   UNL     1       7.658   7.019  18.119  0.00  0.00    +0.000 A 
ATOM      5  N   UNL     1       8.496   7.933  18.661  0.00  0.00    +0.000 N 
ATOM      6  S   UNL     1       7.138   5.652  19.032  0.00  0.00    +0.000 S 
ATOM      7  H   UNL     1       8.852   7.793  19.601  0.00  0.00    +0.000 HD
ENDROOT
BRANCH   1   8
ATOM      8  S   UNL     1       5.345   3.654  17.606  0.00  0.00    +0.000 S 
BRANCH   8   9
ATOM      9  C   UNL     1       3.734   4.268  17.025  0.00  0.00    +0.000 C 
BRANCH   9  12
ATOM     10  C   UNL     1       2.346   5.440  20.184  0.00  0.00    +0.000 A 
ATOM     11  N   UNL     1       2.832   4.604  19.266  0.00  0.00    +0.000 NA
ATOM     12  C   UNL     1       3.028   5.134  18.049  0.00  0.00    +0.000 A 
ATOM     13  N   UNL     1       2.713   6.404  17.707  0.00  0.00    +0.000 NA
ATOM     14  C   UNL     1       2.206   7.206  18.661  0.00  0.00    +0.000 A 
ATOM     15  C   UNL     1       1.877   8.520  18.358  0.00  0.00    +0.000 A 
ATOM     16  C   UNL     1       1.398   9.391  19.347  0.00  0.00    +0.000 A 
ATOM     17 CL   UNL     1       1.031  11.022  18.939  0.00  0.00    +0.000 Cl
ATOM     18  C   UNL     1       1.232   8.955  20.655  0.00  0.00    +0.000 A 
ATOM     19  C   UNL     1       1.528   7.638  20.971  0.00  0.00    +0.000 A 
ATOM     20  C   UNL     1       2.008   6.756  19.968  0.00  0.00    +0.000 A 
BRANCH  10  21
ATOM     21  O   UNL     1       2.230   4.856  21.406  0.00  0.00    +0.000 OA
ATOM     22  H   UNL     1       1.273   4.681  21.424  0.00  0.00    +0.000 HD
ENDBRANCH  10  21
ENDBRANCH   9  12
ENDBRANCH   8   9
ENDBRANCH   1   8
BRANCH   5  23
ATOM     23  C   UNL     1       8.595   9.262  18.084  0.00  0.00    +0.000 C 
BRANCH  23  24
ATOM     24  C   UNL     1       9.138  10.269  19.104  0.00  0.00    +0.000 C 
BRANCH  24  25
ATOM     25  C   UNL     1       9.433  11.631  18.455  0.00  0.00    +0.000 C 
BRANCH  25  26
ATOM     26  N   UNL     1      10.812  11.760  17.969  0.00  0.00    +0.000 NA
ATOM     27  C   UNL     1      11.838  11.819  19.030  0.00  0.00    +0.000 C 
ATOM     28  C   UNL     1      12.042  13.201  19.669  0.00  0.00    +0.000 C 
ATOM     29  O   UNL     1      12.333  14.188  18.673  0.00  0.00    +0.000 OA
ATOM     30  C   UNL     1      11.253  14.276  17.740  0.00  0.00    +0.000 C 
ATOM     31  C   UNL     1      10.975  12.923  17.063  0.00  0.00    +0.000 C 
ENDBRANCH  25  26
ENDBRANCH  24  25
ENDBRANCH  23  24
ENDBRANCH   5  23
TORSDOF 8
ENDMDL
MODEL 3
REMARK VINA RESULT:      -7.4      1.097      1.471
REMARK  Name = 
REMARK  8 active torsions:
REMARK  status: ('A' for Active; 'I' for Inactive)
REMARK    1  A    between atoms: O_1  and  C_2
REMARK    2  A    between atoms: C_4  and  C_5
REMARK    3  A    between atoms: C_5  and  S_6
REMARK    4  A    between atoms: S_6  and  C_7
REMARK    5  A    between atoms: N_11  and  C_12
REMARK    6  A    between atoms: C_12  and  C_13
REMARK    7  A    between atoms: C_13  and  C_14
REMARK    8  A    between atoms: C_14  and  N_15
REMARK                            x       y       z     vdW  Elec       q    Type
REMARK                         _______ _______ _______ _____ _____    ______ ____
ROOT
ATOM      1  C   UNL     1       6.594   5.727  16.994  0.00  0.00    +0.000 A 
ATOM      2  N   UNL     1       6.617   6.831  16.283  0.00  0.00    +0.000 NA
ATOM      3  N   UNL     1       7.357   7.827  16.897  0.00  0.00    +0.000 NA
ATOM      4  C   UNL     1       7.872   7.443  18.048  0.00  0.00    +0.000 A 
ATOM      5  N   UNL     1       8.671   8.183  18.850  0.00  0.00    +0.000 N 
ATOM      6  S   UNL     1       7.447   5.828  18.477  0.00  0.00    +0.000 S 
ATOM      7  H   UNL     1       9.054   7.772  19.695  0.00  0.00    +0.000 HD
ENDROOT
BRANCH   1   8
ATOM      8  S   UNL     1       5.734   4.288  16.493  0.00  0.00    +0.000 S 
BRANCH   8   9
ATOM      9  C   UNL     1       5.087   3.683  18.082  0.00  0.00    +0.000 C 
BRANCH   9  12
ATOM     10  C   UNL     1       2.693   5.120  20.423  0.00  0.00    +0.000 A 
ATOM     11  N   UNL     1       3.494   4.223  19.848  0.00  0.00    +0.000 NA
ATOM     12  C   UNL     1       4.043   4.602  18.684  0.00  0.00    +0.000 A 
ATOM     13  N   UNL     1       3.788   5.776  18.063  0.00  0.00    +0.000 NA
ATOM     14  C   UNL     1       2.958   6.643  18.671  0.00  0.00    +0.000 A 
ATOM     15  C   UNL     1       2.674   7.865  18.076  0.00  0.00    +0.000 A 
ATOM     16  C   UNL     1       1.856   8.807  18.715  0.00  0.00    +0.000 A 
ATOM     17 CL   UNL     1       1.554  10.323  17.958  0.00  0.00    +0.000 Cl
ATOM     18  C   UNL     1       1.300   8.535  19.958  0.00  0.00    +0.000 A 
ATOM     19  C   UNL     1       1.549   7.309  20.556  0.00  0.00    +0.000 A 
ATOM     20  C   UNL     1       2.373   6.355  19.907  0.00  0.00    +0.000 A 
BRANCH  10  21
ATOM     21  O   UNL     1       2.220   4.697  21.626  0.00  0.00    +0.000 OA
ATOM     22  H   UNL     1       1.697   5.475  21.888  0.00  0.00    +0.000 HD
ENDBRANCH  10  21
ENDBRANCH   9  12
ENDBRANCH   8   9
ENDBRANCH   1   8
BRANCH   5  23
ATOM     23  C   UNL     1       8.685   9.630  18.728  0.00  0.00    +0.000 C 
BRANCH  23  24
ATOM     24  C   UNL     1       9.693  10.257  19.698  0.00  0.00    +0.000 C 
BRANCH  24  25
ATOM     25  C   UNL     1       9.373  11.735  19.972  0.00  0.00    +0.000 C 
BRANCH  25  26
ATOM     26  N   UNL     1      10.525  12.626  19.791  0.00  0.00    +0.000 NA
ATOM     27  C   UNL     1      10.178  14.022  19.454  0.00  0.00    +0.000 C 
ATOM     28  C   UNL     1       9.873  14.282  17.970  0.00  0.00    +0.000 C 
ATOM     29  O   UNL     1      10.957  13.850  17.141  0.00  0.00    +0.000 OA
ATOM     30  C   UNL     1      11.180  12.449  17.317  0.00  0.00    +0.000 C 
ATOM     31  C   UNL     1      11.481  12.102  18.785  0.00  0.00    +0.000 C 
ENDBRANCH  25  26
ENDBRANCH  24  25
ENDBRANCH  23  24
ENDBRANCH   5  23
TORSDOF 8
ENDMDL
MODEL 4
REMARK VINA RESULT:      -7.4      5.789      7.819
REMARK  Name = 
REMARK  8 active torsions:
REMARK  status: ('A' for Active; 'I' for Inactive)
REMARK    1  A    between atoms: O_1  and  C_2
REMARK    2  A    between atoms: C_4  and  C_5
REMARK    3  A    between atoms: C_5  and  S_6
REMARK    4  A    between atoms: S_6  and  C_7
REMARK    5  A    between atoms: N_11  and  C_12
REMARK    6  A    between atoms: C_12  and  C_13
REMARK    7  A    between atoms: C_13  and  C_14
REMARK    8  A    between atoms: C_14  and  N_15
REMARK                            x       y       z     vdW  Elec       q    Type
REMARK                         _______ _______ _______ _____ _____    ______ ____
ROOT
ATOM      1  C   UNL     1       1.924   4.529  19.133  0.00  0.00    +0.000 A 
ATOM      2  N   UNL     1       1.902   4.876  17.866  0.00  0.00    +0.000 NA
ATOM      3  N   UNL     1       1.989   6.249  17.705  0.00  0.00    +0.000 NA
ATOM      4  C   UNL     1       2.080   6.892  18.851  0.00  0.00    +0.000 A 
ATOM      5  N   UNL     1       2.218   8.229  19.006  0.00  0.00    +0.000 N 
ATOM      6  S   UNL     1       2.024   5.848  20.222  0.00  0.00    +0.000 S 
ATOM      7  H   UNL     1       2.328   8.618  19.937  0.00  0.00    +0.000 HD
ENDROOT
BRANCH   1   8
ATOM      8  S   UNL     1       1.820   2.866  19.666  0.00  0.00    +0.000 S 
BRANCH   8   9
ATOM      9  C   UNL     1       3.577   2.448  19.888  0.00  0.00    +0.000 C 
BRANCH   9  12
ATOM     10  C   UNL     1       6.226   4.745  18.897  0.00  0.00    +0.000 A 
ATOM     11  N   UNL     1       5.330   4.129  19.668  0.00  0.00    +0.000 NA
ATOM     12  C   UNL     1       4.497   3.292  19.029  0.00  0.00    +0.000 A 
ATOM     13  N   UNL     1       4.484   3.098  17.692  0.00  0.00    +0.000 NA
ATOM     14  C   UNL     1       5.395   3.755  16.950  0.00  0.00    +0.000 A 
ATOM     15  C   UNL     1       5.425   3.579  15.573  0.00  0.00    +0.000 A 
ATOM     16  C   UNL     1       6.398   4.211  14.786  0.00  0.00    +0.000 A 
ATOM     17 CL   UNL     1       6.423   3.942  13.086  0.00  0.00    +0.000 Cl
ATOM     18  C   UNL     1       7.350   5.039  15.366  0.00  0.00    +0.000 A 
ATOM     19  C   UNL     1       7.318   5.250  16.735  0.00  0.00    +0.000 A 
ATOM     20  C   UNL     1       6.331   4.614  17.531  0.00  0.00    +0.000 A 
BRANCH  10  21
ATOM     21  O   UNL     1       7.075   5.528  19.613  0.00  0.00    +0.000 OA
ATOM     22  H   UNL     1       6.494   6.287  19.800  0.00  0.00    +0.000 HD
ENDBRANCH  10  21
ENDBRANCH   9  12
ENDBRANCH   8   9
ENDBRANCH   1   8
BRANCH   5  23
ATOM     23  C   UNL     1       1.845   9.129  17.930  0.00  0.00    +0.000 C 
BRANCH  23  24
ATOM     24  C   UNL     1       1.137  10.376  18.472  0.00  0.00    +0.000 C 
BRANCH  24  25
ATOM     25  C   UNL     1       0.310  10.058  19.727  0.00  0.00    +0.000 C 
BRANCH  25  26
ATOM     26  N   UNL     1       0.908  10.569  20.966  0.00  0.00    +0.000 NA
ATOM     27  C   UNL     1       0.988   9.584  22.064  0.00  0.00    +0.000 C 
ATOM     28  C   UNL     1      -0.302   9.406  22.881  0.00  0.00    +0.000 C 
ATOM     29  O   UNL     1      -0.755  10.660  23.402  0.00  0.00    +0.000 OA
ATOM     30  C   UNL     1      -1.021  11.568  22.329  0.00  0.00    +0.000 C 
ATOM     31  C   UNL     1       0.223  11.791  21.452  0.00  0.00    +0.000 C 
ENDBRANCH  25  26
ENDBRANCH  24  25
ENDBRANCH  23  24
ENDBRANCH   5  23
TORSDOF 8
ENDMDL
MODEL 5
REMARK VINA RESULT:      -7.2      2.324      2.874
REMARK  Name = 
REMARK  8 active torsions:
REMARK  status: ('A' for Active; 'I' for Inactive)
REMARK    1  A    between atoms: O_1  and  C_2
REMARK    2  A    between atoms: C_4  and  C_5
REMARK    3  A    between atoms: C_5  and  S_6
REMARK    4  A    between atoms: S_6  and  C_7
REMARK    5  A    between atoms: N_11  and  C_12
REMARK    6  A    between atoms: C_12  and  C_13
REMARK    7  A    between atoms: C_13  and  C_14
REMARK    8  A    between atoms: C_14  and  N_15
REMARK                            x       y       z     vdW  Elec       q    Type
REMARK                         _______ _______ _______ _____ _____    ______ ____
ROOT
ATOM      1  C   UNL     1       7.328   5.521  16.813  0.00  0.00    +0.000 A 
ATOM      2  N   UNL     1       7.584   6.564  16.056  0.00  0.00    +0.000 NA
ATOM      3  N   UNL     1       8.057   7.635  16.795  0.00  0.00    +0.000 NA
ATOM      4  C   UNL     1       8.148   7.366  18.082  0.00  0.00    +0.000 A 
ATOM      5  N   UNL     1       8.614   8.200  19.040  0.00  0.00    +0.000 N 
ATOM      6  S   UNL     1       7.616   5.776  18.483  0.00  0.00    +0.000 S 
ATOM      7  H   UNL     1       8.687   7.874  19.998  0.00  0.00    +0.000 HD
ENDROOT
BRANCH   1   8
ATOM      8  S   UNL     1       6.707   4.014  16.178  0.00  0.00    +0.000 S 
BRANCH   8   9
ATOM      9  C   UNL     1       4.973   4.451  15.842  0.00  0.00    +0.000 C 
BRANCH   9  12
ATOM     10  C   UNL     1       3.142   6.509  18.227  0.00  0.00    +0.000 A 
ATOM     11  N   UNL     1       3.929   6.187  17.202  0.00  0.00    +0.000 NA
ATOM     12  C   UNL     1       4.221   4.882  17.086  0.00  0.00    +0.000 A 
ATOM     13  N   UNL     1       3.821   3.928  17.956  0.00  0.00    +0.000 NA
ATOM     14  C   UNL     1       3.043   4.302  18.988  0.00  0.00    +0.000 A 
ATOM     15  C   UNL     1       2.600   3.355  19.902  0.00  0.00    +0.000 A 
ATOM     16  C   UNL     1       1.745   3.712  20.954  0.00  0.00    +0.000 A 
ATOM     17 CL   UNL     1       1.192   2.503  22.047  0.00  0.00    +0.000 Cl
ATOM     18  C   UNL     1       1.327   5.027  21.113  0.00  0.00    +0.000 A 
ATOM     19  C   UNL     1       1.781   5.992  20.228  0.00  0.00    +0.000 A 
ATOM     20  C   UNL     1       2.651   5.631  19.166  0.00  0.00    +0.000 A 
BRANCH  10  21
ATOM     21  O   UNL     1       2.836   7.834  18.250  0.00  0.00    +0.000 OA
ATOM     22  H   UNL     1       3.601   8.179  18.745  0.00  0.00    +0.000 HD
ENDBRANCH  10  21
ENDBRANCH   9  12
ENDBRANCH   8   9
ENDBRANCH   1   8
BRANCH   5  23
ATOM     23  C   UNL     1       8.656   9.632  18.801  0.00  0.00    +0.000 C 
BRANCH  23  24
ATOM     24  C   UNL     1       9.261  10.375  19.997  0.00  0.00    +0.000 C 
BRANCH  24  25
ATOM     25  C   UNL     1      10.100  11.582  19.550  0.00  0.00    +0.000 C 
BRANCH  25  26
ATOM     26  N   UNL     1       9.881  11.960  18.149  0.00  0.00    +0.000 NA
ATOM     27  C   UNL     1      11.116  12.200  17.374  0.00  0.00    +0.000 C 
ATOM     28  C   UNL     1      11.736  13.596  17.546  0.00  0.00    +0.000 C 
ATOM     29  O   UNL     1      10.783  14.621  17.248  0.00  0.00    +0.000 OA
ATOM     30  C   UNL     1       9.659  14.514  18.126  0.00  0.00    +0.000 C 
ATOM     31  C   UNL     1       8.986  13.135  18.023  0.00  0.00    +0.000 C 
ENDBRANCH  25  26
ENDBRANCH  24  25
ENDBRANCH  23  24
ENDBRANCH   5  23
TORSDOF 8
ENDMDL
MODEL 6
REMARK VINA RESULT:      -7.2      6.184      9.639
REMARK  Name = 
REMARK  8 active torsions:
REMARK  status: ('A' for Active; 'I' for Inactive)
REMARK    1  A    between atoms: O_1  and  C_2
REMARK    2  A    between atoms: C_4  and  C_5
REMARK    3  A    between atoms: C_5  and  S_6
REMARK    4  A    between atoms: S_6  and  C_7
REMARK    5  A    between atoms: N_11  and  C_12
REMARK    6  A    between atoms: C_12  and  C_13
REMARK    7  A    between atoms: C_13  and  C_14
REMARK    8  A    between atoms: C_14  and  N_15
REMARK                            x       y       z     vdW  Elec       q    Type
REMARK                         _______ _______ _______ _____ _____    ______ ____
ROOT
ATOM      1  C   UNL     1       0.754   9.718  19.232  0.00  0.00    +0.000 A 
ATOM      2  N   UNL     1       1.130   9.918  17.989  0.00  0.00    +0.000 NA
ATOM      3  N   UNL     1       2.054   8.976  17.571  0.00  0.00    +0.000 NA
ATOM      4  C   UNL     1       2.342   8.094  18.506  0.00  0.00    +0.000 A 
ATOM      5  N   UNL     1       3.177   7.037  18.376  0.00  0.00    +0.000 N 
ATOM      6  S   UNL     1       1.519   8.387  19.993  0.00  0.00    +0.000 S 
ATOM      7  H   UNL     1       3.291   6.389  19.148  0.00  0.00    +0.000 HD
ENDROOT
BRANCH   1   8
ATOM      8  S   UNL     1      -0.397  10.746  20.056  0.00  0.00    +0.000 S 
BRANCH   8   9
ATOM      9  C   UNL     1      -0.901  11.869  18.716  0.00  0.00    +0.000 C 
BRANCH   9  12
ATOM     10  C   UNL     1      -4.166  11.346  17.184  0.00  0.00    +0.000 A 
ATOM     11  N   UNL     1      -2.843  11.461  17.296  0.00  0.00    +0.000 NA
ATOM     12  C   UNL     1      -2.400  11.885  18.491  0.00  0.00    +0.000 A 
ATOM     13  N   UNL     1      -3.199  12.243  19.520  0.00  0.00    +0.000 NA
ATOM     14  C   UNL     1      -4.530  12.129  19.355  0.00  0.00    +0.000 A 
ATOM     15  C   UNL     1      -5.390  12.477  20.388  0.00  0.00    +0.000 A 
ATOM     16  C   UNL     1      -6.776  12.316  20.259  0.00  0.00    +0.000 A 
ATOM     17 CL   UNL     1      -7.806  12.727  21.575  0.00  0.00    +0.000 Cl
ATOM     18  C   UNL     1      -7.325  11.813  19.086  0.00  0.00    +0.000 A 
ATOM     19  C   UNL     1      -6.485  11.488  18.032  0.00  0.00    +0.000 A 
ATOM     20  C   UNL     1      -5.082  11.655  18.162  0.00  0.00    +0.000 A 
BRANCH  10  21
ATOM     21  O   UNL     1      -4.542  10.855  15.973  0.00  0.00    +0.000 OA
ATOM     22  H   UNL     1      -4.737   9.932  16.215  0.00  0.00    +0.000 HD
ENDBRANCH  10  21
ENDBRANCH   9  12
ENDBRANCH   8   9
ENDBRANCH   1   8
BRANCH   5  23
ATOM     23  C   UNL     1       4.172   7.022  17.319  0.00  0.00    +0.000 C 
BRANCH  23  24
ATOM     24  C   UNL     1       4.690   5.602  17.066  0.00  0.00    +0.000 C 
BRANCH  24  25
ATOM     25  C   UNL     1       3.576   4.555  17.227  0.00  0.00    +0.000 C 
BRANCH  25  26
ATOM     26  N   UNL     1       3.354   4.146  18.619  0.00  0.00    +0.000 NA
ATOM     27  C   UNL     1       4.070   2.919  19.023  0.00  0.00    +0.000 C 
ATOM     28  C   UNL     1       3.383   1.600  18.633  0.00  0.00    +0.000 C 
ATOM     29  O   UNL     1       2.043   1.553  19.134  0.00  0.00    +0.000 OA
ATOM     30  C   UNL     1       1.281   2.636  18.595  0.00  0.00    +0.000 C 
ATOM     31  C   UNL     1       1.912   3.998  18.932  0.00  0.00    +0.000 C 
ENDBRANCH  25  26
ENDBRANCH  24  25
ENDBRANCH  23  24
ENDBRANCH   5  23
TORSDOF 8
ENDMDL
MODEL 7
REMARK VINA RESULT:      -7.2      4.834      7.491
REMARK  Name = 
REMARK  8 active torsions:
REMARK  status: ('A' for Active; 'I' for Inactive)
REMARK    1  A    between atoms: O_1  and  C_2
REMARK    2  A    between atoms: C_4  and  C_5
REMARK    3  A    between atoms: C_5  and  S_6
REMARK    4  A    between atoms: S_6  and  C_7
REMARK    5  A    between atoms: N_11  and  C_12
REMARK    6  A    between atoms: C_12  and  C_13
REMARK    7  A    between atoms: C_13  and  C_14
REMARK    8  A    between atoms: C_14  and  N_15
REMARK                            x       y       z     vdW  Elec       q    Type
REMARK                         _______ _______ _______ _____ _____    ______ ____
ROOT
ATOM      1  C   UNL     1       1.505   8.055  20.369  0.00  0.00    +0.000 A 
ATOM      2  N   UNL     1       2.073   8.271  19.204  0.00  0.00    +0.000 NA
ATOM      3  N   UNL     1       2.554   7.102  18.640  0.00  0.00    +0.000 NA
ATOM      4  C   UNL     1       2.331   6.043  19.392  0.00  0.00    +0.000 A 
ATOM      5  N   UNL     1       2.650   4.765  19.084  0.00  0.00    +0.000 N 
ATOM      6  S   UNL     1       1.540   6.419  20.877  0.00  0.00    +0.000 S 
ATOM      7  H   UNL     1       2.387   4.015  19.716  0.00  0.00    +0.000 HD
ENDROOT
BRANCH   1   8
ATOM      8  S   UNL     1       0.808   9.334  21.339  0.00  0.00    +0.000 S 
BRANCH   8   9
ATOM      9  C   UNL     1       0.928  10.753  20.207  0.00  0.00    +0.000 C 
BRANCH   9  12
ATOM     10  C   UNL     1      -1.760  10.742  17.747  0.00  0.00    +0.000 A 
ATOM     11  N   UNL     1      -0.546  10.577  18.271  0.00  0.00    +0.000 NA
ATOM     12  C   UNL     1      -0.381  11.065  19.510  0.00  0.00    +0.000 A 
ATOM     13  N   UNL     1      -1.328  11.741  20.199  0.00  0.00    +0.000 NA
ATOM     14  C   UNL     1      -2.533  11.901  19.622  0.00  0.00    +0.000 A 
ATOM     15  C   UNL     1      -3.540  12.580  20.296  0.00  0.00    +0.000 A 
ATOM     16  C   UNL     1      -4.819  12.712  19.739  0.00  0.00    +0.000 A 
ATOM     17 CL   UNL     1      -6.049  13.533  20.620  0.00  0.00    +0.000 Cl
ATOM     18  C   UNL     1      -5.108  12.174  18.492  0.00  0.00    +0.000 A 
ATOM     19  C   UNL     1      -4.109  11.518  17.791  0.00  0.00    +0.000 A 
ATOM     20  C   UNL     1      -2.813  11.388  18.353  0.00  0.00    +0.000 A 
BRANCH  10  21
ATOM     21  O   UNL     1      -1.876  10.170  16.518  0.00  0.00    +0.000 OA
ATOM     22  H   UNL     1      -1.228  10.700  16.021  0.00  0.00    +0.000 HD
ENDBRANCH  10  21
ENDBRANCH   9  12
ENDBRANCH   8   9
ENDBRANCH   1   8
BRANCH   5  23
ATOM     23  C   UNL     1       3.662   4.489  18.080  0.00  0.00    +0.000 C 
BRANCH  23  24
ATOM     24  C   UNL     1       4.938   3.931  18.721  0.00  0.00    +0.000 C 
BRANCH  24  25
ATOM     25  C   UNL     1       5.831   5.052  19.277  0.00  0.00    +0.000 C 
BRANCH  25  26
ATOM     26  N   UNL     1       7.185   5.055  18.712  0.00  0.00    +0.000 NA
ATOM     27  C   UNL     1       7.860   6.369  18.734  0.00  0.00    +0.000 C 
ATOM     28  C   UNL     1       7.488   7.317  17.582  0.00  0.00    +0.000 C 
ATOM     29  O   UNL     1       7.708   6.692  16.313  0.00  0.00    +0.000 OA
ATOM     30  C   UNL     1       6.909   5.511  16.203  0.00  0.00    +0.000 C 
ATOM     31  C   UNL     1       7.213   4.512  17.332  0.00  0.00    +0.000 C 
ENDBRANCH  25  26
ENDBRANCH  24  25
ENDBRANCH  23  24
ENDBRANCH   5  23
TORSDOF 8
ENDMDL
MODEL 8
REMARK VINA RESULT:      -7.1      1.968      2.490
REMARK  Name = 
REMARK  8 active torsions:
REMARK  status: ('A' for Active; 'I' for Inactive)
REMARK    1  A    between atoms: O_1  and  C_2
REMARK    2  A    between atoms: C_4  and  C_5
REMARK    3  A    between atoms: C_5  and  S_6
REMARK    4  A    between atoms: S_6  and  C_7
REMARK    5  A    between atoms: N_11  and  C_12
REMARK    6  A    between atoms: C_12  and  C_13
REMARK    7  A    between atoms: C_13  and  C_14
REMARK    8  A    between atoms: C_14  and  N_15
REMARK                            x       y       z     vdW  Elec       q    Type
REMARK                         _______ _______ _______ _____ _____    ______ ____
ROOT
ATOM      1  C   UNL     1       7.159   5.454  17.055  0.00  0.00    +0.000 A 
ATOM      2  N   UNL     1       7.365   6.433  16.204  0.00  0.00    +0.000 NA
ATOM      3  N   UNL     1       7.893   7.553  16.823  0.00  0.00    +0.000 NA
ATOM      4  C   UNL     1       8.074   7.383  18.116  0.00  0.00    +0.000 A 
ATOM      5  N   UNL     1       8.609   8.284  18.972  0.00  0.00    +0.000 N 
ATOM      6  S   UNL     1       7.565   5.833  18.676  0.00  0.00    +0.000 S 
ATOM      7  H   UNL     1       8.748   8.032  19.945  0.00  0.00    +0.000 HD
ENDROOT
BRANCH   1   8
ATOM      8  S   UNL     1       6.489   3.908  16.584  0.00  0.00    +0.000 S 
BRANCH   8   9
ATOM      9  C   UNL     1       4.822   4.389  16.036  0.00  0.00    +0.000 C 
BRANCH   9  12
ATOM     10  C   UNL     1       2.678   3.638  18.885  0.00  0.00    +0.000 A 
ATOM     11  N   UNL     1       3.411   3.446  17.788  0.00  0.00    +0.000 NA
ATOM     12  C   UNL     1       3.850   4.563  17.186  0.00  0.00    +0.000 A 
ATOM     13  N   UNL     1       3.548   5.818  17.586  0.00  0.00    +0.000 NA
ATOM     14  C   UNL     1       2.789   5.963  18.688  0.00  0.00    +0.000 A 
ATOM     15  C   UNL     1       2.461   7.234  19.142  0.00  0.00    +0.000 A 
ATOM     16  C   UNL     1       1.717   7.411  20.317  0.00  0.00    +0.000 A 
ATOM     17 CL   UNL     1       1.359   9.003  20.864  0.00  0.00    +0.000 Cl
ATOM     18  C   UNL     1       1.281   6.316  21.051  0.00  0.00    +0.000 A 
ATOM     19  C   UNL     1       1.574   5.039  20.599  0.00  0.00    +0.000 A 
ATOM     20  C   UNL     1       2.322   4.860  19.407  0.00  0.00    +0.000 A 
BRANCH  10  21
ATOM     21  O   UNL     1       2.319   2.468  19.479  0.00  0.00    +0.000 OA
ATOM     22  H   UNL     1       1.524   2.249  18.961  0.00  0.00    +0.000 HD
ENDBRANCH  10  21
ENDBRANCH   9  12
ENDBRANCH   8   9
ENDBRANCH   1   8
BRANCH   5  23
ATOM     23  C   UNL     1       8.639   9.693  18.620  0.00  0.00    +0.000 C 
BRANCH  23  24
ATOM     24  C   UNL     1       9.745  10.430  19.384  0.00  0.00    +0.000 C 
BRANCH  24  25
ATOM     25  C   UNL     1       9.389  11.907  19.613  0.00  0.00    +0.000 C 
BRANCH  25  26
ATOM     26  N   UNL     1       9.888  12.438  20.887  0.00  0.00    +0.000 NA
ATOM     27  C   UNL     1       8.921  12.375  22.003  0.00  0.00    +0.000 C 
ATOM     28  C   UNL     1       7.895  13.518  22.046  0.00  0.00    +0.000 C 
ATOM     29  O   UNL     1       8.547  14.792  22.055  0.00  0.00    +0.000 OA
ATOM     30  C   UNL     1       9.343  14.944  20.877  0.00  0.00    +0.000 C 
ATOM     31  C   UNL     1      10.392  13.826  20.752  0.00  0.00    +0.000 C 
ENDBRANCH  25  26
ENDBRANCH  24  25
ENDBRANCH  23  24
ENDBRANCH   5  23
TORSDOF 8
ENDMDL
MODEL 9
REMARK VINA RESULT:      -7.0      5.175      7.998
REMARK  Name = 
REMARK  8 active torsions:
REMARK  status: ('A' for Active; 'I' for Inactive)
REMARK    1  A    between atoms: O_1  and  C_2
REMARK    2  A    between atoms: C_4  and  C_5
REMARK    3  A    between atoms: C_5  and  S_6
REMARK    4  A    between atoms: S_6  and  C_7
REMARK    5  A    between atoms: N_11  and  C_12
REMARK    6  A    between atoms: C_12  and  C_13
REMARK    7  A    between atoms: C_13  and  C_14
REMARK    8  A    between atoms: C_14  and  N_15
REMARK                            x       y       z     vdW  Elec       q    Type
REMARK                         _______ _______ _______ _____ _____    ______ ____
ROOT
ATOM      1  C   UNL     1       1.502   8.617  19.869  0.00  0.00    +0.000 A 
ATOM      2  N   UNL     1       1.573   7.567  20.656  0.00  0.00    +0.000 NA
ATOM      3  N   UNL     1       2.207   6.502  20.040  0.00  0.00    +0.000 NA
ATOM      4  C   UNL     1       2.600   6.783  18.813  0.00  0.00    +0.000 A 
ATOM      5  N   UNL     1       3.279   5.957  17.985  0.00  0.00    +0.000 N 
ATOM      6  S   UNL     1       2.177   8.378  18.313  0.00  0.00    +0.000 S 
ATOM      7  H   UNL     1       3.576   6.291  17.075  0.00  0.00    +0.000 HD
ENDROOT
BRANCH   1   8
ATOM      8  S   UNL     1       0.747  10.120  20.353  0.00  0.00    +0.000 S 
BRANCH   8   9
ATOM      9  C   UNL     1      -0.240  10.519  18.877  0.00  0.00    +0.000 C 
BRANCH   9  12
ATOM     10  C   UNL     1      -3.548  12.018  18.584  0.00  0.00    +0.000 A 
ATOM     11  N   UNL     1      -2.402  11.441  18.224  0.00  0.00    +0.000 NA
ATOM     12  C   UNL     1      -1.488  11.317  19.200  0.00  0.00    +0.000 A 
ATOM     13  N   UNL     1      -1.644  11.782  20.459  0.00  0.00    +0.000 NA
ATOM     14  C   UNL     1      -2.810  12.375  20.772  0.00  0.00    +0.000 A 
ATOM     15  C   UNL     1      -3.019  12.860  22.056  0.00  0.00    +0.000 A 
ATOM     16  C   UNL     1      -4.246  13.433  22.421  0.00  0.00    +0.000 A 
ATOM     17 CL   UNL     1      -4.477  13.993  24.032  0.00  0.00    +0.000 Cl
ATOM     18  C   UNL     1      -5.280  13.538  21.501  0.00  0.00    +0.000 A 
ATOM     19  C   UNL     1      -5.081  13.086  20.206  0.00  0.00    +0.000 A 
ATOM     20  C   UNL     1      -3.838  12.511  19.836  0.00  0.00    +0.000 A 
BRANCH  10  21
ATOM     21  O   UNL     1      -4.450  12.056  17.567  0.00  0.00    +0.000 OA
ATOM     22  H   UNL     1      -4.954  11.244  17.753  0.00  0.00    +0.000 HD
ENDBRANCH  10  21
ENDBRANCH   9  12
ENDBRANCH   8   9
ENDBRANCH   1   8
BRANCH   5  23
ATOM     23  C   UNL     1       3.264   4.523  18.215  0.00  0.00    +0.000 C 
BRANCH  23  24
ATOM     24  C   UNL     1       4.684   3.945  18.198  0.00  0.00    +0.000 C 
BRANCH  24  25
ATOM     25  C   UNL     1       5.648   4.784  19.052  0.00  0.00    +0.000 C 
BRANCH  25  26
ATOM     26  N   UNL     1       7.021   4.802  18.535  0.00  0.00    +0.000 NA
ATOM     27  C   UNL     1       7.748   6.068  18.761  0.00  0.00    +0.000 C 
ATOM     28  C   UNL     1       7.458   7.182  17.742  0.00  0.00    +0.000 C 
ATOM     29  O   UNL     1       7.700   6.729  16.405  0.00  0.00    +0.000 OA
ATOM     30  C   UNL     1       6.857   5.612  16.107  0.00  0.00    +0.000 C 
ATOM     31  C   UNL     1       7.078   4.454  17.095  0.00  0.00    +0.000 C 
ENDBRANCH  25  26
ENDBRANCH  24  25
ENDBRANCH  23  24
ENDBRANCH   5  23
TORSDOF 8
ENDMDL
