MODEL 1
REMARK VINA RESULT:      -6.0      0.000      0.000
REMARK  Name = 
REMARK  4 active torsions:
REMARK  status: ('A' for Active; 'I' for Inactive)
REMARK    1  A    between atoms: C_1  and  O_2
REMARK    2  A    between atoms: O_2  and  C_3
REMARK    3  A    between atoms: N_11  and  C_12
REMARK    4  A    between atoms: C_12  and  C_13
REMARK                            x       y       z     vdW  Elec       q    Type
REMARK                         _______ _______ _______ _____ _____    ______ ____
ROOT
ATOM      1  C   UNL     1       4.332   4.441  19.456  0.00  0.00    +0.000 C 
ATOM      2  C   UNL     1       3.236   5.125  18.631  0.00  0.00    +0.000 C 
ATOM      3  C   UNL     1       3.947   5.710  17.408  0.00  0.00    +0.000 C 
ATOM      4  C   UNL     1       5.318   6.072  17.964  0.00  0.00    +0.000 C 
ATOM      5  C   UNL     1       5.676   4.893  18.883  0.00  0.00    +0.000 C 
ATOM      6  O   UNL     1       6.643   5.347  19.835  0.00  0.00    +0.000 OA
ATOM      7  C   UNL     1       7.834   5.760  19.127  0.00  0.00    +0.000 C 
ATOM      8  C   UNL     1       7.558   6.767  17.974  0.00  0.00    +0.000 C 
ATOM      9  N   UNL     1       6.444   6.395  17.052  0.00  0.00    +0.000 NA
ENDROOT
BRANCH   1  11
ATOM     10  C   UNL     1       2.871   2.550  20.027  0.00  0.00    +0.000 C 
ATOM     11  O   UNL     1       4.122   3.015  19.514  0.00  0.00    +0.000 OA
ENDBRANCH   1  11
BRANCH   9  12
ATOM     12  C   UNL     1       6.771   5.251  16.185  0.00  0.00    +0.000 C 
BRANCH  12  13
ATOM     13  C   UNL     1       6.178   5.248  14.812  0.00  0.00    +0.000 C 
ATOM     14  C   UNL     1       7.019   4.606  13.728  0.00  0.00    +0.000 C 
ATOM     15  C   UNL     1       5.723   3.973  14.141  0.00  0.00    +0.000 C 
ENDBRANCH  12  13
ENDBRANCH   9  12
TORSDOF 3
ENDMDL
MODEL 2
REMARK VINA RESULT:      -6.0      2.363      5.117
REMARK  Name = 
REMARK  4 active torsions:
REMARK  status: ('A' for Active; 'I' for Inactive)
REMARK    1  A    between atoms: C_1  and  O_2
REMARK    2  A    between atoms: O_2  and  C_3
REMARK    3  A    between atoms: N_11  and  C_12
REMARK    4  A    between atoms: C_12  and  C_13
REMARK                            x       y       z     vdW  Elec       q    Type
REMARK                         _______ _______ _______ _____ _____    ______ ____
ROOT
ATOM      1  C   UNL     1       5.910   6.301  16.742  0.00  0.00    +0.000 C 
ATOM      2  C   UNL     1       6.840   5.428  17.592  0.00  0.00    +0.000 C 
ATOM      3  C   UNL     1       5.921   4.639  18.528  0.00  0.00    +0.000 C 
ATOM      4  C   UNL     1       4.776   5.615  18.766  0.00  0.00    +0.000 C 
ATOM      5  C   UNL     1       4.526   6.248  17.388  0.00  0.00    +0.000 C 
ATOM      6  O   UNL     1       3.877   7.507  17.587  0.00  0.00    +0.000 OA
ATOM      7  C   UNL     1       2.602   7.278  18.228  0.00  0.00    +0.000 C 
ATOM      8  C   UNL     1       2.697   6.403  19.513  0.00  0.00    +0.000 C 
ATOM      9  N   UNL     1       3.504   5.154  19.378  0.00  0.00    +0.000 NA
ENDROOT
BRANCH   1  11
ATOM     10  C   UNL     1       6.812   4.820  15.001  0.00  0.00    +0.000 C 
ATOM     11  O   UNL     1       5.969   5.920  15.351  0.00  0.00    +0.000 OA
ENDBRANCH   1  11
BRANCH   9  12
ATOM     12  C   UNL     1       2.851   4.133  18.542  0.00  0.00    +0.000 C 
BRANCH  12  13
ATOM     13  C   UNL     1       1.399   3.878  18.792  0.00  0.00    +0.000 C 
ATOM     14  C   UNL     1       0.959   2.430  18.727  0.00  0.00    +0.000 C 
ATOM     15  C   UNL     1       0.915   3.166  20.034  0.00  0.00    +0.000 C 
ENDBRANCH  12  13
ENDBRANCH   9  12
TORSDOF 3
ENDMDL
MODEL 3
REMARK VINA RESULT:      -5.9      1.180      1.381
REMARK  Name = 
REMARK  4 active torsions:
REMARK  status: ('A' for Active; 'I' for Inactive)
REMARK    1  A    between atoms: C_1  and  O_2
REMARK    2  A    between atoms: O_2  and  C_3
REMARK    3  A    between atoms: N_11  and  C_12
REMARK    4  A    between atoms: C_12  and  C_13
REMARK                            x       y       z     vdW  Elec       q    Type
REMARK                         _______ _______ _______ _____ _____    ______ ____
ROOT
ATOM      1  C   UNL     1       3.312   3.863  19.849  0.00  0.00    +0.000 C 
ATOM      2  C   UNL     1       2.041   4.523  19.303  0.00  0.00    +0.000 C 
ATOM      3  C   UNL     1       2.445   5.151  17.967  0.00  0.00    +0.000 C 
ATOM      4  C   UNL     1       3.895   5.550  18.214  0.00  0.00    +0.000 C 
ATOM      5  C   UNL     1       4.482   4.369  19.004  0.00  0.00    +0.000 C 
ATOM      6  O   UNL     1       5.622   4.839  19.729  0.00  0.00    +0.000 OA
ATOM      7  C   UNL     1       6.614   5.303  18.786  0.00  0.00    +0.000 C 
ATOM      8  C   UNL     1       6.060   6.319  17.745  0.00  0.00    +0.000 C 
ATOM      9  N   UNL     1       4.781   5.924  17.083  0.00  0.00    +0.000 NA
ENDROOT
BRANCH   1  11
ATOM     10  C   UNL     1       3.557   1.664  18.780  0.00  0.00    +0.000 C 
ATOM     11  O   UNL     1       3.161   2.429  19.920  0.00  0.00    +0.000 OA
ENDBRANCH   1  11
BRANCH   9  12
ATOM     12  C   UNL     1       4.940   4.806  16.140  0.00  0.00    +0.000 C 
BRANCH  12  13
ATOM     13  C   UNL     1       5.632   5.102  14.847  0.00  0.00    +0.000 C 
ATOM     14  C   UNL     1       7.056   4.597  14.727  0.00  0.00    +0.000 C 
ATOM     15  C   UNL     1       5.980   4.011  13.860  0.00  0.00    +0.000 C 
ENDBRANCH  12  13
ENDBRANCH   9  12
TORSDOF 3
ENDMDL
MODEL 4
REMARK VINA RESULT:      -5.9      2.038      4.611
REMARK  Name = 
REMARK  4 active torsions:
REMARK  status: ('A' for Active; 'I' for Inactive)
REMARK    1  A    between atoms: C_1  and  O_2
REMARK    2  A    between atoms: O_2  and  C_3
REMARK    3  A    between atoms: N_11  and  C_12
REMARK    4  A    between atoms: C_12  and  C_13
REMARK                            x       y       z     vdW  Elec       q    Type
REMARK                         _______ _______ _______ _____ _____    ______ ____
ROOT
ATOM      1  C   UNL     1       6.836   6.727  17.153  0.00  0.00    +0.000 C 
ATOM      2  C   UNL     1       7.812   6.523  18.318  0.00  0.00    +0.000 C 
ATOM      3  C   UNL     1       7.124   5.535  19.263  0.00  0.00    +0.000 C 
ATOM      4  C   UNL     1       5.651   5.881  19.086  0.00  0.00    +0.000 C 
ATOM      5  C   UNL     1       5.498   6.121  17.575  0.00  0.00    +0.000 C 
ATOM      6  O   UNL     1       4.344   6.941  17.367  0.00  0.00    +0.000 OA
ATOM      7  C   UNL     1       3.177   6.232  17.843  0.00  0.00    +0.000 C 
ATOM      8  C   UNL     1       3.322   5.696  19.297  0.00  0.00    +0.000 C 
ATOM      9  N   UNL     1       4.593   4.967  19.587  0.00  0.00    +0.000 NA
ENDROOT
BRANCH   1  11
ATOM     10  C   UNL     1       7.066   4.889  15.539  0.00  0.00    +0.000 C 
ATOM     11  O   UNL     1       7.392   6.228  15.918  0.00  0.00    +0.000 OA
ENDBRANCH   1  11
BRANCH   9  12
ATOM     12  C   UNL     1       4.668   3.653  18.928  0.00  0.00    +0.000 C 
BRANCH  12  13
ATOM     13  C   UNL     1       3.444   2.796  18.981  0.00  0.00    +0.000 C 
ATOM     14  C   UNL     1       2.793   2.487  17.649  0.00  0.00    +0.000 C 
ATOM     15  C   UNL     1       3.434   1.385  18.440  0.00  0.00    +0.000 C 
ENDBRANCH  12  13
ENDBRANCH   9  12
TORSDOF 3
ENDMDL
MODEL 5
REMARK VINA RESULT:      -5.9      2.411      5.362
REMARK  Name = 
REMARK  4 active torsions:
REMARK  status: ('A' for Active; 'I' for Inactive)
REMARK    1  A    between atoms: C_1  and  O_2
REMARK    2  A    between atoms: O_2  and  C_3
REMARK    3  A    between atoms: N_11  and  C_12
REMARK    4  A    between atoms: C_12  and  C_13
REMARK                            x       y       z     vdW  Elec       q    Type
REMARK                         _______ _______ _______ _____ _____    ______ ____
ROOT
ATOM      1  C   UNL     1       5.273   5.430  17.029  0.00  0.00    +0.000 C 
ATOM      2  C   UNL     1       5.986   4.590  18.094  0.00  0.00    +0.000 C 
ATOM      3  C   UNL     1       4.950   4.359  19.197  0.00  0.00    +0.000 C 
ATOM      4  C   UNL     1       4.126   5.639  19.149  0.00  0.00    +0.000 C 
ATOM      5  C   UNL     1       3.968   5.931  17.648  0.00  0.00    +0.000 C 
ATOM      6  O   UNL     1       3.694   7.326  17.491  0.00  0.00    +0.000 OA
ATOM      7  C   UNL     1       2.446   7.633  18.155  0.00  0.00    +0.000 C 
ATOM      8  C   UNL     1       2.385   7.135  19.629  0.00  0.00    +0.000 C 
ATOM      9  N   UNL     1       2.817   5.723  19.846  0.00  0.00    +0.000 NA
ENDROOT
BRANCH   1  11
ATOM     10  C   UNL     1       6.320   4.501  15.009  0.00  0.00    +0.000 C 
ATOM     11  O   UNL     1       5.141   4.696  15.793  0.00  0.00    +0.000 OA
ENDBRANCH   1  11
BRANCH   9  12
ATOM     12  C   UNL     1       1.864   4.738  19.309  0.00  0.00    +0.000 C 
BRANCH  12  13
ATOM     13  C   UNL     1       1.135   3.888  20.301  0.00  0.00    +0.000 C 
ATOM     14  C   UNL     1       1.481   2.414  20.290  0.00  0.00    +0.000 C 
ATOM     15  C   UNL     1       1.838   3.256  21.480  0.00  0.00    +0.000 C 
ENDBRANCH  12  13
ENDBRANCH   9  12
TORSDOF 3
ENDMDL
MODEL 6
REMARK VINA RESULT:      -5.8      2.197      4.761
REMARK  Name = 
REMARK  4 active torsions:
REMARK  status: ('A' for Active; 'I' for Inactive)
REMARK    1  A    between atoms: C_1  and  O_2
REMARK    2  A    between atoms: O_2  and  C_3
REMARK    3  A    between atoms: N_11  and  C_12
REMARK    4  A    between atoms: C_12  and  C_13
REMARK                            x       y       z     vdW  Elec       q    Type
REMARK                         _______ _______ _______ _____ _____    ______ ____
ROOT
ATOM      1  C   UNL     1       7.127   4.637  15.276  0.00  0.00    +0.000 C 
ATOM      2  C   UNL     1       5.896   3.829  14.846  0.00  0.00    +0.000 C 
ATOM      3  C   UNL     1       4.783   4.225  15.819  0.00  0.00    +0.000 C 
ATOM      4  C   UNL     1       5.551   4.493  17.107  0.00  0.00    +0.000 C 
ATOM      5  C   UNL     1       6.815   5.238  16.646  0.00  0.00    +0.000 C 
ATOM      6  O   UNL     1       7.822   5.071  17.649  0.00  0.00    +0.000 OA
ATOM      7  C   UNL     1       7.356   5.669  18.880  0.00  0.00    +0.000 C 
ATOM      8  C   UNL     1       5.942   5.184  19.314  0.00  0.00    +0.000 C 
ATOM      9  N   UNL     1       4.903   5.200  18.242  0.00  0.00    +0.000 NA
ENDROOT
BRANCH   1  11
ATOM     10  C   UNL     1       7.766   5.061  12.942  0.00  0.00    +0.000 C 
ATOM     11  O   UNL     1       7.514   5.576  14.251  0.00  0.00    +0.000 OA
ENDBRANCH   1  11
BRANCH   9  12
ATOM     12  C   UNL     1       4.491   6.559  17.857  0.00  0.00    +0.000 C 
BRANCH  12  13
ATOM     13  C   UNL     1       3.022   6.840  17.823  0.00  0.00    +0.000 C 
ATOM     14  C   UNL     1       2.428   7.416  19.092  0.00  0.00    +0.000 C 
ATOM     15  C   UNL     1       2.478   8.249  17.845  0.00  0.00    +0.000 C 
ENDBRANCH  12  13
ENDBRANCH   9  12
TORSDOF 3
ENDMDL
MODEL 7
REMARK VINA RESULT:      -5.8      1.005      1.151
REMARK  Name = 
REMARK  4 active torsions:
REMARK  status: ('A' for Active; 'I' for Inactive)
REMARK    1  A    between atoms: C_1  and  O_2
REMARK    2  A    between atoms: O_2  and  C_3
REMARK    3  A    between atoms: N_11  and  C_12
REMARK    4  A    between atoms: C_12  and  C_13
REMARK                            x       y       z     vdW  Elec       q    Type
REMARK                         _______ _______ _______ _____ _____    ______ ____
ROOT
ATOM      1  C   UNL     1       3.968   4.442  19.475  0.00  0.00    +0.000 C 
ATOM      2  C   UNL     1       2.981   5.566  19.143  0.00  0.00    +0.000 C 
ATOM      3  C   UNL     1       3.431   6.122  17.790  0.00  0.00    +0.000 C 
ATOM      4  C   UNL     1       4.943   5.941  17.845  0.00  0.00    +0.000 C 
ATOM      5  C   UNL     1       5.135   4.561  18.494  0.00  0.00    +0.000 C 
ATOM      6  O   UNL     1       6.444   4.516  19.068  0.00  0.00    +0.000 OA
ATOM      7  C   UNL     1       7.420   4.670  18.013  0.00  0.00    +0.000 C 
ATOM      8  C   UNL     1       7.168   5.908  17.104  0.00  0.00    +0.000 C 
ATOM      9  N   UNL     1       5.766   6.068  16.616  0.00  0.00    +0.000 NA
ENDROOT
BRANCH   1  11
ATOM     10  C   UNL     1       3.305   2.383  18.309  0.00  0.00    +0.000 C 
ATOM     11  O   UNL     1       3.303   3.161  19.508  0.00  0.00    +0.000 OA
ENDBRANCH   1  11
BRANCH   9  12
ATOM     12  C   UNL     1       5.385   5.060  15.614  0.00  0.00    +0.000 C 
BRANCH  12  13
ATOM     13  C   UNL     1       6.496   4.372  14.886  0.00  0.00    +0.000 C 
ATOM     14  C   UNL     1       6.137   3.772  13.542  0.00  0.00    +0.000 C 
ATOM     15  C   UNL     1       7.085   4.934  13.612  0.00  0.00    +0.000 C 
ENDBRANCH  12  13
ENDBRANCH   9  12
TORSDOF 3
ENDMDL
MODEL 8
REMARK VINA RESULT:      -5.8      1.343      1.671
REMARK  Name = 
REMARK  4 active torsions:
REMARK  status: ('A' for Active; 'I' for Inactive)
REMARK    1  A    between atoms: C_1  and  O_2
REMARK    2  A    between atoms: O_2  and  C_3
REMARK    3  A    between atoms: N_11  and  C_12
REMARK    4  A    between atoms: C_12  and  C_13
REMARK                            x       y       z     vdW  Elec       q    Type
REMARK                         _______ _______ _______ _____ _____    ______ ____
ROOT
ATOM      1  C   UNL     1       3.014   4.186  19.997  0.00  0.00    +0.000 C 
ATOM      2  C   UNL     1       1.806   4.533  19.119  0.00  0.00    +0.000 C 
ATOM      3  C   UNL     1       2.362   4.715  17.705  0.00  0.00    +0.000 C 
ATOM      4  C   UNL     1       3.752   5.281  17.969  0.00  0.00    +0.000 C 
ATOM      5  C   UNL     1       4.268   4.472  19.170  0.00  0.00    +0.000 C 
ATOM      6  O   UNL     1       5.286   5.239  19.820  0.00  0.00    +0.000 OA
ATOM      7  C   UNL     1       6.379   5.440  18.895  0.00  0.00    +0.000 C 
ATOM      8  C   UNL     1       5.934   6.014  17.518  0.00  0.00    +0.000 C 
ATOM      9  N   UNL     1       4.768   5.329  16.886  0.00  0.00    +0.000 NA
ENDROOT
BRANCH   1  11
ATOM     10  C   UNL     1       2.064   2.655  21.668  0.00  0.00    +0.000 C 
ATOM     11  O   UNL     1       2.903   2.848  20.527  0.00  0.00    +0.000 OA
ENDBRANCH   1  11
BRANCH   9  12
ATOM     12  C   UNL     1       5.088   3.978  16.397  0.00  0.00    +0.000 C 
BRANCH  12  13
ATOM     13  C   UNL     1       6.217   3.858  15.424  0.00  0.00    +0.000 C 
ATOM     14  C   UNL     1       5.830   3.817  13.960  0.00  0.00    +0.000 C 
ATOM     15  C   UNL     1       6.597   4.990  14.498  0.00  0.00    +0.000 C 
ENDBRANCH  12  13
ENDBRANCH   9  12
TORSDOF 3
ENDMDL
MODEL 9
REMARK VINA RESULT:      -5.7      2.003      4.700
REMARK  Name = 
REMARK  4 active torsions:
REMARK  status: ('A' for Active; 'I' for Inactive)
REMARK    1  A    between atoms: C_1  and  O_2
REMARK    2  A    between atoms: O_2  and  C_3
REMARK    3  A    between atoms: N_11  and  C_12
REMARK    4  A    between atoms: C_12  and  C_13
REMARK                            x       y       z     vdW  Elec       q    Type
REMARK                         _______ _______ _______ _____ _____    ______ ____
ROOT
ATOM      1  C   UNL     1       6.964   4.387  17.404  0.00  0.00    +0.000 C 
ATOM      2  C   UNL     1       6.697   4.572  15.906  0.00  0.00    +0.000 C 
ATOM      3  C   UNL     1       5.302   5.194  15.811  0.00  0.00    +0.000 C 
ATOM      4  C   UNL     1       4.585   4.581  17.008  0.00  0.00    +0.000 C 
ATOM      5  C   UNL     1       5.636   4.604  18.129  0.00  0.00    +0.000 C 
ATOM      6  O   UNL     1       5.279   3.610  19.095  0.00  0.00    +0.000 OA
ATOM      7  C   UNL     1       3.993   3.951  19.660  0.00  0.00    +0.000 C 
ATOM      8  C   UNL     1       2.894   4.222  18.592  0.00  0.00    +0.000 C 
ATOM      9  N   UNL     1       3.292   5.137  17.481  0.00  0.00    +0.000 NA
ENDROOT
BRANCH   1  11
ATOM     10  C   UNL     1       7.764   6.293  18.733  0.00  0.00    +0.000 C 
ATOM     11  O   UNL     1       8.061   5.218  17.841  0.00  0.00    +0.000 OA
ENDBRANCH   1  11
BRANCH   9  12
ATOM     12  C   UNL     1       3.439   6.537  17.911  0.00  0.00    +0.000 C 
BRANCH  12  13
ATOM     13  C   UNL     1       2.196   7.366  17.963  0.00  0.00    +0.000 C 
ATOM     14  C   UNL     1       1.996   8.183  19.223  0.00  0.00    +0.000 C 
ATOM     15  C   UNL     1       2.240   8.876  17.914  0.00  0.00    +0.000 C 
ENDBRANCH  12  13
ENDBRANCH   9  12
TORSDOF 3
ENDMDL
