MODEL 1
REMARK VINA RESULT:      -8.3      0.000      0.000
REMARK  Name = 
REMARK  14 active torsions:
REMARK  status: ('A' for Active; 'I' for Inactive)
REMARK    1  A    between atoms: C_1  and  C_2
REMARK    2  A    between atoms: C_4  and  C_5
REMARK    3  A    between atoms: C_5  and  O_7
REMARK    4  A    between atoms: O_7  and  C_8
REMARK    5  A    between atoms: C_11  and  C_12
REMARK    6  A    between atoms: C_19  and  C_20
REMARK    7  A    between atoms: C_20  and  C_21
REMARK    8  A    between atoms: C_21  and  C_22
REMARK    9  A    between atoms: N_24  and  CA_25
REMARK   10  A    between atoms: CA_25  and  CB_26
REMARK   11  A    between atoms: CA_25  and  C_30
REMARK   12  A    between atoms: CB_26  and  CG_27
REMARK   13  A    between atoms: CG_27  and  OD2_29
REMARK   14  A    between atoms: C_30  and  OXT_32
REMARK                            x       y       z     vdW  Elec       q    Type
REMARK                         _______ _______ _______ _____ _____    ______ ____
ROOT
ATOM      1  C   UNK A   0       2.027   9.376  17.669  0.00  0.00    +0.000 C 
ATOM      2  C   UNK A   0       2.063   8.280  18.683  0.00  0.00    +0.000 A 
ATOM      3  C   UNK A   0       2.694   7.017  18.432  0.00  0.00    +0.000 A 
ATOM      4  C   UNK A   0       2.572   6.121  19.473  0.00  0.00    +0.000 A 
ATOM      5  S   UNK A   0       1.721   6.819  20.775  0.00  0.00    +0.000 S 
ATOM      6  C   UNK A   0       1.496   8.309  19.949  0.00  0.00    +0.000 A 
ENDROOT
BRANCH   4   7
ATOM      7  C   UNK A   0       3.022   4.736  19.451  0.00  0.00    +0.000 C 
ATOM      8  O   UNK A   0       2.289   3.753  19.400  0.00  0.00    +0.000 OA
BRANCH   7   9
ATOM      9  O   UNK A   0       4.410   4.646  19.556  0.00  0.00    +0.000 OA
BRANCH   9  10
ATOM     10  C   UNK A   0       5.048   4.503  18.319  0.00  0.00    +0.000 A 
ATOM     11  C   UNK A   0       4.346   3.912  17.270  0.00  0.00    +0.000 A 
ATOM     12  C   UNK A   0       4.918   3.890  15.989  0.00  0.00    +0.000 A 
ATOM     13  C   UNK A   0       6.178   4.462  15.764  0.00  0.00    +0.000 A 
ATOM     14  C   UNK A   0       6.881   5.037  16.824  0.00  0.00    +0.000 A 
ATOM     15  C   UNK A   0       6.308   5.060  18.088  0.00  0.00    +0.000 A 
ATOM     16  F   UNK A   0       6.985   5.676  19.074  0.00  0.00    +0.000 F 
BRANCH  13  17
ATOM     17  C   UNK A   0       6.776   4.485  14.399  0.00  0.00    +0.000 C 
ATOM     18  N   UNK A   0       6.462   3.637  13.470  0.00  0.00    +0.000 NA
ATOM     19  N   UNK A   0       7.706   5.425  14.069  0.00  0.00    +0.000 N 
ATOM     20  H   UNK A   0       5.789   2.939  13.803  0.00  0.00    +0.000 HD
ATOM     21  H   UNK A   0       7.554   6.348  14.455  0.00  0.00    +0.000 HD
ATOM     22  H   UNK A   0       7.846   5.440  13.062  0.00  0.00    +0.000 HD
ENDBRANCH  13  17
ENDBRANCH   9  10
ENDBRANCH   7   9
ENDBRANCH   4   7
BRANCH   6  23
ATOM     23  C   UNK A   0       0.716   9.425  20.607  0.00  0.00    +0.000 C 
BRANCH  23  24
ATOM     24  C   UNK A   0      -0.269   8.953  21.673  0.00  0.00    +0.000 C 
BRANCH  24  25
ATOM     25  C   UNK A   0      -0.472   9.972  22.775  0.00  0.00    +0.000 C 
ATOM     26  O   UNK A   0       0.068   9.905  23.873  0.00  0.00    +0.000 OA
ATOM     27  N   ASP A   1      -1.259  11.033  22.398  0.00  0.00    +0.000 N 
ATOM     28  H   ASP A   1      -1.746  11.013  21.504  0.00  0.00    +0.000 HD
BRANCH  27  29
ATOM     29  CA  ASP A   1      -1.620  12.110  23.321  0.00  0.00    +0.000 C 
BRANCH  29  30
ATOM     30  C   ASP A   1      -3.145  12.246  23.262  0.00  0.00    +0.000 C 
ATOM     31  O   ASP A   1      -3.770  12.242  22.207  0.00  0.00    +0.000 OA
BRANCH  30  32
ATOM     32  OXT ASP A   1      -3.747  12.410  24.459  0.00  0.00    +0.000 OA
ATOM     33  HXT ASP A   1      -3.977  11.571  24.924  0.00  0.00    +0.000 HD
ENDBRANCH  30  32
ENDBRANCH  29  30
BRANCH  29  34
ATOM     34  CB  ASP A   1      -0.965  13.423  22.900  0.00  0.00    +0.000 C 
BRANCH  34  35
ATOM     35  CG  ASP A   1      -0.347  13.259  21.542  0.00  0.00    +0.000 C 
ATOM     36  OD1 ASP A   1      -0.992  13.319  20.501  0.00  0.00    +0.000 OA
BRANCH  35  37
ATOM     37  OD2 ASP A   1       0.974  12.999  21.566  0.00  0.00    +0.000 OA
ATOM     38  HD2 ASP A   1       1.215  12.054  21.486  0.00  0.00    +0.000 HD
ENDBRANCH  35  37
ENDBRANCH  34  35
ENDBRANCH  29  34
ENDBRANCH  27  29
ENDBRANCH  24  25
ENDBRANCH  23  24
ENDBRANCH   6  23
TORSDOF 13
ENDMDL
MODEL 2
REMARK VINA RESULT:      -8.3      3.141     10.181
REMARK  Name = 
REMARK  14 active torsions:
REMARK  status: ('A' for Active; 'I' for Inactive)
REMARK    1  A    between atoms: C_1  and  C_2
REMARK    2  A    between atoms: C_4  and  C_5
REMARK    3  A    between atoms: C_5  and  O_7
REMARK    4  A    between atoms: O_7  and  C_8
REMARK    5  A    between atoms: C_11  and  C_12
REMARK    6  A    between atoms: C_19  and  C_20
REMARK    7  A    between atoms: C_20  and  C_21
REMARK    8  A    between atoms: C_21  and  C_22
REMARK    9  A    between atoms: N_24  and  CA_25
REMARK   10  A    between atoms: CA_25  and  CB_26
REMARK   11  A    between atoms: CA_25  and  C_30
REMARK   12  A    between atoms: CB_26  and  CG_27
REMARK   13  A    between atoms: CG_27  and  OD2_29
REMARK   14  A    between atoms: C_30  and  OXT_32
REMARK                            x       y       z     vdW  Elec       q    Type
REMARK                         _______ _______ _______ _____ _____    ______ ____
ROOT
ATOM      1  C   UNK A   0       1.657   3.437  21.328  0.00  0.00    +0.000 C 
ATOM      2  C   UNK A   0       1.881   4.542  20.349  0.00  0.00    +0.000 A 
ATOM      3  C   UNK A   0       1.751   5.925  20.704  0.00  0.00    +0.000 A 
ATOM      4  C   UNK A   0       1.946   6.788  19.646  0.00  0.00    +0.000 A 
ATOM      5  S   UNK A   0       2.324   5.927  18.224  0.00  0.00    +0.000 S 
ATOM      6  C   UNK A   0       2.208   4.401  19.009  0.00  0.00    +0.000 A 
ENDROOT
BRANCH   4   7
ATOM      7  C   UNK A   0       1.772   8.233  19.693  0.00  0.00    +0.000 C 
ATOM      8  O   UNK A   0       1.519   8.949  18.729  0.00  0.00    +0.000 OA
BRANCH   7   9
ATOM      9  O   UNK A   0       1.988   8.734  20.977  0.00  0.00    +0.000 OA
BRANCH   9  10
ATOM     10  C   UNK A   0       0.949   9.555  21.430  0.00  0.00    +0.000 A 
ATOM     11  C   UNK A   0       0.094   9.065  22.416  0.00  0.00    +0.000 A 
ATOM     12  C   UNK A   0      -0.861   9.924  22.981  0.00  0.00    +0.000 A 
ATOM     13  C   UNK A   0      -0.951  11.260  22.566  0.00  0.00    +0.000 A 
ATOM     14  C   UNK A   0      -0.101  11.736  21.567  0.00  0.00    +0.000 A 
ATOM     15  C   UNK A   0       0.845  10.884  21.015  0.00  0.00    +0.000 A 
ATOM     16  F   UNK A   0       1.690  11.392  20.098  0.00  0.00    +0.000 F 
BRANCH  13  17
ATOM     17  C   UNK A   0      -1.930  12.192  23.191  0.00  0.00    +0.000 C 
ATOM     18  N   UNK A   0      -3.126  11.836  23.545  0.00  0.00    +0.000 NA
ATOM     19  N   UNK A   0      -1.596  13.495  23.418  0.00  0.00    +0.000 N 
ATOM     20  H   UNK A   0      -3.318  10.857  23.309  0.00  0.00    +0.000 HD
ATOM     21  H   UNK A   0      -0.643  13.658  23.713  0.00  0.00    +0.000 HD
ATOM     22  H   UNK A   0      -2.278  13.928  24.034  0.00  0.00    +0.000 HD
ENDBRANCH  13  17
ENDBRANCH   9  10
ENDBRANCH   7   9
ENDBRANCH   4   7
BRANCH   6  23
ATOM     23  C   UNK A   0       2.413   3.130  18.217  0.00  0.00    +0.000 C 
BRANCH  23  24
ATOM     24  C   UNK A   0       3.795   2.503  18.388  0.00  0.00    +0.000 C 
BRANCH  24  25
ATOM     25  C   UNK A   0       4.901   3.534  18.459  0.00  0.00    +0.000 C 
ATOM     26  O   UNK A   0       5.382   3.946  19.509  0.00  0.00    +0.000 OA
ATOM     27  N   ASP A   1       5.380   3.906  17.227  0.00  0.00    +0.000 N 
ATOM     28  H   ASP A   1       4.905   3.596  16.381  0.00  0.00    +0.000 HD
BRANCH  27  29
ATOM     29  CA  ASP A   1       6.422   4.922  17.062  0.00  0.00    +0.000 C 
BRANCH  29  30
ATOM     30  C   ASP A   1       6.867   4.861  15.598  0.00  0.00    +0.000 C 
ATOM     31  O   ASP A   1       7.632   5.682  15.104  0.00  0.00    +0.000 OA
BRANCH  30  32
ATOM     32  OXT ASP A   1       6.323   3.856  14.880  0.00  0.00    +0.000 OA
ATOM     33  HXT ASP A   1       5.624   4.135  14.243  0.00  0.00    +0.000 HD
ENDBRANCH  30  32
ENDBRANCH  29  30
BRANCH  29  34
ATOM     34  CB  ASP A   1       7.607   4.632  17.978  0.00  0.00    +0.000 C 
BRANCH  34  35
ATOM     35  CG  ASP A   1       7.817   5.792  18.907  0.00  0.00    +0.000 C 
ATOM     36  OD1 ASP A   1       7.979   6.942  18.515  0.00  0.00    +0.000 OA
BRANCH  35  37
ATOM     37  OD2 ASP A   1       7.853   5.455  20.210  0.00  0.00    +0.000 OA
ATOM     38  HD2 ASP A   1       8.613   5.812  20.713  0.00  0.00    +0.000 HD
ENDBRANCH  35  37
ENDBRANCH  34  35
ENDBRANCH  29  34
ENDBRANCH  27  29
ENDBRANCH  24  25
ENDBRANCH  23  24
ENDBRANCH   6  23
TORSDOF 13
ENDMDL
MODEL 3
REMARK VINA RESULT:      -7.9      3.949     10.543
REMARK  Name = 
REMARK  14 active torsions:
REMARK  status: ('A' for Active; 'I' for Inactive)
REMARK    1  A    between atoms: C_1  and  C_2
REMARK    2  A    between atoms: C_4  and  C_5
REMARK    3  A    between atoms: C_5  and  O_7
REMARK    4  A    between atoms: O_7  and  C_8
REMARK    5  A    between atoms: C_11  and  C_12
REMARK    6  A    between atoms: C_19  and  C_20
REMARK    7  A    between atoms: C_20  and  C_21
REMARK    8  A    between atoms: C_21  and  C_22
REMARK    9  A    between atoms: N_24  and  CA_25
REMARK   10  A    between atoms: CA_25  and  CB_26
REMARK   11  A    between atoms: CA_25  and  C_30
REMARK   12  A    between atoms: CB_26  and  CG_27
REMARK   13  A    between atoms: CG_27  and  OD2_29
REMARK   14  A    between atoms: C_30  and  OXT_32
REMARK                            x       y       z     vdW  Elec       q    Type
REMARK                         _______ _______ _______ _____ _____    ______ ____
ROOT
ATOM      1  C   UNK A   0       1.969   6.247  20.880  0.00  0.00    +0.000 C 
ATOM      2  C   UNK A   0       1.720   7.535  20.167  0.00  0.00    +0.000 A 
ATOM      3  C   UNK A   0       0.905   8.577  20.720  0.00  0.00    +0.000 A 
ATOM      4  C   UNK A   0       0.755   9.664  19.884  0.00  0.00    +0.000 A 
ATOM      5  S   UNK A   0       1.631   9.441  18.438  0.00  0.00    +0.000 S 
ATOM      6  C   UNK A   0       2.196   7.889  18.913  0.00  0.00    +0.000 A 
ENDROOT
BRANCH   4   7
ATOM      7  C   UNK A   0      -0.100  10.815  20.141  0.00  0.00    +0.000 C 
ATOM      8  O   UNK A   0      -0.422  11.225  21.252  0.00  0.00    +0.000 OA
BRANCH   7   9
ATOM      9  O   UNK A   0      -0.571  11.379  18.955  0.00  0.00    +0.000 OA
BRANCH   9  10
ATOM     10  C   UNK A   0      -1.959  11.268  18.806  0.00  0.00    +0.000 A 
ATOM     11  C   UNK A   0      -2.776  12.173  19.481  0.00  0.00    +0.000 A 
ATOM     12  C   UNK A   0      -4.157  12.166  19.230  0.00  0.00    +0.000 A 
ATOM     13  C   UNK A   0      -4.708  11.267  18.307  0.00  0.00    +0.000 A 
ATOM     14  C   UNK A   0      -3.883  10.354  17.648  0.00  0.00    +0.000 A 
ATOM     15  C   UNK A   0      -2.517  10.368  17.896  0.00  0.00    +0.000 A 
ATOM     16  F   UNK A   0      -1.743   9.517  17.198  0.00  0.00    +0.000 F 
BRANCH  13  17
ATOM     17  C   UNK A   0      -6.166  11.281  18.000  0.00  0.00    +0.000 C 
ATOM     18  N   UNK A   0      -6.707  12.100  17.154  0.00  0.00    +0.000 NA
ATOM     19  N   UNK A   0      -7.009  10.407  18.618  0.00  0.00    +0.000 N 
ATOM     20  H   UNK A   0      -6.019  12.750  16.759  0.00  0.00    +0.000 HD
ATOM     21  H   UNK A   0      -6.642   9.477  18.775  0.00  0.00    +0.000 HD
ATOM     22  H   UNK A   0      -7.910  10.398  18.148  0.00  0.00    +0.000 HD
ENDBRANCH  13  17
ENDBRANCH   9  10
ENDBRANCH   7   9
ENDBRANCH   4   7
BRANCH   6  23
ATOM     23  C   UNK A   0       3.062   7.082  17.972  0.00  0.00    +0.000 C 
BRANCH  23  24
ATOM     24  C   UNK A   0       2.824   5.576  18.040  0.00  0.00    +0.000 C 
BRANCH  24  25
ATOM     25  C   UNK A   0       4.099   4.790  18.260  0.00  0.00    +0.000 C 
ATOM     26  O   UNK A   0       4.232   3.936  19.130  0.00  0.00    +0.000 OA
ATOM     27  N   ASP A   1       5.075   5.064  17.334  0.00  0.00    +0.000 N 
ATOM     28  H   ASP A   1       4.951   5.830  16.675  0.00  0.00    +0.000 HD
BRANCH  27  29
ATOM     29  CA  ASP A   1       6.402   4.447  17.385  0.00  0.00    +0.000 C 
BRANCH  29  30
ATOM     30  C   ASP A   1       7.295   5.395  18.190  0.00  0.00    +0.000 C 
ATOM     31  O   ASP A   1       7.757   5.098  19.287  0.00  0.00    +0.000 OA
BRANCH  30  32
ATOM     32  OXT ASP A   1       7.506   6.600  17.619  0.00  0.00    +0.000 OA
ATOM     33  HXT ASP A   1       8.062   6.580  16.805  0.00  0.00    +0.000 HD
ENDBRANCH  30  32
ENDBRANCH  29  30
BRANCH  29  34
ATOM     34  CB  ASP A   1       6.968   4.269  15.979  0.00  0.00    +0.000 C 
BRANCH  34  35
ATOM     35  CG  ASP A   1       6.010   4.846  14.978  0.00  0.00    +0.000 C 
ATOM     36  OD1 ASP A   1       5.341   4.157  14.217  0.00  0.00    +0.000 OA
BRANCH  35  37
ATOM     37  OD2 ASP A   1       5.979   6.192  14.959  0.00  0.00    +0.000 OA
ATOM     38  HD2 ASP A   1       5.308   6.603  15.541  0.00  0.00    +0.000 HD
ENDBRANCH  35  37
ENDBRANCH  34  35
ENDBRANCH  29  34
ENDBRANCH  27  29
ENDBRANCH  24  25
ENDBRANCH  23  24
ENDBRANCH   6  23
TORSDOF 13
ENDMDL
MODEL 4
REMARK VINA RESULT:      -7.9      3.464      5.170
REMARK  Name = 
REMARK  14 active torsions:
REMARK  status: ('A' for Active; 'I' for Inactive)
REMARK    1  A    between atoms: C_1  and  C_2
REMARK    2  A    between atoms: C_4  and  C_5
REMARK    3  A    between atoms: C_5  and  O_7
REMARK    4  A    between atoms: O_7  and  C_8
REMARK    5  A    between atoms: C_11  and  C_12
REMARK    6  A    between atoms: C_19  and  C_20
REMARK    7  A    between atoms: C_20  and  C_21
REMARK    8  A    between atoms: C_21  and  C_22
REMARK    9  A    between atoms: N_24  and  CA_25
REMARK   10  A    between atoms: CA_25  and  CB_26
REMARK   11  A    between atoms: CA_25  and  C_30
REMARK   12  A    between atoms: CB_26  and  CG_27
REMARK   13  A    between atoms: CG_27  and  OD2_29
REMARK   14  A    between atoms: C_30  and  OXT_32
REMARK                            x       y       z     vdW  Elec       q    Type
REMARK                         _______ _______ _______ _____ _____    ______ ____
ROOT
ATOM      1  C   UNK A   0      -0.750  10.043  23.126  0.00  0.00    +0.000 C 
ATOM      2  C   UNK A   0      -0.370  10.110  21.684  0.00  0.00    +0.000 A 
ATOM      3  C   UNK A   0       0.464   9.125  21.059  0.00  0.00    +0.000 A 
ATOM      4  C   UNK A   0       0.743   9.395  19.736  0.00  0.00    +0.000 A 
ATOM      5  S   UNK A   0      -0.033  10.828  19.234  0.00  0.00    +0.000 S 
ATOM      6  C   UNK A   0      -0.727  11.103  20.783  0.00  0.00    +0.000 A 
ENDROOT
BRANCH   4   7
ATOM      7  C   UNK A   0       1.644   8.626  18.889  0.00  0.00    +0.000 C 
ATOM      8  O   UNK A   0       1.605   8.586  17.663  0.00  0.00    +0.000 OA
BRANCH   7   9
ATOM      9  O   UNK A   0       2.544   7.875  19.647  0.00  0.00    +0.000 OA
BRANCH   9  10
ATOM     10  C   UNK A   0       2.421   6.496  19.441  0.00  0.00    +0.000 A 
ATOM     11  C   UNK A   0       1.619   5.760  20.312  0.00  0.00    +0.000 A 
ATOM     12  C   UNK A   0       1.372   4.407  20.035  0.00  0.00    +0.000 A 
ATOM     13  C   UNK A   0       1.918   3.802  18.894  0.00  0.00    +0.000 A 
ATOM     14  C   UNK A   0       2.733   4.544  18.038  0.00  0.00    +0.000 A 
ATOM     15  C   UNK A   0       2.971   5.883  18.313  0.00  0.00    +0.000 A 
ATOM     16  F   UNK A   0       3.710   6.585  17.434  0.00  0.00    +0.000 F 
BRANCH  13  17
ATOM     17  C   UNK A   0       1.627   2.379  18.567  0.00  0.00    +0.000 C 
ATOM     18  N   UNK A   0       0.425   1.900  18.482  0.00  0.00    +0.000 NA
ATOM     19  N   UNK A   0       2.644   1.500  18.341  0.00  0.00    +0.000 N 
ATOM     20  H   UNK A   0      -0.284   2.607  18.702  0.00  0.00    +0.000 HD
ATOM     21  H   UNK A   0       3.442   1.870  17.841  0.00  0.00    +0.000 HD
ATOM     22  H   UNK A   0       2.283   0.646  17.925  0.00  0.00    +0.000 HD
ENDBRANCH  13  17
ENDBRANCH   9  10
ENDBRANCH   7   9
ENDBRANCH   4   7
BRANCH   6  23
ATOM     23  C   UNK A   0      -1.567  12.336  21.023  0.00  0.00    +0.000 C 
BRANCH  23  24
ATOM     24  C   UNK A   0      -2.868  12.371  20.226  0.00  0.00    +0.000 C 
BRANCH  24  25
ATOM     25  C   UNK A   0      -3.943  13.203  20.893  0.00  0.00    +0.000 C 
ATOM     26  O   UNK A   0      -4.117  14.396  20.670  0.00  0.00    +0.000 OA
ATOM     27  N   ASP A   1      -4.766  12.473  21.716  0.00  0.00    +0.000 N 
ATOM     28  H   ASP A   1      -4.542  11.504  21.929  0.00  0.00    +0.000 HD
BRANCH  27  29
ATOM     29  CA  ASP A   1      -5.845  13.087  22.492  0.00  0.00    +0.000 C 
BRANCH  29  30
ATOM     30  C   ASP A   1      -5.395  13.072  23.956  0.00  0.00    +0.000 C 
ATOM     31  O   ASP A   1      -5.197  12.033  24.578  0.00  0.00    +0.000 OA
BRANCH  30  32
ATOM     32  OXT ASP A   1      -5.268  14.290  24.524  0.00  0.00    +0.000 OA
ATOM     33  HXT ASP A   1      -4.971  15.003  23.910  0.00  0.00    +0.000 HD
ENDBRANCH  30  32
ENDBRANCH  29  30
BRANCH  29  34
ATOM     34  CB  ASP A   1      -7.139  12.293  22.339  0.00  0.00    +0.000 C 
BRANCH  34  35
ATOM     35  CG  ASP A   1      -7.183  11.670  20.974  0.00  0.00    +0.000 C 
ATOM     36  OD1 ASP A   1      -7.063  10.465  20.783  0.00  0.00    +0.000 OA
BRANCH  35  37
ATOM     37  OD2 ASP A   1      -7.324  12.555  19.969  0.00  0.00    +0.000 OA
ATOM     38  HD2 ASP A   1      -7.253  13.496  20.228  0.00  0.00    +0.000 HD
ENDBRANCH  35  37
ENDBRANCH  34  35
ENDBRANCH  29  34
ENDBRANCH  27  29
ENDBRANCH  24  25
ENDBRANCH  23  24
ENDBRANCH   6  23
TORSDOF 13
ENDMDL
MODEL 5
REMARK VINA RESULT:      -7.8      3.821     10.283
REMARK  Name = 
REMARK  14 active torsions:
REMARK  status: ('A' for Active; 'I' for Inactive)
REMARK    1  A    between atoms: C_1  and  C_2
REMARK    2  A    between atoms: C_4  and  C_5
REMARK    3  A    between atoms: C_5  and  O_7
REMARK    4  A    between atoms: O_7  and  C_8
REMARK    5  A    between atoms: C_11  and  C_12
REMARK    6  A    between atoms: C_19  and  C_20
REMARK    7  A    between atoms: C_20  and  C_21
REMARK    8  A    between atoms: C_21  and  C_22
REMARK    9  A    between atoms: N_24  and  CA_25
REMARK   10  A    between atoms: CA_25  and  CB_26
REMARK   11  A    between atoms: CA_25  and  C_30
REMARK   12  A    between atoms: CB_26  and  CG_27
REMARK   13  A    between atoms: CG_27  and  OD2_29
REMARK   14  A    between atoms: C_30  and  OXT_32
REMARK                            x       y       z     vdW  Elec       q    Type
REMARK                         _______ _______ _______ _____ _____    ______ ____
ROOT
ATOM      1  C   UNK A   0       3.360   7.323  17.529  0.00  0.00    +0.000 C 
ATOM      2  C   UNK A   0       2.482   7.655  18.690  0.00  0.00    +0.000 A 
ATOM      3  C   UNK A   0       1.734   8.876  18.767  0.00  0.00    +0.000 A 
ATOM      4  C   UNK A   0       1.027   9.019  19.943  0.00  0.00    +0.000 A 
ATOM      5  S   UNK A   0       1.238   7.656  20.945  0.00  0.00    +0.000 S 
ATOM      6  C   UNK A   0       2.288   6.881  19.825  0.00  0.00    +0.000 A 
ENDROOT
BRANCH   4   7
ATOM      7  C   UNK A   0       0.269  10.199  20.334  0.00  0.00    +0.000 C 
ATOM      8  O   UNK A   0      -0.239  10.383  21.435  0.00  0.00    +0.000 OA
BRANCH   7   9
ATOM      9  O   UNK A   0       0.132  11.095  19.273  0.00  0.00    +0.000 OA
BRANCH   9  10
ATOM     10  C   UNK A   0      -1.202  11.332  18.921  0.00  0.00    +0.000 A 
ATOM     11  C   UNK A   0      -1.825  10.452  18.037  0.00  0.00    +0.000 A 
ATOM     12  C   UNK A   0      -3.198  10.593  17.786  0.00  0.00    +0.000 A 
ATOM     13  C   UNK A   0      -3.938  11.600  18.420  0.00  0.00    +0.000 A 
ATOM     14  C   UNK A   0      -3.302  12.486  19.290  0.00  0.00    +0.000 A 
ATOM     15  C   UNK A   0      -1.944  12.340  19.539  0.00  0.00    +0.000 A 
ATOM     16  F   UNK A   0      -1.375  13.172  20.431  0.00  0.00    +0.000 F 
BRANCH  13  17
ATOM     17  C   UNK A   0      -5.405  11.731  18.195  0.00  0.00    +0.000 C 
ATOM     18  N   UNK A   0      -6.226  10.730  18.258  0.00  0.00    +0.000 NA
ATOM     19  N   UNK A   0      -5.953  12.945  17.904  0.00  0.00    +0.000 N 
ATOM     20  H   UNK A   0      -5.739   9.847  18.441  0.00  0.00    +0.000 HD
ATOM     21  H   UNK A   0      -5.550  13.736  18.388  0.00  0.00    +0.000 HD
ATOM     22  H   UNK A   0      -6.964  12.903  17.995  0.00  0.00    +0.000 HD
ENDBRANCH  13  17
ENDBRANCH   9  10
ENDBRANCH   7   9
ENDBRANCH   4   7
BRANCH   6  23
ATOM     23  C   UNK A   0       2.900   5.543  20.169  0.00  0.00    +0.000 C 
BRANCH  23  24
ATOM     24  C   UNK A   0       3.273   4.696  18.955  0.00  0.00    +0.000 C 
BRANCH  24  25
ATOM     25  C   UNK A   0       4.686   4.157  19.026  0.00  0.00    +0.000 C 
ATOM     26  O   UNK A   0       4.978   3.074  19.520  0.00  0.00    +0.000 OA
ATOM     27  N   ASP A   1       5.609   4.964  18.407  0.00  0.00    +0.000 N 
ATOM     28  H   ASP A   1       5.337   5.887  18.075  0.00  0.00    +0.000 HD
BRANCH  27  29
ATOM     29  CA  ASP A   1       7.040   4.655  18.394  0.00  0.00    +0.000 C 
BRANCH  29  30
ATOM     30  C   ASP A   1       7.738   5.780  19.164  0.00  0.00    +0.000 C 
ATOM     31  O   ASP A   1       8.079   6.832  18.635  0.00  0.00    +0.000 OA
BRANCH  30  32
ATOM     32  OXT ASP A   1       7.986   5.510  20.463  0.00  0.00    +0.000 OA
ATOM     33  HXT ASP A   1       8.344   6.269  20.982  0.00  0.00    +0.000 HD
ENDBRANCH  30  32
ENDBRANCH  29  30
BRANCH  29  34
ATOM     34  CB  ASP A   1       7.567   4.600  16.963  0.00  0.00    +0.000 C 
BRANCH  34  35
ATOM     35  CG  ASP A   1       6.454   4.920  16.008  0.00  0.00    +0.000 C 
ATOM     36  OD1 ASP A   1       6.175   6.063  15.664  0.00  0.00    +0.000 OA
BRANCH  35  37
ATOM     37  OD2 ASP A   1       5.759   3.844  15.593  0.00  0.00    +0.000 OA
ATOM     38  HD2 ASP A   1       4.822   4.013  15.369  0.00  0.00    +0.000 HD
ENDBRANCH  35  37
ENDBRANCH  34  35
ENDBRANCH  29  34
ENDBRANCH  27  29
ENDBRANCH  24  25
ENDBRANCH  23  24
ENDBRANCH   6  23
TORSDOF 13
ENDMDL
MODEL 6
REMARK VINA RESULT:      -7.8      5.490      7.362
REMARK  Name = 
REMARK  14 active torsions:
REMARK  status: ('A' for Active; 'I' for Inactive)
REMARK    1  A    between atoms: C_1  and  C_2
REMARK    2  A    between atoms: C_4  and  C_5
REMARK    3  A    between atoms: C_5  and  O_7
REMARK    4  A    between atoms: O_7  and  C_8
REMARK    5  A    between atoms: C_11  and  C_12
REMARK    6  A    between atoms: C_19  and  C_20
REMARK    7  A    between atoms: C_20  and  C_21
REMARK    8  A    between atoms: C_21  and  C_22
REMARK    9  A    between atoms: N_24  and  CA_25
REMARK   10  A    between atoms: CA_25  and  CB_26
REMARK   11  A    between atoms: CA_25  and  C_30
REMARK   12  A    between atoms: CB_26  and  CG_27
REMARK   13  A    between atoms: CG_27  and  OD2_29
REMARK   14  A    between atoms: C_30  and  OXT_32
REMARK                            x       y       z     vdW  Elec       q    Type
REMARK                         _______ _______ _______ _____ _____    ______ ____
ROOT
ATOM      1  C   UNK A   0       2.273   8.489  17.724  0.00  0.00    +0.000 C 
ATOM      2  C   UNK A   0       3.296   7.451  18.052  0.00  0.00    +0.000 A 
ATOM      3  C   UNK A   0       4.532   7.333  17.335  0.00  0.00    +0.000 A 
ATOM      4  C   UNK A   0       5.316   6.279  17.755  0.00  0.00    +0.000 A 
ATOM      5  S   UNK A   0       4.574   5.449  19.045  0.00  0.00    +0.000 S 
ATOM      6  C   UNK A   0       3.197   6.478  19.035  0.00  0.00    +0.000 A 
ENDROOT
BRANCH   4   7
ATOM      7  C   UNK A   0       6.567   5.861  17.138  0.00  0.00    +0.000 C 
ATOM      8  O   UNK A   0       7.461   5.235  17.700  0.00  0.00    +0.000 OA
BRANCH   7   9
ATOM      9  O   UNK A   0       6.666   6.311  15.821  0.00  0.00    +0.000 OA
BRANCH   9  10
ATOM     10  C   UNK A   0       6.475   5.296  14.876  0.00  0.00    +0.000 A 
ATOM     11  C   UNK A   0       5.258   4.616  14.865  0.00  0.00    +0.000 A 
ATOM     12  C   UNK A   0       4.997   3.698  13.836  0.00  0.00    +0.000 A 
ATOM     13  C   UNK A   0       5.944   3.471  12.828  0.00  0.00    +0.000 A 
ATOM     14  C   UNK A   0       7.166   4.145  12.857  0.00  0.00    +0.000 A 
ATOM     15  C   UNK A   0       7.417   5.055  13.874  0.00  0.00    +0.000 A 
ATOM     16  F   UNK A   0       8.579   5.733  13.839  0.00  0.00    +0.000 F 
BRANCH  13  17
ATOM     17  C   UNK A   0       5.660   2.532  11.707  0.00  0.00    +0.000 C 
ATOM     18  N   UNK A   0       6.529   1.686  11.249  0.00  0.00    +0.000 NA
ATOM     19  N   UNK A   0       4.438   2.529  11.102  0.00  0.00    +0.000 N 
ATOM     20  H   UNK A   0       7.433   1.773  11.725  0.00  0.00    +0.000 HD
ATOM     21  H   UNK A   0       3.645   2.676  11.713  0.00  0.00    +0.000 HD
ATOM     22  H   UNK A   0       4.337   1.701  10.521  0.00  0.00    +0.000 HD
ENDBRANCH  13  17
ENDBRANCH   9  10
ENDBRANCH   7   9
ENDBRANCH   4   7
BRANCH   6  23
ATOM     23  C   UNK A   0       2.059   6.223  19.998  0.00  0.00    +0.000 C 
BRANCH  23  24
ATOM     24  C   UNK A   0       2.469   5.477  21.265  0.00  0.00    +0.000 C 
BRANCH  24  25
ATOM     25  C   UNK A   0       2.259   3.982  21.160  0.00  0.00    +0.000 C 
ATOM     26  O   UNK A   0       1.652   3.318  21.993  0.00  0.00    +0.000 OA
ATOM     27  N   ASP A   1       2.743   3.445  19.992  0.00  0.00    +0.000 N 
ATOM     28  H   ASP A   1       3.303   4.016  19.363  0.00  0.00    +0.000 HD
BRANCH  27  29
ATOM     29  CA  ASP A   1       2.684   2.010  19.703  0.00  0.00    +0.000 C 
BRANCH  29  30
ATOM     30  C   ASP A   1       4.132   1.530  19.568  0.00  0.00    +0.000 C 
ATOM     31  O   ASP A   1       5.018   1.870  20.345  0.00  0.00    +0.000 OA
BRANCH  30  32
ATOM     32  OXT ASP A   1       4.369   0.734  18.504  0.00  0.00    +0.000 OA
ATOM     33  HXT ASP A   1       5.322   0.539  18.338  0.00  0.00    +0.000 HD
ENDBRANCH  30  32
ENDBRANCH  29  30
BRANCH  29  34
ATOM     34  CB  ASP A   1       1.927   1.753  18.403  0.00  0.00    +0.000 C 
BRANCH  34  35
ATOM     35  CG  ASP A   1       2.011   2.969  17.527  0.00  0.00    +0.000 C 
ATOM     36  OD1 ASP A   1       2.985   3.225  16.828  0.00  0.00    +0.000 OA
BRANCH  35  37
ATOM     37  OD2 ASP A   1       0.939   3.779  17.606  0.00  0.00    +0.000 OA
ATOM     38  HD2 ASP A   1       0.940   4.401  18.362  0.00  0.00    +0.000 HD
ENDBRANCH  35  37
ENDBRANCH  34  35
ENDBRANCH  29  34
ENDBRANCH  27  29
ENDBRANCH  24  25
ENDBRANCH  23  24
ENDBRANCH   6  23
TORSDOF 13
ENDMDL
MODEL 7
REMARK VINA RESULT:      -7.7      4.109     10.381
REMARK  Name = 
REMARK  14 active torsions:
REMARK  status: ('A' for Active; 'I' for Inactive)
REMARK    1  A    between atoms: C_1  and  C_2
REMARK    2  A    between atoms: C_4  and  C_5
REMARK    3  A    between atoms: C_5  and  O_7
REMARK    4  A    between atoms: O_7  and  C_8
REMARK    5  A    between atoms: C_11  and  C_12
REMARK    6  A    between atoms: C_19  and  C_20
REMARK    7  A    between atoms: C_20  and  C_21
REMARK    8  A    between atoms: C_21  and  C_22
REMARK    9  A    between atoms: N_24  and  CA_25
REMARK   10  A    between atoms: CA_25  and  CB_26
REMARK   11  A    between atoms: CA_25  and  C_30
REMARK   12  A    between atoms: CB_26  and  CG_27
REMARK   13  A    between atoms: CG_27  and  OD2_29
REMARK   14  A    between atoms: C_30  and  OXT_32
REMARK                            x       y       z     vdW  Elec       q    Type
REMARK                         _______ _______ _______ _____ _____    ______ ____
ROOT
ATOM      1  C   UNK A   0      -0.195   8.769  22.045  0.00  0.00    +0.000 C 
ATOM      2  C   UNK A   0       0.088   9.530  20.791  0.00  0.00    +0.000 A 
ATOM      3  C   UNK A   0      -0.602  10.740  20.451  0.00  0.00    +0.000 A 
ATOM      4  C   UNK A   0      -0.234  11.261  19.228  0.00  0.00    +0.000 A 
ATOM      5  S   UNK A   0       0.976  10.304  18.502  0.00  0.00    +0.000 S 
ATOM      6  C   UNK A   0       0.999   9.182  19.804  0.00  0.00    +0.000 A 
ENDROOT
BRANCH   4   7
ATOM      7  C   UNK A   0      -0.843  12.417  18.586  0.00  0.00    +0.000 C 
ATOM      8  O   UNK A   0      -0.653  13.587  18.903  0.00  0.00    +0.000 OA
BRANCH   7   9
ATOM      9  O   UNK A   0      -1.735  12.036  17.583  0.00  0.00    +0.000 OA
BRANCH   9  10
ATOM     10  C   UNK A   0      -2.962  11.581  18.080  0.00  0.00    +0.000 A 
ATOM     11  C   UNK A   0      -3.694  12.420  18.920  0.00  0.00    +0.000 A 
ATOM     12  C   UNK A   0      -4.987  12.038  19.310  0.00  0.00    +0.000 A 
ATOM     13  C   UNK A   0      -5.539  10.832  18.857  0.00  0.00    +0.000 A 
ATOM     14  C   UNK A   0      -4.792   9.992  18.031  0.00  0.00    +0.000 A 
ATOM     15  C   UNK A   0      -3.516  10.376  17.644  0.00  0.00    +0.000 A 
ATOM     16  F   UNK A   0      -2.847   9.572  16.796  0.00  0.00    +0.000 F 
BRANCH  13  17
ATOM     17  C   UNK A   0      -6.927  10.438  19.229  0.00  0.00    +0.000 C 
ATOM     18  N   UNK A   0      -7.411   9.254  19.019  0.00  0.00    +0.000 NA
ATOM     19  N   UNK A   0      -7.765  11.337  19.820  0.00  0.00    +0.000 N 
ATOM     20  H   UNK A   0      -6.740   8.647  18.538  0.00  0.00    +0.000 HD
ATOM     21  H   UNK A   0      -7.335  11.966  20.485  0.00  0.00    +0.000 HD
ATOM     22  H   UNK A   0      -8.577  10.859  20.201  0.00  0.00    +0.000 HD
ENDBRANCH  13  17
ENDBRANCH   9  10
ENDBRANCH   7   9
ENDBRANCH   4   7
BRANCH   6  23
ATOM     23  C   UNK A   0       1.910   7.978  19.744  0.00  0.00    +0.000 C 
BRANCH  23  24
ATOM     24  C   UNK A   0       2.437   7.662  18.347  0.00  0.00    +0.000 C 
BRANCH  24  25
ATOM     25  C   UNK A   0       3.360   6.462  18.325  0.00  0.00    +0.000 C 
ATOM     26  O   UNK A   0       4.542   6.516  18.005  0.00  0.00    +0.000 OA
ATOM     27  N   ASP A   1       2.766   5.310  18.782  0.00  0.00    +0.000 N 
ATOM     28  H   ASP A   1       1.766   5.292  18.968  0.00  0.00    +0.000 HD
BRANCH  27  29
ATOM     29  CA  ASP A   1       3.464   4.023  18.806  0.00  0.00    +0.000 C 
BRANCH  29  30
ATOM     30  C   ASP A   1       3.432   3.480  17.374  0.00  0.00    +0.000 C 
ATOM     31  O   ASP A   1       4.432   3.415  16.667  0.00  0.00    +0.000 OA
BRANCH  30  32
ATOM     32  OXT ASP A   1       2.210   3.113  16.933  0.00  0.00    +0.000 OA
ATOM     33  HXT ASP A   1       1.578   2.847  17.642  0.00  0.00    +0.000 HD
ENDBRANCH  30  32
ENDBRANCH  29  30
BRANCH  29  34
ATOM     34  CB  ASP A   1       2.764   3.047  19.747  0.00  0.00    +0.000 C 
BRANCH  34  35
ATOM     35  CG  ASP A   1       1.813   3.801  20.631  0.00  0.00    +0.000 C 
ATOM     36  OD1 ASP A   1       2.179   4.483  21.581  0.00  0.00    +0.000 OA
BRANCH  35  37
ATOM     37  OD2 ASP A   1       0.515   3.631  20.314  0.00  0.00    +0.000 OA
ATOM     38  HD2 ASP A   1       0.044   2.948  20.833  0.00  0.00    +0.000 HD
ENDBRANCH  35  37
ENDBRANCH  34  35
ENDBRANCH  29  34
ENDBRANCH  27  29
ENDBRANCH  24  25
ENDBRANCH  23  24
ENDBRANCH   6  23
TORSDOF 13
ENDMDL
MODEL 8
REMARK VINA RESULT:      -7.6      3.430      9.641
REMARK  Name = 
REMARK  14 active torsions:
REMARK  status: ('A' for Active; 'I' for Inactive)
REMARK    1  A    between atoms: C_1  and  C_2
REMARK    2  A    between atoms: C_4  and  C_5
REMARK    3  A    between atoms: C_5  and  O_7
REMARK    4  A    between atoms: O_7  and  C_8
REMARK    5  A    between atoms: C_11  and  C_12
REMARK    6  A    between atoms: C_19  and  C_20
REMARK    7  A    between atoms: C_20  and  C_21
REMARK    8  A    between atoms: C_21  and  C_22
REMARK    9  A    between atoms: N_24  and  CA_25
REMARK   10  A    between atoms: CA_25  and  CB_26
REMARK   11  A    between atoms: CA_25  and  C_30
REMARK   12  A    between atoms: CB_26  and  CG_27
REMARK   13  A    between atoms: CG_27  and  OD2_29
REMARK   14  A    between atoms: C_30  and  OXT_32
REMARK                            x       y       z     vdW  Elec       q    Type
REMARK                         _______ _______ _______ _____ _____    ______ ____
ROOT
ATOM      1  C   UNK A   0       1.667   3.203  21.550  0.00  0.00    +0.000 C 
ATOM      2  C   UNK A   0       1.858   4.168  20.426  0.00  0.00    +0.000 A 
ATOM      3  C   UNK A   0       1.879   5.588  20.624  0.00  0.00    +0.000 A 
ATOM      4  C   UNK A   0       2.013   6.307  19.455  0.00  0.00    +0.000 A 
ATOM      5  S   UNK A   0       2.149   5.263  18.114  0.00  0.00    +0.000 S 
ATOM      6  C   UNK A   0       2.010   3.851  19.084  0.00  0.00    +0.000 A 
ENDROOT
BRANCH   4   7
ATOM      7  C   UNK A   0       1.959   7.759  19.346  0.00  0.00    +0.000 C 
ATOM      8  O   UNK A   0       2.569   8.432  18.521  0.00  0.00    +0.000 OA
BRANCH   7   9
ATOM      9  O   UNK A   0       1.163   8.318  20.346  0.00  0.00    +0.000 OA
BRANCH   9  10
ATOM     10  C   UNK A   0       0.732   9.616  20.045  0.00  0.00    +0.000 A 
ATOM     11  C   UNK A   0      -0.000   9.822  18.877  0.00  0.00    +0.000 A 
ATOM     12  C   UNK A   0      -0.559  11.086  18.635  0.00  0.00    +0.000 A 
ATOM     13  C   UNK A   0      -0.391  12.128  19.558  0.00  0.00    +0.000 A 
ATOM     14  C   UNK A   0       0.358  11.916  20.716  0.00  0.00    +0.000 A 
ATOM     15  C   UNK A   0       0.905  10.663  20.954  0.00  0.00    +0.000 A 
ATOM     16  F   UNK A   0       1.569  10.475  22.109  0.00  0.00    +0.000 F 
BRANCH  13  17
ATOM     17  C   UNK A   0      -1.017  13.461  19.332  0.00  0.00    +0.000 C 
ATOM     18  N   UNK A   0      -0.516  14.358  18.542  0.00  0.00    +0.000 NA
ATOM     19  N   UNK A   0      -2.174  13.796  19.970  0.00  0.00    +0.000 N 
ATOM     20  H   UNK A   0       0.371  14.051  18.130  0.00  0.00    +0.000 HD
ATOM     21  H   UNK A   0      -2.848  13.050  20.079  0.00  0.00    +0.000 HD
ATOM     22  H   UNK A   0      -2.577  14.629  19.550  0.00  0.00    +0.000 HD
ENDBRANCH  13  17
ENDBRANCH   9  10
ENDBRANCH   7   9
ENDBRANCH   4   7
BRANCH   6  23
ATOM     23  C   UNK A   0       2.019   2.486  18.434  0.00  0.00    +0.000 C 
BRANCH  23  24
ATOM     24  C   UNK A   0       3.288   2.181  17.641  0.00  0.00    +0.000 C 
BRANCH  24  25
ATOM     25  C   UNK A   0       4.522   2.822  18.239  0.00  0.00    +0.000 C 
ATOM     26  O   UNK A   0       4.886   2.652  19.396  0.00  0.00    +0.000 OA
ATOM     27  N   ASP A   1       5.249   3.554  17.331  0.00  0.00    +0.000 N 
ATOM     28  H   ASP A   1       4.874   3.730  16.402  0.00  0.00    +0.000 HD
BRANCH  27  29
ATOM     29  CA  ASP A   1       6.456   4.294  17.706  0.00  0.00    +0.000 C 
BRANCH  29  30
ATOM     30  C   ASP A   1       5.988   5.546  18.453  0.00  0.00    +0.000 C 
ATOM     31  O   ASP A   1       5.509   6.519  17.880  0.00  0.00    +0.000 OA
BRANCH  30  32
ATOM     32  OXT ASP A   1       6.179   5.515  19.789  0.00  0.00    +0.000 OA
ATOM     33  HXT ASP A   1       6.213   4.611  20.180  0.00  0.00    +0.000 HD
ENDBRANCH  30  32
ENDBRANCH  29  30
BRANCH  29  34
ATOM     34  CB  ASP A   1       7.249   4.695  16.465  0.00  0.00    +0.000 C 
BRANCH  34  35
ATOM     35  CG  ASP A   1       6.353   4.645  15.262  0.00  0.00    +0.000 C 
ATOM     36  OD1 ASP A   1       6.265   3.664  14.533  0.00  0.00    +0.000 OA
BRANCH  35  37
ATOM     37  OD2 ASP A   1       5.684   5.789  15.027  0.00  0.00    +0.000 OA
ATOM     38  HD2 ASP A   1       5.028   5.749  14.302  0.00  0.00    +0.000 HD
ENDBRANCH  35  37
ENDBRANCH  34  35
ENDBRANCH  29  34
ENDBRANCH  27  29
ENDBRANCH  24  25
ENDBRANCH  23  24
ENDBRANCH   6  23
TORSDOF 13
ENDMDL
MODEL 9
REMARK VINA RESULT:      -7.6      2.019      3.237
REMARK  Name = 
REMARK  14 active torsions:
REMARK  status: ('A' for Active; 'I' for Inactive)
REMARK    1  A    between atoms: C_1  and  C_2
REMARK    2  A    between atoms: C_4  and  C_5
REMARK    3  A    between atoms: C_5  and  O_7
REMARK    4  A    between atoms: O_7  and  C_8
REMARK    5  A    between atoms: C_11  and  C_12
REMARK    6  A    between atoms: C_19  and  C_20
REMARK    7  A    between atoms: C_20  and  C_21
REMARK    8  A    between atoms: C_21  and  C_22
REMARK    9  A    between atoms: N_24  and  CA_25
REMARK   10  A    between atoms: CA_25  and  CB_26
REMARK   11  A    between atoms: CA_25  and  C_30
REMARK   12  A    between atoms: CB_26  and  CG_27
REMARK   13  A    between atoms: CG_27  and  OD2_29
REMARK   14  A    between atoms: C_30  and  OXT_32
REMARK                            x       y       z     vdW  Elec       q    Type
REMARK                         _______ _______ _______ _____ _____    ______ ____
ROOT
ATOM      1  C   UNK A   0       0.476   9.215  21.560  0.00  0.00    +0.000 C 
ATOM      2  C   UNK A   0       1.206   8.459  20.498  0.00  0.00    +0.000 A 
ATOM      3  C   UNK A   0       1.770   7.161  20.726  0.00  0.00    +0.000 A 
ATOM      4  C   UNK A   0       2.449   6.655  19.637  0.00  0.00    +0.000 A 
ATOM      5  S   UNK A   0       2.375   7.736  18.321  0.00  0.00    +0.000 S 
ATOM      6  C   UNK A   0       1.456   8.890  19.204  0.00  0.00    +0.000 A 
ENDROOT
BRANCH   4   7
ATOM      7  C   UNK A   0       3.207   5.411  19.620  0.00  0.00    +0.000 C 
ATOM      8  O   UNK A   0       2.723   4.285  19.686  0.00  0.00    +0.000 OA
BRANCH   7   9
ATOM      9  O   UNK A   0       4.581   5.648  19.576  0.00  0.00    +0.000 OA
BRANCH   9  10
ATOM     10  C   UNK A   0       5.166   5.275  18.360  0.00  0.00    +0.000 A 
ATOM     11  C   UNK A   0       4.367   4.663  17.395  0.00  0.00    +0.000 A 
ATOM     12  C   UNK A   0       4.902   4.414  16.122  0.00  0.00    +0.000 A 
ATOM     13  C   UNK A   0       6.221   4.780  15.821  0.00  0.00    +0.000 A 
ATOM     14  C   UNK A   0       7.018   5.376  16.799  0.00  0.00    +0.000 A 
ATOM     15  C   UNK A   0       6.483   5.625  18.054  0.00  0.00    +0.000 A 
ATOM     16  F   UNK A   0       7.258   6.258  18.955  0.00  0.00    +0.000 F 
BRANCH  13  17
ATOM     17  C   UNK A   0       6.785   4.560  14.459  0.00  0.00    +0.000 C 
ATOM     18  N   UNK A   0       6.382   3.617  13.666  0.00  0.00    +0.000 NA
ATOM     19  N   UNK A   0       7.777   5.366  13.985  0.00  0.00    +0.000 N 
ATOM     20  H   UNK A   0       5.665   3.030  14.104  0.00  0.00    +0.000 HD
ATOM     21  H   UNK A   0       7.708   6.343  14.237  0.00  0.00    +0.000 HD
ATOM     22  H   UNK A   0       7.893   5.226  12.985  0.00  0.00    +0.000 HD
ENDBRANCH  13  17
ENDBRANCH   9  10
ENDBRANCH   7   9
ENDBRANCH   4   7
BRANCH   6  23
ATOM     23  C   UNK A   0       1.069  10.199  18.555  0.00  0.00    +0.000 C 
BRANCH  23  24
ATOM     24  C   UNK A   0       2.254  11.044  18.096  0.00  0.00    +0.000 C 
BRANCH  24  25
ATOM     25  C   UNK A   0       2.106  12.507  18.456  0.00  0.00    +0.000 C 
ATOM     26  O   UNK A   0       2.649  13.419  17.843  0.00  0.00    +0.000 OA
ATOM     27  N   ASP A   1       1.232  12.727  19.493  0.00  0.00    +0.000 N 
ATOM     28  H   ASP A   1       0.860  11.941  20.021  0.00  0.00    +0.000 HD
BRANCH  27  29
ATOM     29  CA  ASP A   1       0.973  14.064  20.032  0.00  0.00    +0.000 C 
BRANCH  29  30
ATOM     30  C   ASP A   1       1.563  14.090  21.445  0.00  0.00    +0.000 C 
ATOM     31  O   ASP A   1       0.932  14.484  22.419  0.00  0.00    +0.000 OA
BRANCH  30  32
ATOM     32  OXT ASP A   1       2.847  13.681  21.531  0.00  0.00    +0.000 OA
ATOM     33  HXT ASP A   1       2.968  12.783  21.922  0.00  0.00    +0.000 HD
ENDBRANCH  30  32
ENDBRANCH  29  30
BRANCH  29  34
ATOM     34  CB  ASP A   1      -0.527  14.341  20.090  0.00  0.00    +0.000 C 
BRANCH  34  35
ATOM     35  CG  ASP A   1      -1.280  13.069  19.824  0.00  0.00    +0.000 C 
ATOM     36  OD1 ASP A   1      -1.508  12.232  20.690  0.00  0.00    +0.000 OA
BRANCH  35  37
ATOM     37  OD2 ASP A   1      -1.648  12.907  18.539  0.00  0.00    +0.000 OA
ATOM     38  HD2 ASP A   1      -2.528  12.501  18.405  0.00  0.00    +0.000 HD
ENDBRANCH  35  37
ENDBRANCH  34  35
ENDBRANCH  29  34
ENDBRANCH  27  29
ENDBRANCH  24  25
ENDBRANCH  23  24
ENDBRANCH   6  23
TORSDOF 13
ENDMDL
