MODEL 1
REMARK VINA RESULT:      -6.7      0.000      0.000
REMARK  Name = 
REMARK  4 active torsions:
REMARK  status: ('A' for Active; 'I' for Inactive)
REMARK    1  A    between atoms: C_1  and  N_2
REMARK    2  A    between atoms: N_2  and  C_3
REMARK    3  A    between atoms: C_5  and  C_6
REMARK    4  A    between atoms: C_13  and  C_14
REMARK                            x       y       z     vdW  Elec       q    Type
REMARK                         _______ _______ _______ _____ _____    ______ ____
ROOT
ATOM      1  C   UNL     1       6.643   4.503  17.958  0.00  0.00    +0.000 A 
ATOM      2  O   UNL     1       5.604   4.124  18.770  0.00  0.00    +0.000 OA
ATOM      3  C   UNL     1       4.535   3.987  17.918  0.00  0.00    +0.000 A 
ATOM      4  N   UNL     1       4.815   4.232  16.651  0.00  0.00    +0.000 NA
ATOM      5  C   UNL     1       6.144   4.568  16.673  0.00  0.00    +0.000 A 
ENDROOT
BRANCH   3   6
ATOM      6  C   UNL     1       3.237   3.636  18.486  0.00  0.00    +0.000 A 
ATOM      7  C   UNL     1       2.486   2.530  18.068  0.00  0.00    +0.000 A 
ATOM      8  C   UNL     1       1.265   2.227  18.684  0.00  0.00    +0.000 A 
ATOM      9  C   UNL     1       0.783   3.026  19.722  0.00  0.00    +0.000 A 
ATOM     10  C   UNL     1       1.510   4.136  20.139  0.00  0.00    +0.000 A 
ATOM     11  C   UNL     1       2.725   4.438  19.522  0.00  0.00    +0.000 A 
ENDBRANCH   3   6
BRANCH   1  13
ATOM     12  C   UNL     1       8.047   5.783  19.510  0.00  0.00    +0.000 C 
ATOM     13  N   UNL     1       7.828   4.710  18.567  0.00  0.00    +0.000 N 
ATOM     14  H   UNL     1       8.582   4.039  18.448  0.00  0.00    +0.000 HD
ENDBRANCH   1  13
BRANCH   5  15
ATOM     15  C   UNL     1       6.831   4.917  15.476  0.00  0.00    +0.000 C 
ATOM     16  N   UNL     1       7.367   5.218  14.489  0.00  0.00    +0.000 NA
ENDBRANCH   5  15
TORSDOF 3
ENDMDL
MODEL 2
REMARK VINA RESULT:      -6.6      0.107      1.246
REMARK  Name = 
REMARK  4 active torsions:
REMARK  status: ('A' for Active; 'I' for Inactive)
REMARK    1  A    between atoms: C_1  and  N_2
REMARK    2  A    between atoms: N_2  and  C_3
REMARK    3  A    between atoms: C_5  and  C_6
REMARK    4  A    between atoms: C_13  and  C_14
REMARK                            x       y       z     vdW  Elec       q    Type
REMARK                         _______ _______ _______ _____ _____    ______ ____
ROOT
ATOM      1  C   UNL     1       6.630   4.521  17.949  0.00  0.00    +0.000 A 
ATOM      2  O   UNL     1       5.607   4.149  18.785  0.00  0.00    +0.000 OA
ATOM      3  C   UNL     1       4.514   4.034  17.960  0.00  0.00    +0.000 A 
ATOM      4  N   UNL     1       4.765   4.286  16.688  0.00  0.00    +0.000 NA
ATOM      5  C   UNL     1       6.098   4.603  16.678  0.00  0.00    +0.000 A 
ENDROOT
BRANCH   3   6
ATOM      6  C   UNL     1       3.227   3.697  18.560  0.00  0.00    +0.000 A 
ATOM      7  C   UNL     1       2.590   4.497  19.518  0.00  0.00    +0.000 A 
ATOM      8  C   UNL     1       1.335   4.136  20.024  0.00  0.00    +0.000 A 
ATOM      9  C   UNL     1       0.705   2.972  19.579  0.00  0.00    +0.000 A 
ATOM     10  C   UNL     1       1.331   2.160  18.639  0.00  0.00    +0.000 A 
ATOM     11  C   UNL     1       2.582   2.520  18.138  0.00  0.00    +0.000 A 
ENDBRANCH   3   6
BRANCH   1  13
ATOM     12  C   UNL     1       8.114   5.815  19.412  0.00  0.00    +0.000 C 
ATOM     13  N   UNL     1       7.833   4.706  18.529  0.00  0.00    +0.000 N 
ATOM     14  H   UNL     1       8.556   3.998  18.432  0.00  0.00    +0.000 HD
ENDBRANCH   1  13
BRANCH   5  15
ATOM     15  C   UNL     1       6.758   4.953  15.467  0.00  0.00    +0.000 C 
ATOM     16  N   UNL     1       7.316   5.214  14.480  0.00  0.00    +0.000 NA
ENDBRANCH   5  15
TORSDOF 3
ENDMDL
MODEL 3
REMARK VINA RESULT:      -6.5      1.161      1.373
REMARK  Name = 
REMARK  4 active torsions:
REMARK  status: ('A' for Active; 'I' for Inactive)
REMARK    1  A    between atoms: C_1  and  N_2
REMARK    2  A    between atoms: N_2  and  C_3
REMARK    3  A    between atoms: C_5  and  C_6
REMARK    4  A    between atoms: C_13  and  C_14
REMARK                            x       y       z     vdW  Elec       q    Type
REMARK                         _______ _______ _______ _____ _____    ______ ____
ROOT
ATOM      1  C   UNL     1       6.391   4.420  18.009  0.00  0.00    +0.000 A 
ATOM      2  O   UNL     1       5.566   4.250  19.092  0.00  0.00    +0.000 OA
ATOM      3  C   UNL     1       4.375   3.828  18.554  0.00  0.00    +0.000 A 
ATOM      4  N   UNL     1       4.385   3.707  17.239  0.00  0.00    +0.000 NA
ATOM      5  C   UNL     1       5.655   4.088  16.889  0.00  0.00    +0.000 A 
ENDROOT
BRANCH   3   6
ATOM      6  C   UNL     1       3.249   3.604  19.455  0.00  0.00    +0.000 A 
ATOM      7  C   UNL     1       1.976   4.154  19.249  0.00  0.00    +0.000 A 
ATOM      8  C   UNL     1       0.928   3.867  20.132  0.00  0.00    +0.000 A 
ATOM      9  C   UNL     1       1.140   3.030  21.229  0.00  0.00    +0.000 A 
ATOM     10  C   UNL     1       2.401   2.488  21.455  0.00  0.00    +0.000 A 
ATOM     11  C   UNL     1       3.445   2.777  20.576  0.00  0.00    +0.000 A 
ENDBRANCH   3   6
BRANCH   1  13
ATOM     12  C   UNL     1       7.926   6.133  18.861  0.00  0.00    +0.000 C 
ATOM     13  N   UNL     1       7.643   4.843  18.276  0.00  0.00    +0.000 N 
ATOM     14  H   UNL     1       8.428   4.207  18.158  0.00  0.00    +0.000 HD
ENDBRANCH   1  13
BRANCH   5  15
ATOM     15  C   UNL     1       6.065   4.104  15.526  0.00  0.00    +0.000 C 
ATOM     16  N   UNL     1       6.406   4.086  14.414  0.00  0.00    +0.000 NA
ENDBRANCH   5  15
TORSDOF 3
ENDMDL
MODEL 4
REMARK VINA RESULT:      -6.4      1.824      2.786
REMARK  Name = 
REMARK  4 active torsions:
REMARK  status: ('A' for Active; 'I' for Inactive)
REMARK    1  A    between atoms: C_1  and  N_2
REMARK    2  A    between atoms: N_2  and  C_3
REMARK    3  A    between atoms: C_5  and  C_6
REMARK    4  A    between atoms: C_13  and  C_14
REMARK                            x       y       z     vdW  Elec       q    Type
REMARK                         _______ _______ _______ _____ _____    ______ ____
ROOT
ATOM      1  C   UNL     1       6.632   5.461  16.026  0.00  0.00    +0.000 A 
ATOM      2  O   UNL     1       5.598   4.560  16.083  0.00  0.00    +0.000 OA
ATOM      3  C   UNL     1       4.906   4.902  17.219  0.00  0.00    +0.000 A 
ATOM      4  N   UNL     1       5.404   5.940  17.867  0.00  0.00    +0.000 NA
ATOM      5  C   UNL     1       6.499   6.291  17.121  0.00  0.00    +0.000 A 
ENDROOT
BRANCH   3   6
ATOM      6  C   UNL     1       3.757   4.087  17.601  0.00  0.00    +0.000 A 
ATOM      7  C   UNL     1       3.831   2.704  17.815  0.00  0.00    +0.000 A 
ATOM      8  C   UNL     1       2.698   1.987  18.220  0.00  0.00    +0.000 A 
ATOM      9  C   UNL     1       1.481   2.643  18.414  0.00  0.00    +0.000 A 
ATOM     10  C   UNL     1       1.389   4.013  18.192  0.00  0.00    +0.000 A 
ATOM     11  C   UNL     1       2.518   4.726  17.786  0.00  0.00    +0.000 A 
ENDBRANCH   3   6
BRANCH   1  13
ATOM     12  C   UNL     1       7.087   4.722  13.732  0.00  0.00    +0.000 C 
ATOM     13  N   UNL     1       7.476   5.333  14.983  0.00  0.00    +0.000 N 
ATOM     14  H   UNL     1       8.396   5.761  15.021  0.00  0.00    +0.000 HD
ENDBRANCH   1  13
BRANCH   5  15
ATOM     15  C   UNL     1       7.327   7.384  17.506  0.00  0.00    +0.000 C 
ATOM     16  N   UNL     1       8.026   8.257  17.822  0.00  0.00    +0.000 NA
ENDBRANCH   5  15
TORSDOF 3
ENDMDL
MODEL 5
REMARK VINA RESULT:      -6.4      1.596      2.589
REMARK  Name = 
REMARK  4 active torsions:
REMARK  status: ('A' for Active; 'I' for Inactive)
REMARK    1  A    between atoms: C_1  and  N_2
REMARK    2  A    between atoms: N_2  and  C_3
REMARK    3  A    between atoms: C_5  and  C_6
REMARK    4  A    between atoms: C_13  and  C_14
REMARK                            x       y       z     vdW  Elec       q    Type
REMARK                         _______ _______ _______ _____ _____    ______ ____
ROOT
ATOM      1  C   UNL     1       5.693   4.333  16.602  0.00  0.00    +0.000 A 
ATOM      2  O   UNL     1       4.591   3.669  17.081  0.00  0.00    +0.000 OA
ATOM      3  C   UNL     1       4.060   4.518  18.022  0.00  0.00    +0.000 A 
ATOM      4  N   UNL     1       4.720   5.654  18.163  0.00  0.00    +0.000 NA
ATOM      5  C   UNL     1       5.757   5.537  17.274  0.00  0.00    +0.000 A 
ENDROOT
BRANCH   3   6
ATOM      6  C   UNL     1       2.888   4.076  18.770  0.00  0.00    +0.000 A 
ATOM      7  C   UNL     1       2.467   4.674  19.965  0.00  0.00    +0.000 A 
ATOM      8  C   UNL     1       1.308   4.226  20.613  0.00  0.00    +0.000 A 
ATOM      9  C   UNL     1       0.561   3.178  20.074  0.00  0.00    +0.000 A 
ATOM     10  C   UNL     1       0.974   2.565  18.896  0.00  0.00    +0.000 A 
ATOM     11  C   UNL     1       2.130   3.010  18.253  0.00  0.00    +0.000 A 
ENDBRANCH   3   6
BRANCH   1  13
ATOM     12  C   UNL     1       6.235   3.955  14.239  0.00  0.00    +0.000 C 
ATOM     13  N   UNL     1       6.404   3.695  15.651  0.00  0.00    +0.000 N 
ATOM     14  H   UNL     1       7.162   3.073  15.918  0.00  0.00    +0.000 HD
ENDBRANCH   1  13
BRANCH   5  15
ATOM     15  C   UNL     1       6.720   6.576  17.132  0.00  0.00    +0.000 C 
ATOM     16  N   UNL     1       7.512   7.416  16.987  0.00  0.00    +0.000 NA
ENDBRANCH   5  15
TORSDOF 3
ENDMDL
MODEL 6
REMARK VINA RESULT:      -6.4      1.082      1.301
REMARK  Name = 
REMARK  4 active torsions:
REMARK  status: ('A' for Active; 'I' for Inactive)
REMARK    1  A    between atoms: C_1  and  N_2
REMARK    2  A    between atoms: N_2  and  C_3
REMARK    3  A    between atoms: C_5  and  C_6
REMARK    4  A    between atoms: C_13  and  C_14
REMARK                            x       y       z     vdW  Elec       q    Type
REMARK                         _______ _______ _______ _____ _____    ______ ____
ROOT
ATOM      1  C   UNL     1       6.405   4.565  18.130  0.00  0.00    +0.000 A 
ATOM      2  O   UNL     1       5.610   4.131  19.161  0.00  0.00    +0.000 OA
ATOM      3  C   UNL     1       4.365   3.989  18.599  0.00  0.00    +0.000 A 
ATOM      4  N   UNL     1       4.313   4.281  17.312  0.00  0.00    +0.000 NA
ATOM      5  C   UNL     1       5.598   4.654  17.013  0.00  0.00    +0.000 A 
ENDROOT
BRANCH   3   6
ATOM      6  C   UNL     1       3.258   3.583  19.461  0.00  0.00    +0.000 A 
ATOM      7  C   UNL     1       3.433   2.873  20.655  0.00  0.00    +0.000 A 
ATOM      8  C   UNL     1       2.331   2.550  21.457  0.00  0.00    +0.000 A 
ATOM      9  C   UNL     1       1.045   2.932  21.073  0.00  0.00    +0.000 A 
ATOM     10  C   UNL     1       0.854   3.625  19.882  0.00  0.00    +0.000 A 
ATOM     11  C   UNL     1       1.952   3.944  19.083  0.00  0.00    +0.000 A 
ENDBRANCH   3   6
BRANCH   1  13
ATOM     12  C   UNL     1       8.141   5.936  19.191  0.00  0.00    +0.000 C 
ATOM     13  N   UNL     1       7.700   4.788  18.431  0.00  0.00    +0.000 N 
ATOM     14  H   UNL     1       8.399   4.085  18.208  0.00  0.00    +0.000 HD
ENDBRANCH   1  13
BRANCH   5  15
ATOM     15  C   UNL     1       5.955   5.059  15.696  0.00  0.00    +0.000 C 
ATOM     16  N   UNL     1       6.269   5.408  14.632  0.00  0.00    +0.000 NA
ENDBRANCH   5  15
TORSDOF 3
ENDMDL
MODEL 7
REMARK VINA RESULT:      -6.4      1.600      2.323
REMARK  Name = 
REMARK  4 active torsions:
REMARK  status: ('A' for Active; 'I' for Inactive)
REMARK    1  A    between atoms: C_1  and  N_2
REMARK    2  A    between atoms: N_2  and  C_3
REMARK    3  A    between atoms: C_5  and  C_6
REMARK    4  A    between atoms: C_13  and  C_14
REMARK                            x       y       z     vdW  Elec       q    Type
REMARK                         _______ _______ _______ _____ _____    ______ ____
ROOT
ATOM      1  C   UNL     1       5.730   4.492  16.485  0.00  0.00    +0.000 A 
ATOM      2  O   UNL     1       4.622   3.801  16.909  0.00  0.00    +0.000 OA
ATOM      3  C   UNL     1       4.071   4.601  17.882  0.00  0.00    +0.000 A 
ATOM      4  N   UNL     1       4.724   5.729  18.093  0.00  0.00    +0.000 NA
ATOM      5  C   UNL     1       5.778   5.660  17.218  0.00  0.00    +0.000 A 
ENDROOT
BRANCH   3   6
ATOM      6  C   UNL     1       2.886   4.118  18.585  0.00  0.00    +0.000 A 
ATOM      7  C   UNL     1       2.070   3.088  18.100  0.00  0.00    +0.000 A 
ATOM      8  C   UNL     1       0.969   2.645  18.845  0.00  0.00    +0.000 A 
ATOM      9  C   UNL     1       0.673   3.227  20.078  0.00  0.00    +0.000 A 
ATOM     10  C   UNL     1       1.466   4.260  20.566  0.00  0.00    +0.000 A 
ATOM     11  C   UNL     1       2.561   4.703  19.822  0.00  0.00    +0.000 A 
ENDBRANCH   3   6
BRANCH   1  13
ATOM     12  C   UNL     1       6.268   4.185  14.111  0.00  0.00    +0.000 C 
ATOM     13  N   UNL     1       6.461   3.905  15.516  0.00  0.00    +0.000 N 
ATOM     14  H   UNL     1       7.248   3.312  15.765  0.00  0.00    +0.000 HD
ENDBRANCH   1  13
BRANCH   5  15
ATOM     15  C   UNL     1       6.740   6.707  17.147  0.00  0.00    +0.000 C 
ATOM     16  N   UNL     1       7.512   7.577  17.113  0.00  0.00    +0.000 NA
ENDBRANCH   5  15
TORSDOF 3
ENDMDL
MODEL 8
REMARK VINA RESULT:      -6.3      1.475      1.974
REMARK  Name = 
REMARK  4 active torsions:
REMARK  status: ('A' for Active; 'I' for Inactive)
REMARK    1  A    between atoms: C_1  and  N_2
REMARK    2  A    between atoms: N_2  and  C_3
REMARK    3  A    between atoms: C_5  and  C_6
REMARK    4  A    between atoms: C_13  and  C_14
REMARK                            x       y       z     vdW  Elec       q    Type
REMARK                         _______ _______ _______ _____ _____    ______ ____
ROOT
ATOM      1  C   UNL     1       6.193   5.473  16.621  0.00  0.00    +0.000 A 
ATOM      2  O   UNL     1       5.410   5.545  17.746  0.00  0.00    +0.000 OA
ATOM      3  C   UNL     1       4.378   4.671  17.502  0.00  0.00    +0.000 A 
ATOM      4  N   UNL     1       4.453   4.053  16.337  0.00  0.00    +0.000 NA
ATOM      5  C   UNL     1       5.593   4.563  15.773  0.00  0.00    +0.000 A 
ENDROOT
BRANCH   3   6
ATOM      6  C   UNL     1       3.322   4.551  18.503  0.00  0.00    +0.000 A 
ATOM      7  C   UNL     1       3.276   5.325  19.670  0.00  0.00    +0.000 A 
ATOM      8  C   UNL     1       2.212   5.189  20.571  0.00  0.00    +0.000 A 
ATOM      9  C   UNL     1       1.186   4.278  20.315  0.00  0.00    +0.000 A 
ATOM     10  C   UNL     1       1.225   3.492  19.168  0.00  0.00    +0.000 A 
ATOM     11  C   UNL     1       2.287   3.627  18.273  0.00  0.00    +0.000 A 
ENDBRANCH   3   6
BRANCH   1  13
ATOM     12  C   UNL     1       7.490   7.338  17.547  0.00  0.00    +0.000 C 
ATOM     13  N   UNL     1       7.291   6.256  16.610  0.00  0.00    +0.000 N 
ATOM     14  H   UNL     1       8.064   6.034  15.990  0.00  0.00    +0.000 HD
ENDBRANCH   1  13
BRANCH   5  15
ATOM     15  C   UNL     1       6.021   4.145  14.482  0.00  0.00    +0.000 C 
ATOM     16  N   UNL     1       6.387   3.829  13.424  0.00  0.00    +0.000 NA
ENDBRANCH   5  15
TORSDOF 3
ENDMDL
MODEL 9
REMARK VINA RESULT:      -6.3      1.828      2.924
REMARK  Name = 
REMARK  4 active torsions:
REMARK  status: ('A' for Active; 'I' for Inactive)
REMARK    1  A    between atoms: C_1  and  N_2
REMARK    2  A    between atoms: N_2  and  C_3
REMARK    3  A    between atoms: C_5  and  C_6
REMARK    4  A    between atoms: C_13  and  C_14
REMARK                            x       y       z     vdW  Elec       q    Type
REMARK                         _______ _______ _______ _____ _____    ______ ____
ROOT
ATOM      1  C   UNL     1       6.098   5.376  15.775  0.00  0.00    +0.000 A 
ATOM      2  O   UNL     1       5.067   4.489  15.956  0.00  0.00    +0.000 OA
ATOM      3  C   UNL     1       4.545   4.814  17.184  0.00  0.00    +0.000 A 
ATOM      4  N   UNL     1       5.145   5.829  17.779  0.00  0.00    +0.000 NA
ATOM      5  C   UNL     1       6.133   6.181  16.896  0.00  0.00    +0.000 A 
ENDROOT
BRANCH   3   6
ATOM      6  C   UNL     1       3.445   4.007  17.704  0.00  0.00    +0.000 A 
ATOM      7  C   UNL     1       2.137   4.488  17.847  0.00  0.00    +0.000 A 
ATOM      8  C   UNL     1       1.119   3.648  18.316  0.00  0.00    +0.000 A 
ATOM      9  C   UNL     1       1.398   2.321  18.647  0.00  0.00    +0.000 A 
ATOM     10  C   UNL     1       2.695   1.833  18.524  0.00  0.00    +0.000 A 
ATOM     11  C   UNL     1       3.709   2.672  18.060  0.00  0.00    +0.000 A 
ENDBRANCH   3   6
BRANCH   1  13
ATOM     12  C   UNL     1       6.510   4.233  13.644  0.00  0.00    +0.000 C 
ATOM     13  N   UNL     1       6.788   5.260  14.623  0.00  0.00    +0.000 N 
ATOM     14  H   UNL     1       7.469   5.969  14.367  0.00  0.00    +0.000 HD
ENDBRANCH   1  13
BRANCH   5  15
ATOM     15  C   UNL     1       7.025   7.253  17.185  0.00  0.00    +0.000 C 
ATOM     16  N   UNL     1       7.735   8.147  17.406  0.00  0.00    +0.000 NA
ENDBRANCH   5  15
TORSDOF 3
ENDMDL
