MODEL 1
REMARK VINA RESULT:      -9.5      0.000      0.000
REMARK  Name = 
REMARK  8 active torsions:
REMARK  status: ('A' for Active; 'I' for Inactive)
REMARK    1  A    between atoms: C_1  and  N_2
REMARK    2  A    between atoms: C_3  and  C_4
REMARK    3  A    between atoms: N_6  and  C_7
REMARK    4  A    between atoms: C_12  and  C_13
REMARK    5  A    between atoms: C_13  and  O_14
REMARK    6  A    between atoms: O_14  and  C_15
REMARK    7  A    between atoms: C_18  and  O_19
REMARK    8  A    between atoms: O_19  and  C_20
REMARK                            x       y       z     vdW  Elec       q    Type
REMARK                         _______ _______ _______ _____ _____    ______ ____
ROOT
ATOM      1  C   UNL     1      -3.190  11.740  18.494  0.00  0.00    +0.000 A 
ATOM      2  C   UNL     1      -4.185  11.569  17.512  0.00  0.00    +0.000 A 
ATOM      3  C   UNL     1      -4.022  10.693  16.438  0.00  0.00    +0.000 A 
ATOM      4  C   UNL     1      -2.850   9.968  16.322  0.00  0.00    +0.000 A 
ATOM      5  C   UNL     1      -1.865  10.090  17.305  0.00  0.00    +0.000 A 
ATOM      6  C   UNL     1      -2.014  10.960  18.417  0.00  0.00    +0.000 A 
ENDROOT
BRANCH   1   9
ATOM      7  C   UNL     1      -4.448  12.726  20.438  0.00  0.00    +0.000 C 
ATOM      8  O   UNL     1      -5.478  12.075  20.303  0.00  0.00    +0.000 OA
ATOM      9  N   UNL     1      -3.366  12.652  19.564  0.00  0.00    +0.000 N 
ATOM     10  H   UNL     1      -2.685  13.397  19.613  0.00  0.00    +0.000 HD
BRANCH   7  13
ATOM     11  C   UNL     1      -2.940  12.188  23.176  0.00  0.00    +0.000 C 
ATOM     12  N   UNL     1      -3.599  13.395  22.736  0.00  0.00    +0.000 N 
ATOM     13  C   UNL     1      -4.277  13.671  21.552  0.00  0.00    +0.000 A 
ATOM     14  C   UNL     1      -4.704  14.995  21.625  0.00  0.00    +0.000 A 
ATOM     15  C   UNL     1      -4.273  15.508  22.877  0.00  0.00    +0.000 A 
ATOM     16  S   UNL     1      -4.335  16.984  23.778  0.00  0.00    +0.000 S 
ATOM     17  C   UNL     1      -3.462  16.234  25.057  0.00  0.00    +0.000 A 
ATOM     18  C   UNL     1      -3.135  14.917  24.819  0.00  0.00    +0.000 A 
ATOM     19  C   UNL     1      -3.616  14.522  23.537  0.00  0.00    +0.000 A 
ENDBRANCH   7  13
ENDBRANCH   1   9
BRANCH   6  20
ATOM     20  C   UNL     1      -0.954  10.829  19.517  0.00  0.00    +0.000 C 
BRANCH  20  21
ATOM     21  O   UNL     1       0.413  10.926  19.098  0.00  0.00    +0.000 OA
BRANCH  21  22
ATOM     22  C   UNL     1       1.121   9.742  19.110  0.00  0.00    +0.000 A 
ATOM     23  C   UNL     1       1.107   9.026  20.304  0.00  0.00    +0.000 A 
ATOM     24  C   UNL     1       1.723   7.759  20.393  0.00  0.00    +0.000 A 
ATOM     25  C   UNL     1       2.340   7.156  19.293  0.00  0.00    +0.000 A 
ATOM     26  C   UNL     1       2.396   7.886  18.094  0.00  0.00    +0.000 A 
ATOM     27  C   UNL     1       1.783   9.162  18.014  0.00  0.00    +0.000 A 
BRANCH  25  28
ATOM     28  O   UNL     1       2.752   5.871  19.499  0.00  0.00    +0.000 OA
BRANCH  28  29
ATOM     29  C   UNL     1       3.080   4.920  18.468  0.00  0.00    +0.000 C 
ATOM     30  C   UNL     1       1.772   4.248  17.957  0.00  0.00    +0.000 C 
ATOM     31  C   UNL     1       1.241   3.083  18.837  0.00  0.00    +0.000 C 
ATOM     32  C   UNL     1       0.902   3.507  20.259  0.00  0.00    +0.000 C 
ATOM     33  C   UNL     1       2.254   3.484  20.976  0.00  0.00    +0.000 C 
ATOM     34  C   UNL     1       3.221   2.846  19.967  0.00  0.00    +0.000 C 
ATOM     35  C   UNL     1       3.981   3.807  19.029  0.00  0.00    +0.000 C 
ATOM     36  N   UNL     1       2.306   2.096  19.082  0.00  0.00    +0.000 NA
ATOM     37  H   UNL     1       1.914   1.315  19.617  0.00  0.00    +0.000 HD
ENDBRANCH  28  29
ENDBRANCH  25  28
ENDBRANCH  21  22
ENDBRANCH  20  21
ENDBRANCH   6  20
TORSDOF 7
ENDMDL
MODEL 2
REMARK VINA RESULT:      -9.2      0.805      1.141
REMARK  Name = 
REMARK  8 active torsions:
REMARK  status: ('A' for Active; 'I' for Inactive)
REMARK    1  A    between atoms: C_1  and  N_2
REMARK    2  A    between atoms: C_3  and  C_4
REMARK    3  A    between atoms: N_6  and  C_7
REMARK    4  A    between atoms: C_12  and  C_13
REMARK    5  A    between atoms: C_13  and  O_14
REMARK    6  A    between atoms: O_14  and  C_15
REMARK    7  A    between atoms: C_18  and  O_19
REMARK    8  A    between atoms: O_19  and  C_20
REMARK                            x       y       z     vdW  Elec       q    Type
REMARK                         _______ _______ _______ _____ _____    ______ ____
ROOT
ATOM      1  C   UNL     1      -2.584  11.740  18.706  0.00  0.00    +0.000 A 
ATOM      2  C   UNL     1      -3.676  11.552  17.837  0.00  0.00    +0.000 A 
ATOM      3  C   UNL     1      -3.636  10.634  16.787  0.00  0.00    +0.000 A 
ATOM      4  C   UNL     1      -2.493   9.883  16.580  0.00  0.00    +0.000 A 
ATOM      5  C   UNL     1      -1.411  10.024  17.453  0.00  0.00    +0.000 A 
ATOM      6  C   UNL     1      -1.433  10.936  18.540  0.00  0.00    +0.000 A 
ENDROOT
BRANCH   1   9
ATOM      7  C   UNL     1      -3.650  12.856  20.695  0.00  0.00    +0.000 C 
ATOM      8  O   UNL     1      -4.720  12.259  20.652  0.00  0.00    +0.000 OA
ATOM      9  N   UNL     1      -2.636  12.694  19.753  0.00  0.00    +0.000 N 
ATOM     10  H   UNL     1      -1.914  13.400  19.730  0.00  0.00    +0.000 HD
BRANCH   7  13
ATOM     11  C   UNL     1      -3.418  12.256  23.801  0.00  0.00    +0.000 C 
ATOM     12  N   UNL     1      -3.251  13.516  23.115  0.00  0.00    +0.000 N 
ATOM     13  C   UNL     1      -3.351  13.823  21.760  0.00  0.00    +0.000 A 
ATOM     14  C   UNL     1      -3.076  15.183  21.629  0.00  0.00    +0.000 A 
ATOM     15  C   UNL     1      -2.812  15.686  22.931  0.00  0.00    +0.000 A 
ATOM     16  S   UNL     1      -2.388  17.180  23.696  0.00  0.00    +0.000 S 
ATOM     17  C   UNL     1      -2.385  16.390  25.225  0.00  0.00    +0.000 A 
ATOM     18  C   UNL     1      -2.694  15.049  25.166  0.00  0.00    +0.000 A 
ATOM     19  C   UNL     1      -2.933  14.665  23.815  0.00  0.00    +0.000 A 
ENDBRANCH   7  13
ENDBRANCH   1   9
BRANCH   6  20
ATOM     20  C   UNL     1      -0.269  10.825  19.531  0.00  0.00    +0.000 C 
BRANCH  20  21
ATOM     21  O   UNL     1       1.012  10.503  18.975  0.00  0.00    +0.000 OA
BRANCH  21  22
ATOM     22  C   UNL     1       1.408   9.190  19.121  0.00  0.00    +0.000 A 
ATOM     23  C   UNL     1       2.046   8.612  18.026  0.00  0.00    +0.000 A 
ATOM     24  C   UNL     1       2.572   7.305  18.105  0.00  0.00    +0.000 A 
ATOM     25  C   UNL     1       2.509   6.549  19.279  0.00  0.00    +0.000 A 
ATOM     26  C   UNL     1       1.832   7.105  20.379  0.00  0.00    +0.000 A 
ATOM     27  C   UNL     1       1.298   8.416  20.289  0.00  0.00    +0.000 A 
BRANCH  25  28
ATOM     28  O   UNL     1       3.195   5.370  19.242  0.00  0.00    +0.000 OA
BRANCH  28  29
ATOM     29  C   UNL     1       3.187   4.428  18.152  0.00  0.00    +0.000 C 
ATOM     30  C   UNL     1       1.718   4.019  17.841  0.00  0.00    +0.000 C 
ATOM     31  C   UNL     1       1.128   2.922  18.771  0.00  0.00    +0.000 C 
ATOM     32  C   UNL     1       1.091   3.328  20.236  0.00  0.00    +0.000 C 
ATOM     33  C   UNL     1       2.510   3.036  20.729  0.00  0.00    +0.000 C 
ATOM     34  C   UNL     1       3.182   2.290  19.566  0.00  0.00    +0.000 C 
ATOM     35  C   UNL     1       3.949   3.150  18.540  0.00  0.00    +0.000 C 
ATOM     36  N   UNL     1       2.023   1.755  18.822  0.00  0.00    +0.000 NA
ATOM     37  H   UNL     1       1.584   1.029  19.396  0.00  0.00    +0.000 HD
ENDBRANCH  28  29
ENDBRANCH  25  28
ENDBRANCH  21  22
ENDBRANCH  20  21
ENDBRANCH   6  20
TORSDOF 7
ENDMDL
MODEL 3
REMARK VINA RESULT:      -9.2      1.013      1.682
REMARK  Name = 
REMARK  8 active torsions:
REMARK  status: ('A' for Active; 'I' for Inactive)
REMARK    1  A    between atoms: C_1  and  N_2
REMARK    2  A    between atoms: C_3  and  C_4
REMARK    3  A    between atoms: N_6  and  C_7
REMARK    4  A    between atoms: C_12  and  C_13
REMARK    5  A    between atoms: C_13  and  O_14
REMARK    6  A    between atoms: O_14  and  C_15
REMARK    7  A    between atoms: C_18  and  O_19
REMARK    8  A    between atoms: O_19  and  C_20
REMARK                            x       y       z     vdW  Elec       q    Type
REMARK                         _______ _______ _______ _____ _____    ______ ____
ROOT
ATOM      1  C   UNL     1      -3.493  11.523  17.772  0.00  0.00    +0.000 A 
ATOM      2  C   UNL     1      -4.319  11.385  16.639  0.00  0.00    +0.000 A 
ATOM      3  C   UNL     1      -3.970  10.567  15.564  0.00  0.00    +0.000 A 
ATOM      4  C   UNL     1      -2.778   9.868  15.598  0.00  0.00    +0.000 A 
ATOM      5  C   UNL     1      -1.960   9.958  16.727  0.00  0.00    +0.000 A 
ATOM      6  C   UNL     1      -2.301  10.768  17.843  0.00  0.00    +0.000 A 
ENDROOT
BRANCH   1   9
ATOM      7  C   UNL     1      -4.960  12.253  19.682  0.00  0.00    +0.000 C 
ATOM      8  O   UNL     1      -5.859  11.438  19.508  0.00  0.00    +0.000 OA
ATOM      9  N   UNL     1      -3.854  12.377  18.844  0.00  0.00    +0.000 N 
ATOM     10  H   UNL     1      -3.312  13.226  18.921  0.00  0.00    +0.000 HD
BRANCH   7  13
ATOM     11  C   UNL     1      -2.886  12.418  22.077  0.00  0.00    +0.000 C 
ATOM     12  N   UNL     1      -4.049  13.240  21.838  0.00  0.00    +0.000 N 
ATOM     13  C   UNL     1      -4.986  13.197  20.809  0.00  0.00    +0.000 A 
ATOM     14  C   UNL     1      -5.894  14.228  21.041  0.00  0.00    +0.000 A 
ATOM     15  C   UNL     1      -5.487  14.888  22.231  0.00  0.00    +0.000 A 
ATOM     16  S   UNL     1      -5.978  16.217  23.225  0.00  0.00    +0.000 S 
ATOM     17  C   UNL     1      -4.656  15.910  24.282  0.00  0.00    +0.000 A 
ATOM     18  C   UNL     1      -3.870  14.842  23.905  0.00  0.00    +0.000 A 
ATOM     19  C   UNL     1      -4.376  14.269  22.702  0.00  0.00    +0.000 A 
ENDBRANCH   7  13
ENDBRANCH   1   9
BRANCH   6  20
ATOM     20  C   UNL     1      -1.421  10.598  19.087  0.00  0.00    +0.000 C 
BRANCH  20  21
ATOM     21  O   UNL     1      -0.029  10.899  18.927  0.00  0.00    +0.000 OA
BRANCH  21  22
ATOM     22  C   UNL     1       0.819   9.811  18.961  0.00  0.00    +0.000 A 
ATOM     23  C   UNL     1       0.906   9.134  20.176  0.00  0.00    +0.000 A 
ATOM     24  C   UNL     1       1.673   7.955  20.290  0.00  0.00    +0.000 A 
ATOM     25  C   UNL     1       2.348   7.400  19.200  0.00  0.00    +0.000 A 
ATOM     26  C   UNL     1       2.301   8.095  17.979  0.00  0.00    +0.000 A 
ATOM     27  C   UNL     1       1.535   9.285  17.873  0.00  0.00    +0.000 A 
BRANCH  25  28
ATOM     28  O   UNL     1       2.917   6.181  19.435  0.00  0.00    +0.000 OA
BRANCH  28  29
ATOM     29  C   UNL     1       2.218   4.922  19.467  0.00  0.00    +0.000 C 
ATOM     30  C   UNL     1       3.109   3.861  20.175  0.00  0.00    +0.000 C 
ATOM     31  C   UNL     1       4.201   3.212  19.279  0.00  0.00    +0.000 C 
ATOM     32  C   UNL     1       5.200   4.215  18.723  0.00  0.00    +0.000 C 
ATOM     33  C   UNL     1       4.487   4.798  17.500  0.00  0.00    +0.000 C 
ATOM     34  C   UNL     1       3.230   3.930  17.332  0.00  0.00    +0.000 C 
ATOM     35  C   UNL     1       1.949   4.420  18.039  0.00  0.00    +0.000 C 
ATOM     36  N   UNL     1       3.604   2.689  18.039  0.00  0.00    +0.000 NA
ATOM     37  H   UNL     1       4.335   2.220  17.495  0.00  0.00    +0.000 HD
ENDBRANCH  28  29
ENDBRANCH  25  28
ENDBRANCH  21  22
ENDBRANCH  20  21
ENDBRANCH   6  20
TORSDOF 7
ENDMDL
MODEL 4
REMARK VINA RESULT:      -9.1      0.833      1.478
REMARK  Name = 
REMARK  8 active torsions:
REMARK  status: ('A' for Active; 'I' for Inactive)
REMARK    1  A    between atoms: C_1  and  N_2
REMARK    2  A    between atoms: C_3  and  C_4
REMARK    3  A    between atoms: N_6  and  C_7
REMARK    4  A    between atoms: C_12  and  C_13
REMARK    5  A    between atoms: C_13  and  O_14
REMARK    6  A    between atoms: O_14  and  C_15
REMARK    7  A    between atoms: C_18  and  O_19
REMARK    8  A    between atoms: O_19  and  C_20
REMARK                            x       y       z     vdW  Elec       q    Type
REMARK                         _______ _______ _______ _____ _____    ______ ____
ROOT
ATOM      1  C   UNL     1      -2.827  11.743  18.624  0.00  0.00    +0.000 A 
ATOM      2  C   UNL     1      -3.781  11.619  17.595  0.00  0.00    +0.000 A 
ATOM      3  C   UNL     1      -3.601  10.747  16.521  0.00  0.00    +0.000 A 
ATOM      4  C   UNL     1      -2.452   9.979  16.451  0.00  0.00    +0.000 A 
ATOM      5  C   UNL     1      -1.510  10.056  17.480  0.00  0.00    +0.000 A 
ATOM      6  C   UNL     1      -1.679  10.920  18.593  0.00  0.00    +0.000 A 
ENDROOT
BRANCH   1   9
ATOM      7  C   UNL     1      -4.134  12.753  20.523  0.00  0.00    +0.000 C 
ATOM      8  O   UNL     1      -5.178  12.138  20.338  0.00  0.00    +0.000 OA
ATOM      9  N   UNL     1      -3.019  12.652  19.695  0.00  0.00    +0.000 N 
ATOM     10  H   UNL     1      -2.317  13.373  19.780  0.00  0.00    +0.000 HD
BRANCH   7  13
ATOM     11  C   UNL     1      -6.160  15.027  21.409  0.00  0.00    +0.000 C 
ATOM     12  N   UNL     1      -4.899  14.664  22.012  0.00  0.00    +0.000 N 
ATOM     13  C   UNL     1      -3.979  13.682  21.652  0.00  0.00    +0.000 A 
ATOM     14  C   UNL     1      -2.942  13.736  22.580  0.00  0.00    +0.000 A 
ATOM     15  C   UNL     1      -3.253  14.771  23.501  0.00  0.00    +0.000 A 
ATOM     16  S   UNL     1      -2.588  15.507  24.919  0.00  0.00    +0.000 S 
ATOM     17  C   UNL     1      -3.935  16.574  24.993  0.00  0.00    +0.000 A 
ATOM     18  C   UNL     1      -4.857  16.388  23.985  0.00  0.00    +0.000 A 
ATOM     19  C   UNL     1      -4.436  15.326  23.134  0.00  0.00    +0.000 A 
ENDBRANCH   7  13
ENDBRANCH   1   9
BRANCH   6  20
ATOM     20  C   UNL     1      -0.677  10.739  19.740  0.00  0.00    +0.000 C 
BRANCH  20  21
ATOM     21  O   UNL     1       0.698  10.588  19.365  0.00  0.00    +0.000 OA
BRANCH  21  22
ATOM     22  C   UNL     1       1.176   9.294  19.374  0.00  0.00    +0.000 A 
ATOM     23  C   UNL     1       1.775   8.849  18.198  0.00  0.00    +0.000 A 
ATOM     24  C   UNL     1       2.378   7.575  18.133  0.00  0.00    +0.000 A 
ATOM     25  C   UNL     1       2.431   6.722  19.239  0.00  0.00    +0.000 A 
ATOM     26  C   UNL     1       1.795   7.143  20.420  0.00  0.00    +0.000 A 
ATOM     27  C   UNL     1       1.183   8.422  20.475  0.00  0.00    +0.000 A 
BRANCH  25  28
ATOM     28  O   UNL     1       3.179   5.594  19.061  0.00  0.00    +0.000 OA
BRANCH  28  29
ATOM     29  C   UNL     1       3.074   4.685  17.949  0.00  0.00    +0.000 C 
ATOM     30  C   UNL     1       1.596   4.221  17.806  0.00  0.00    +0.000 C 
ATOM     31  C   UNL     1       1.170   3.072  18.762  0.00  0.00    +0.000 C 
ATOM     32  C   UNL     1       1.298   3.433  20.234  0.00  0.00    +0.000 C 
ATOM     33  C   UNL     1       2.778   3.190  20.540  0.00  0.00    +0.000 C 
ATOM     34  C   UNL     1       3.330   2.509  19.277  0.00  0.00    +0.000 C 
ATOM     35  C   UNL     1       3.930   3.432  18.195  0.00  0.00    +0.000 C 
ATOM     36  N   UNL     1       2.112   1.945  18.663  0.00  0.00    +0.000 NA
ATOM     37  H   UNL     1       1.777   1.183  19.261  0.00  0.00    +0.000 HD
ENDBRANCH  28  29
ENDBRANCH  25  28
ENDBRANCH  21  22
ENDBRANCH  20  21
ENDBRANCH   6  20
TORSDOF 7
ENDMDL
MODEL 5
REMARK VINA RESULT:      -9.0      1.214      1.462
REMARK  Name = 
REMARK  8 active torsions:
REMARK  status: ('A' for Active; 'I' for Inactive)
REMARK    1  A    between atoms: C_1  and  N_2
REMARK    2  A    between atoms: C_3  and  C_4
REMARK    3  A    between atoms: N_6  and  C_7
REMARK    4  A    between atoms: C_12  and  C_13
REMARK    5  A    between atoms: C_13  and  O_14
REMARK    6  A    between atoms: O_14  and  C_15
REMARK    7  A    between atoms: C_18  and  O_19
REMARK    8  A    between atoms: O_19  and  C_20
REMARK                            x       y       z     vdW  Elec       q    Type
REMARK                         _______ _______ _______ _____ _____    ______ ____
ROOT
ATOM      1  C   UNL     1      -2.696  11.625  18.768  0.00  0.00    +0.000 A 
ATOM      2  C   UNL     1      -3.652  11.570  17.736  0.00  0.00    +0.000 A 
ATOM      3  C   UNL     1      -3.479  10.765  16.609  0.00  0.00    +0.000 A 
ATOM      4  C   UNL     1      -2.335   9.997  16.489  0.00  0.00    +0.000 A 
ATOM      5  C   UNL     1      -1.391  10.004  17.518  0.00  0.00    +0.000 A 
ATOM      6  C   UNL     1      -1.552  10.799  18.684  0.00  0.00    +0.000 A 
ENDROOT
BRANCH   1   9
ATOM      7  C   UNL     1      -2.159  13.615  20.213  0.00  0.00    +0.000 C 
ATOM      8  O   UNL     1      -1.156  13.978  19.610  0.00  0.00    +0.000 OA
ATOM      9  N   UNL     1      -2.880  12.466  19.894  0.00  0.00    +0.000 N 
ATOM     10  H   UNL     1      -3.524  12.120  20.591  0.00  0.00    +0.000 HD
BRANCH   7  13
ATOM     11  C   UNL     1      -1.339  13.271  23.258  0.00  0.00    +0.000 C 
ATOM     12  N   UNL     1      -2.290  14.194  22.683  0.00  0.00    +0.000 N 
ATOM     13  C   UNL     1      -2.684  14.372  21.359  0.00  0.00    +0.000 A 
ATOM     14  C   UNL     1      -3.613  15.409  21.346  0.00  0.00    +0.000 A 
ATOM     15  C   UNL     1      -3.773  15.848  22.687  0.00  0.00    +0.000 A 
ATOM     16  S   UNL     1      -4.661  17.036  23.579  0.00  0.00    +0.000 S 
ATOM     17  C   UNL     1      -3.930  16.483  25.035  0.00  0.00    +0.000 A 
ATOM     18  C   UNL     1      -3.047  15.439  24.861  0.00  0.00    +0.000 A 
ATOM     19  C   UNL     1      -2.972  15.094  23.480  0.00  0.00    +0.000 A 
ENDBRANCH   7  13
ENDBRANCH   1   9
BRANCH   6  20
ATOM     20  C   UNL     1      -0.549  10.541  19.814  0.00  0.00    +0.000 C 
BRANCH  20  21
ATOM     21  O   UNL     1       0.819  10.371  19.424  0.00  0.00    +0.000 OA
BRANCH  21  22
ATOM     22  C   UNL     1       1.279   9.071  19.431  0.00  0.00    +0.000 A 
ATOM     23  C   UNL     1       1.878   8.622  18.256  0.00  0.00    +0.000 A 
ATOM     24  C   UNL     1       2.464   7.340  18.189  0.00  0.00    +0.000 A 
ATOM     25  C   UNL     1       2.500   6.482  19.292  0.00  0.00    +0.000 A 
ATOM     26  C   UNL     1       1.865   6.908  20.472  0.00  0.00    +0.000 A 
ATOM     27  C   UNL     1       1.270   8.194  20.529  0.00  0.00    +0.000 A 
BRANCH  25  28
ATOM     28  O   UNL     1       3.234   5.345  19.113  0.00  0.00    +0.000 OA
BRANCH  28  29
ATOM     29  C   UNL     1       3.129   4.447  17.992  0.00  0.00    +0.000 C 
ATOM     30  C   UNL     1       1.643   4.025  17.812  0.00  0.00    +0.000 C 
ATOM     31  C   UNL     1       1.164   2.881  18.749  0.00  0.00    +0.000 C 
ATOM     32  C   UNL     1       1.269   3.228  20.227  0.00  0.00    +0.000 C 
ATOM     33  C   UNL     1       2.734   2.943  20.564  0.00  0.00    +0.000 C 
ATOM     34  C   UNL     1       3.296   2.255  19.309  0.00  0.00    +0.000 C 
ATOM     35  C   UNL     1       3.945   3.169  18.248  0.00  0.00    +0.000 C 
ATOM     36  N   UNL     1       2.076   1.729  18.663  0.00  0.00    +0.000 NA
ATOM     37  H   UNL     1       1.707   0.973  19.247  0.00  0.00    +0.000 HD
ENDBRANCH  28  29
ENDBRANCH  25  28
ENDBRANCH  21  22
ENDBRANCH  20  21
ENDBRANCH   6  20
TORSDOF 7
ENDMDL
MODEL 6
REMARK VINA RESULT:      -8.9      2.047      2.685
REMARK  Name = 
REMARK  8 active torsions:
REMARK  status: ('A' for Active; 'I' for Inactive)
REMARK    1  A    between atoms: C_1  and  N_2
REMARK    2  A    between atoms: C_3  and  C_4
REMARK    3  A    between atoms: N_6  and  C_7
REMARK    4  A    between atoms: C_12  and  C_13
REMARK    5  A    between atoms: C_13  and  O_14
REMARK    6  A    between atoms: O_14  and  C_15
REMARK    7  A    between atoms: C_18  and  O_19
REMARK    8  A    between atoms: O_19  and  C_20
REMARK                            x       y       z     vdW  Elec       q    Type
REMARK                         _______ _______ _______ _____ _____    ______ ____
ROOT
ATOM      1  C   UNL     1      -3.782  11.171  17.620  0.00  0.00    +0.000 A 
ATOM      2  C   UNL     1      -4.444  11.070  16.381  0.00  0.00    +0.000 A 
ATOM      3  C   UNL     1      -3.837  10.498  15.263  0.00  0.00    +0.000 A 
ATOM      4  C   UNL     1      -2.545  10.016  15.360  0.00  0.00    +0.000 A 
ATOM      5  C   UNL     1      -1.882  10.069  16.588  0.00  0.00    +0.000 A 
ATOM      6  C   UNL     1      -2.483  10.628  17.747  0.00  0.00    +0.000 A 
ENDROOT
BRANCH   1   9
ATOM      7  C   UNL     1      -5.757  12.095  18.878  0.00  0.00    +0.000 C 
ATOM      8  O   UNL     1      -6.574  12.010  17.968  0.00  0.00    +0.000 OA
ATOM      9  N   UNL     1      -4.408  11.776  18.739  0.00  0.00    +0.000 N 
ATOM     10  H   UNL     1      -3.780  12.114  19.454  0.00  0.00    +0.000 HD
BRANCH   7  13
ATOM     11  C   UNL     1      -7.747  10.674  20.898  0.00  0.00    +0.000 C 
ATOM     12  N   UNL     1      -7.016  11.906  21.076  0.00  0.00    +0.000 N 
ATOM     13  C   UNL     1      -6.143  12.567  20.216  0.00  0.00    +0.000 A 
ATOM     14  C   UNL     1      -5.695  13.704  20.885  0.00  0.00    +0.000 A 
ATOM     15  C   UNL     1      -6.319  13.716  22.160  0.00  0.00    +0.000 A 
ATOM     16  S   UNL     1      -6.349  14.684  23.594  0.00  0.00    +0.000 S 
ATOM     17  C   UNL     1      -7.467  13.588  24.306  0.00  0.00    +0.000 A 
ATOM     18  C   UNL     1      -7.811  12.528  23.494  0.00  0.00    +0.000 A 
ATOM     19  C   UNL     1      -7.121  12.626  22.251  0.00  0.00    +0.000 A 
ENDBRANCH   7  13
ENDBRANCH   1   9
BRANCH   6  20
ATOM     20  C   UNL     1      -1.724  10.421  19.062  0.00  0.00    +0.000 C 
BRANCH  20  21
ATOM     21  O   UNL     1      -0.361  10.863  19.085  0.00  0.00    +0.000 OA
BRANCH  21  22
ATOM     22  C   UNL     1       0.587   9.862  19.032  0.00  0.00    +0.000 A 
ATOM     23  C   UNL     1       0.698   9.056  20.162  0.00  0.00    +0.000 A 
ATOM     24  C   UNL     1       1.572   7.948  20.175  0.00  0.00    +0.000 A 
ATOM     25  C   UNL     1       2.333   7.590  19.059  0.00  0.00    +0.000 A 
ATOM     26  C   UNL     1       2.260   8.419  17.926  0.00  0.00    +0.000 A 
ATOM     27  C   UNL     1       1.387   9.537  17.924  0.00  0.00    +0.000 A 
BRANCH  25  28
ATOM     28  O   UNL     1       3.008   6.410  19.178  0.00  0.00    +0.000 OA
BRANCH  28  29
ATOM     29  C   UNL     1       2.409   5.101  19.214  0.00  0.00    +0.000 C 
ATOM     30  C   UNL     1       3.293   4.158  20.080  0.00  0.00    +0.000 C 
ATOM     31  C   UNL     1       4.525   3.554  19.351  0.00  0.00    +0.000 C 
ATOM     32  C   UNL     1       5.501   4.605  18.844  0.00  0.00    +0.000 C 
ATOM     33  C   UNL     1       4.890   5.058  17.517  0.00  0.00    +0.000 C 
ATOM     34  C   UNL     1       3.729   4.081  17.268  0.00  0.00    +0.000 C 
ATOM     35  C   UNL     1       2.343   4.501  17.800  0.00  0.00    +0.000 C 
ATOM     36  N   UNL     1       4.115   2.916  18.090  0.00  0.00    +0.000 NA
ATOM     37  H   UNL     1       4.936   2.480  17.659  0.00  0.00    +0.000 HD
ENDBRANCH  28  29
ENDBRANCH  25  28
ENDBRANCH  21  22
ENDBRANCH  20  21
ENDBRANCH   6  20
TORSDOF 7
ENDMDL
MODEL 7
REMARK VINA RESULT:      -8.8      2.056      2.197
REMARK  Name = 
REMARK  8 active torsions:
REMARK  status: ('A' for Active; 'I' for Inactive)
REMARK    1  A    between atoms: C_1  and  N_2
REMARK    2  A    between atoms: C_3  and  C_4
REMARK    3  A    between atoms: N_6  and  C_7
REMARK    4  A    between atoms: C_12  and  C_13
REMARK    5  A    between atoms: C_13  and  O_14
REMARK    6  A    between atoms: O_14  and  C_15
REMARK    7  A    between atoms: C_18  and  O_19
REMARK    8  A    between atoms: O_19  and  C_20
REMARK                            x       y       z     vdW  Elec       q    Type
REMARK                         _______ _______ _______ _____ _____    ______ ____
ROOT
ATOM      1  C   UNL     1      -2.432  12.004  18.754  0.00  0.00    +0.000 A 
ATOM      2  C   UNL     1      -3.769  11.650  18.488  0.00  0.00    +0.000 A 
ATOM      3  C   UNL     1      -4.100  10.538  17.712  0.00  0.00    +0.000 A 
ATOM      4  C   UNL     1      -3.092   9.754  17.179  0.00  0.00    +0.000 A 
ATOM      5  C   UNL     1      -1.759  10.062  17.463  0.00  0.00    +0.000 A 
ATOM      6  C   UNL     1      -1.397  11.176  18.265  0.00  0.00    +0.000 A 
ENDROOT
BRANCH   1   9
ATOM      7  C   UNL     1      -1.935  13.212  20.905  0.00  0.00    +0.000 C 
ATOM      8  O   UNL     1      -2.162  12.277  21.665  0.00  0.00    +0.000 OA
ATOM      9  N   UNL     1      -2.117  13.150  19.526  0.00  0.00    +0.000 N 
ATOM     10  H   UNL     1      -2.149  14.028  19.027  0.00  0.00    +0.000 HD
BRANCH   7  13
ATOM     11  C   UNL     1      -3.605  15.359  22.537  0.00  0.00    +0.000 C 
ATOM     12  N   UNL     1      -2.222  15.421  22.126  0.00  0.00    +0.000 N 
ATOM     13  C   UNL     1      -1.455  14.509  21.405  0.00  0.00    +0.000 A 
ATOM     14  C   UNL     1      -0.175  15.047  21.299  0.00  0.00    +0.000 A 
ATOM     15  C   UNL     1      -0.187  16.300  21.966  0.00  0.00    +0.000 A 
ATOM     16  S   UNL     1       0.897  17.597  22.338  0.00  0.00    +0.000 S 
ATOM     17  C   UNL     1      -0.376  18.423  23.149  0.00  0.00    +0.000 A 
ATOM     18  C   UNL     1      -1.579  17.750  23.142  0.00  0.00    +0.000 A 
ATOM     19  C   UNL     1      -1.437  16.512  22.450  0.00  0.00    +0.000 A 
ENDBRANCH   7  13
ENDBRANCH   1   9
BRANCH   6  20
ATOM     20  C   UNL     1       0.081  11.261  18.664  0.00  0.00    +0.000 C 
BRANCH  20  21
ATOM     21  O   UNL     1       0.461  10.554  19.851  0.00  0.00    +0.000 OA
BRANCH  21  22
ATOM     22  C   UNL     1       1.169   9.388  19.645  0.00  0.00    +0.000 A 
ATOM     23  C   UNL     1       1.194   8.485  20.706  0.00  0.00    +0.000 A 
ATOM     24  C   UNL     1       1.812   7.225  20.565  0.00  0.00    +0.000 A 
ATOM     25  C   UNL     1       2.391   6.812  19.362  0.00  0.00    +0.000 A 
ATOM     26  C   UNL     1       2.407   7.729  18.297  0.00  0.00    +0.000 A 
ATOM     27  C   UNL     1       1.793   8.998  18.448  0.00  0.00    +0.000 A 
BRANCH  25  28
ATOM     28  O   UNL     1       2.809   5.513  19.341  0.00  0.00    +0.000 OA
BRANCH  28  29
ATOM     29  C   UNL     1       2.978   4.705  18.160  0.00  0.00    +0.000 C 
ATOM     30  C   UNL     1       1.597   4.127  17.734  0.00  0.00    +0.000 C 
ATOM     31  C   UNL     1       1.144   2.861  18.513  0.00  0.00    +0.000 C 
ATOM     32  C   UNL     1       0.996   3.094  20.009  0.00  0.00    +0.000 C 
ATOM     33  C   UNL     1       2.424   2.956  20.541  0.00  0.00    +0.000 C 
ATOM     34  C   UNL     1       3.239   2.446  19.342  0.00  0.00    +0.000 C 
ATOM     35  C   UNL     1       3.907   3.515  18.451  0.00  0.00    +0.000 C 
ATOM     36  N   UNL     1       2.200   1.835  18.488  0.00  0.00    +0.000 NA
ATOM     37  H   UNL     1       1.853   0.995  18.961  0.00  0.00    +0.000 HD
ENDBRANCH  28  29
ENDBRANCH  25  28
ENDBRANCH  21  22
ENDBRANCH  20  21
ENDBRANCH   6  20
TORSDOF 7
ENDMDL
MODEL 8
REMARK VINA RESULT:      -8.7      1.038      1.726
REMARK  Name = 
REMARK  8 active torsions:
REMARK  status: ('A' for Active; 'I' for Inactive)
REMARK    1  A    between atoms: C_1  and  N_2
REMARK    2  A    between atoms: C_3  and  C_4
REMARK    3  A    between atoms: N_6  and  C_7
REMARK    4  A    between atoms: C_12  and  C_13
REMARK    5  A    between atoms: C_13  and  O_14
REMARK    6  A    between atoms: O_14  and  C_15
REMARK    7  A    between atoms: C_18  and  O_19
REMARK    8  A    between atoms: O_19  and  C_20
REMARK                            x       y       z     vdW  Elec       q    Type
REMARK                         _______ _______ _______ _____ _____    ______ ____
ROOT
ATOM      1  C   UNL     1      -3.120  11.686  18.244  0.00  0.00    +0.000 A 
ATOM      2  C   UNL     1      -4.011  11.502  17.169  0.00  0.00    +0.000 A 
ATOM      3  C   UNL     1      -3.754  10.595  16.141  0.00  0.00    +0.000 A 
ATOM      4  C   UNL     1      -2.589   9.849  16.166  0.00  0.00    +0.000 A 
ATOM      5  C   UNL     1      -1.709   9.984  17.243  0.00  0.00    +0.000 A 
ATOM      6  C   UNL     1      -1.957  10.886  18.311  0.00  0.00    +0.000 A 
ENDROOT
BRANCH   1   9
ATOM      7  C   UNL     1      -4.517  12.689  20.082  0.00  0.00    +0.000 C 
ATOM      8  O   UNL     1      -5.511  11.988  19.922  0.00  0.00    +0.000 OA
ATOM      9  N   UNL     1      -3.389  12.630  19.267  0.00  0.00    +0.000 N 
ATOM     10  H   UNL     1      -2.744  13.405  19.319  0.00  0.00    +0.000 HD
BRANCH   7  13
ATOM     11  C   UNL     1      -6.808  13.429  22.148  0.00  0.00    +0.000 C 
ATOM     12  N   UNL     1      -5.473  13.971  22.055  0.00  0.00    +0.000 N 
ATOM     13  C   UNL     1      -4.443  13.682  21.163  0.00  0.00    +0.000 A 
ATOM     14  C   UNL     1      -3.355  14.472  21.527  0.00  0.00    +0.000 A 
ATOM     15  C   UNL     1      -3.751  15.244  22.651  0.00  0.00    +0.000 A 
ATOM     16  S   UNL     1      -3.090  16.427  23.726  0.00  0.00    +0.000 S 
ATOM     17  C   UNL     1      -4.586  16.491  24.572  0.00  0.00    +0.000 A 
ATOM     18  C   UNL     1      -5.556  15.652  24.064  0.00  0.00    +0.000 A 
ATOM     19  C   UNL     1      -5.038  14.934  22.948  0.00  0.00    +0.000 A 
ENDBRANCH   7  13
ENDBRANCH   1   9
BRANCH   6  20
ATOM     20  C   UNL     1      -1.019  10.769  19.518  0.00  0.00    +0.000 C 
BRANCH  20  21
ATOM     21  O   UNL     1       0.378  10.951  19.257  0.00  0.00    +0.000 OA
BRANCH  21  22
ATOM     22  C   UNL     1       1.119   9.791  19.159  0.00  0.00    +0.000 A 
ATOM     23  C   UNL     1       1.104   8.953  20.271  0.00  0.00    +0.000 A 
ATOM     24  C   UNL     1       1.753   7.700  20.239  0.00  0.00    +0.000 A 
ATOM     25  C   UNL     1       2.405   7.231  19.094  0.00  0.00    +0.000 A 
ATOM     26  C   UNL     1       2.460   8.084  17.979  0.00  0.00    +0.000 A 
ATOM     27  C   UNL     1       1.814   9.346  18.022  0.00  0.00    +0.000 A 
BRANCH  25  28
ATOM     28  O   UNL     1       2.848   5.943  19.173  0.00  0.00    +0.000 OA
BRANCH  28  29
ATOM     29  C   UNL     1       2.013   4.770  19.217  0.00  0.00    +0.000 C 
ATOM     30  C   UNL     1       2.695   3.690  20.105  0.00  0.00    +0.000 C 
ATOM     31  C   UNL     1       3.799   2.855  19.398  0.00  0.00    +0.000 C 
ATOM     32  C   UNL     1       4.960   3.697  18.890  0.00  0.00    +0.000 C 
ATOM     33  C   UNL     1       4.457   4.238  17.550  0.00  0.00    +0.000 C 
ATOM     34  C   UNL     1       3.136   3.494  17.300  0.00  0.00    +0.000 C 
ATOM     35  C   UNL     1       1.848   4.173  17.810  0.00  0.00    +0.000 C 
ATOM     36  N   UNL     1       3.288   2.288  18.139  0.00  0.00    +0.000 NA
ATOM     37  H   UNL     1       4.017   1.700  17.724  0.00  0.00    +0.000 HD
ENDBRANCH  28  29
ENDBRANCH  25  28
ENDBRANCH  21  22
ENDBRANCH  20  21
ENDBRANCH   6  20
TORSDOF 7
ENDMDL
MODEL 9
REMARK VINA RESULT:      -8.7      2.303      3.646
REMARK  Name = 
REMARK  8 active torsions:
REMARK  status: ('A' for Active; 'I' for Inactive)
REMARK    1  A    between atoms: C_1  and  N_2
REMARK    2  A    between atoms: C_3  and  C_4
REMARK    3  A    between atoms: N_6  and  C_7
REMARK    4  A    between atoms: C_12  and  C_13
REMARK    5  A    between atoms: C_13  and  O_14
REMARK    6  A    between atoms: O_14  and  C_15
REMARK    7  A    between atoms: C_18  and  O_19
REMARK    8  A    between atoms: O_19  and  C_20
REMARK                            x       y       z     vdW  Elec       q    Type
REMARK                         _______ _______ _______ _____ _____    ______ ____
ROOT
ATOM      1  C   UNL     1       0.012  13.617  19.096  0.00  0.00    +0.000 A 
ATOM      2  C   UNL     1       0.430  14.949  18.906  0.00  0.00    +0.000 A 
ATOM      3  C   UNL     1       1.749  15.271  18.588  0.00  0.00    +0.000 A 
ATOM      4  C   UNL     1       2.686  14.262  18.456  0.00  0.00    +0.000 A 
ATOM      5  C   UNL     1       2.287  12.931  18.600  0.00  0.00    +0.000 A 
ATOM      6  C   UNL     1       0.946  12.574  18.905  0.00  0.00    +0.000 A 
ENDROOT
BRANCH   1   9
ATOM      7  C   UNL     1      -1.846  13.122  20.721  0.00  0.00    +0.000 C 
ATOM      8  O   UNL     1      -1.156  13.064  21.732  0.00  0.00    +0.000 OA
ATOM      9  N   UNL     1      -1.329  13.311  19.441  0.00  0.00    +0.000 N 
ATOM     10  H   UNL     1      -1.935  13.093  18.664  0.00  0.00    +0.000 HD
BRANCH   7  13
ATOM     11  C   UNL     1      -3.699  11.666  18.599  0.00  0.00    +0.000 C 
ATOM     12  N   UNL     1      -4.084  12.322  19.826  0.00  0.00    +0.000 N 
ATOM     13  C   UNL     1      -3.308  12.977  20.778  0.00  0.00    +0.000 A 
ATOM     14  C   UNL     1      -4.172  13.412  21.780  0.00  0.00    +0.000 A 
ATOM     15  C   UNL     1      -5.482  13.009  21.410  0.00  0.00    +0.000 A 
ATOM     16  S   UNL     1      -7.100  13.096  22.019  0.00  0.00    +0.000 S 
ATOM     17  C   UNL     1      -7.663  12.245  20.633  0.00  0.00    +0.000 A 
ATOM     18  C   UNL     1      -6.670  11.907  19.739  0.00  0.00    +0.000 A 
ATOM     19  C   UNL     1      -5.408  12.360  20.221  0.00  0.00    +0.000 A 
ENDBRANCH   7  13
ENDBRANCH   1   9
BRANCH   6  20
ATOM     20  C   UNL     1       0.615  11.080  18.820  0.00  0.00    +0.000 C 
BRANCH  20  21
ATOM     21  O   UNL     1       0.849  10.308  20.004  0.00  0.00    +0.000 OA
BRANCH  21  22
ATOM     22  C   UNL     1       1.310   9.025  19.793  0.00  0.00    +0.000 A 
ATOM     23  C   UNL     1       1.856   8.763  18.538  0.00  0.00    +0.000 A 
ATOM     24  C   UNL     1       2.438   7.510  18.253  0.00  0.00    +0.000 A 
ATOM     25  C   UNL     1       2.524   6.496  19.210  0.00  0.00    +0.000 A 
ATOM     26  C   UNL     1       1.942   6.733  20.467  0.00  0.00    +0.000 A 
ATOM     27  C   UNL     1       1.350   7.992  20.745  0.00  0.00    +0.000 A 
BRANCH  25  28
ATOM     28  O   UNL     1       3.250   5.404  18.828  0.00  0.00    +0.000 OA
BRANCH  28  29
ATOM     29  C   UNL     1       3.002   4.599  17.660  0.00  0.00    +0.000 C 
ATOM     30  C   UNL     1       1.528   4.100  17.686  0.00  0.00    +0.000 C 
ATOM     31  C   UNL     1       1.269   2.854  18.578  0.00  0.00    +0.000 C 
ATOM     32  C   UNL     1       1.603   3.082  20.044  0.00  0.00    +0.000 C 
ATOM     33  C   UNL     1       3.116   2.862  20.110  0.00  0.00    +0.000 C 
ATOM     34  C   UNL     1       3.492   2.319  18.722  0.00  0.00    +0.000 C 
ATOM     35  C   UNL     1       3.909   3.358  17.660  0.00  0.00    +0.000 C 
ATOM     36  N   UNL     1       2.209   1.773  18.236  0.00  0.00    +0.000 NA
ATOM     37  H   UNL     1       1.979   0.949  18.800  0.00  0.00    +0.000 HD
ENDBRANCH  28  29
ENDBRANCH  25  28
ENDBRANCH  21  22
ENDBRANCH  20  21
ENDBRANCH   6  20
TORSDOF 7
ENDMDL
