MODEL 1
REMARK VINA RESULT:      -7.9      0.000      0.000
REMARK  Name = 
REMARK  6 active torsions:
REMARK  status: ('A' for Active; 'I' for Inactive)
REMARK    1  A    between atoms: C_1  and  C_2
REMARK    2  A    between atoms: C_2  and  C_3
REMARK    3  A    between atoms: C_6  and  C_7
REMARK    4  A    between atoms: N_14  and  C_15
REMARK    5  A    between atoms: C_15  and  C_16
REMARK    6  A    between atoms: C_16  and  C_18
REMARK                            x       y       z     vdW  Elec       q    Type
REMARK                         _______ _______ _______ _____ _____    ______ ____
ROOT
ATOM      1  C   UNL     1       1.651   4.710  20.465  0.00  0.00    +0.000 C 
ATOM      2  C   UNL     1       2.626   5.485  19.578  0.00  0.00    +0.000 C 
ATOM      3  N   UNL     1       3.981   5.389  20.084  0.00  0.00    +0.000 N 
ATOM      4  C   UNL     1       4.877   5.106  19.082  0.00  0.00    +0.000 C 
ATOM      5  O   UNL     1       6.088   5.202  19.208  0.00  0.00    +0.000 OA
ATOM      6  N   UNL     1       4.194   4.685  17.989  0.00  0.00    +0.000 N 
ATOM      7  C   UNL     1       2.847   4.789  18.209  0.00  0.00    +0.000 C 
ATOM      8  O   UNL     1       1.964   4.421  17.442  0.00  0.00    +0.000 OA
ATOM      9  H   UNL     1       4.307   5.802  20.946  0.00  0.00    +0.000 HD
ENDROOT
BRANCH   2  10
ATOM     10  C   UNL     1       2.187   6.938  19.390  0.00  0.00    +0.000 A 
ATOM     11  C   UNL     1       2.354   7.608  18.163  0.00  0.00    +0.000 A 
ATOM     12  C   UNL     1       1.948   8.931  18.001  0.00  0.00    +0.000 A 
ATOM     13  C   UNL     1       1.361   9.613  19.065  0.00  0.00    +0.000 A 
ATOM     14  C   UNL     1       1.180   8.969  20.288  0.00  0.00    +0.000 A 
ATOM     15  C   UNL     1       1.589   7.644  20.449  0.00  0.00    +0.000 A 
BRANCH  13  16
ATOM     16  C   UNL     1       0.951  10.970  18.903  0.00  0.00    +0.000 C 
ATOM     17  N   UNL     1       0.608  12.075  18.775  0.00  0.00    +0.000 NA
ENDBRANCH  13  16
ENDBRANCH   2  10
BRANCH   6  18
ATOM     18  C   UNL     1       4.819   4.122  16.812  0.00  0.00    +0.000 C 
BRANCH  18  19
ATOM     19  C   UNL     1       5.230   5.174  15.786  0.00  0.00    +0.000 C 
ATOM     20  O   UNL     1       5.011   6.375  15.933  0.00  0.00    +0.000 OA
BRANCH  19  21
ATOM     21  C   UNL     1       5.888   4.695  14.527  0.00  0.00    +0.000 A 
ATOM     22  C   UNL     1       5.287   3.765  13.676  0.00  0.00    +0.000 A 
ATOM     23  C   UNL     1       5.934   3.447  12.492  0.00  0.00    +0.000 A 
ATOM     24  N   UNL     1       7.115   3.976  12.117  0.00  0.00    +0.000 NA
ATOM     25  C   UNL     1       7.688   4.858  12.964  0.00  0.00    +0.000 A 
ATOM     26  C   UNL     1       7.125   5.239  14.169  0.00  0.00    +0.000 A 
ENDBRANCH  19  21
ENDBRANCH  18  19
ENDBRANCH   6  18
TORSDOF 5
ENDMDL
MODEL 2
REMARK VINA RESULT:      -7.8      0.710      1.226
REMARK  Name = 
REMARK  6 active torsions:
REMARK  status: ('A' for Active; 'I' for Inactive)
REMARK    1  A    between atoms: C_1  and  C_2
REMARK    2  A    between atoms: C_2  and  C_3
REMARK    3  A    between atoms: C_6  and  C_7
REMARK    4  A    between atoms: N_14  and  C_15
REMARK    5  A    between atoms: C_15  and  C_16
REMARK    6  A    between atoms: C_16  and  C_18
REMARK                            x       y       z     vdW  Elec       q    Type
REMARK                         _______ _______ _______ _____ _____    ______ ____
ROOT
ATOM      1  C   UNL     1       1.612   3.714  20.147  0.00  0.00    +0.000 C 
ATOM      2  C   UNL     1       2.640   4.587  19.428  0.00  0.00    +0.000 C 
ATOM      3  N   UNL     1       3.971   4.370  19.959  0.00  0.00    +0.000 N 
ATOM      4  C   UNL     1       4.899   4.219  18.956  0.00  0.00    +0.000 C 
ATOM      5  O   UNL     1       6.105   4.255  19.137  0.00  0.00    +0.000 OA
ATOM      6  N   UNL     1       4.248   3.996  17.788  0.00  0.00    +0.000 N 
ATOM      7  C   UNL     1       2.896   4.107  17.975  0.00  0.00    +0.000 C 
ATOM      8  O   UNL     1       2.035   3.893  17.130  0.00  0.00    +0.000 OA
ATOM      9  H   UNL     1       4.275   4.632  20.886  0.00  0.00    +0.000 HD
ENDROOT
BRANCH   2  10
ATOM     10  C   UNL     1       2.247   6.065  19.457  0.00  0.00    +0.000 A 
ATOM     11  C   UNL     1       1.709   6.665  20.612  0.00  0.00    +0.000 A 
ATOM     12  C   UNL     1       1.356   8.012  20.628  0.00  0.00    +0.000 A 
ATOM     13  C   UNL     1       1.537   8.793  19.488  0.00  0.00    +0.000 A 
ATOM     14  C   UNL     1       2.074   8.222  18.334  0.00  0.00    +0.000 A 
ATOM     15  C   UNL     1       2.425   6.871  18.318  0.00  0.00    +0.000 A 
BRANCH  13  16
ATOM     16  C   UNL     1       1.171  10.172  19.501  0.00  0.00    +0.000 C 
ATOM     17  N   UNL     1       0.866  11.294  19.505  0.00  0.00    +0.000 NA
ENDBRANCH  13  16
ENDBRANCH   2  10
BRANCH   6  18
ATOM     18  C   UNL     1       4.903   3.605  16.559  0.00  0.00    +0.000 C 
BRANCH  18  19
ATOM     19  C   UNL     1       5.387   4.791  15.730  0.00  0.00    +0.000 C 
ATOM     20  O   UNL     1       5.233   5.960  16.078  0.00  0.00    +0.000 OA
BRANCH  19  21
ATOM     21  C   UNL     1       6.036   4.497  14.411  0.00  0.00    +0.000 A 
ATOM     22  C   UNL     1       5.468   3.631  13.474  0.00  0.00    +0.000 A 
ATOM     23  C   UNL     1       6.098   3.487  12.248  0.00  0.00    +0.000 A 
ATOM     24  N   UNL     1       7.234   4.127  11.909  0.00  0.00    +0.000 NA
ATOM     25  C   UNL     1       7.777   4.945  12.836  0.00  0.00    +0.000 A 
ATOM     26  C   UNL     1       7.227   5.154  14.089  0.00  0.00    +0.000 A 
ENDBRANCH  19  21
ENDBRANCH  18  19
ENDBRANCH   6  18
TORSDOF 5
ENDMDL
MODEL 3
REMARK VINA RESULT:      -7.8      0.724      1.172
REMARK  Name = 
REMARK  6 active torsions:
REMARK  status: ('A' for Active; 'I' for Inactive)
REMARK    1  A    between atoms: C_1  and  C_2
REMARK    2  A    between atoms: C_2  and  C_3
REMARK    3  A    between atoms: C_6  and  C_7
REMARK    4  A    between atoms: N_14  and  C_15
REMARK    5  A    between atoms: C_15  and  C_16
REMARK    6  A    between atoms: C_16  and  C_18
REMARK                            x       y       z     vdW  Elec       q    Type
REMARK                         _______ _______ _______ _____ _____    ______ ____
ROOT
ATOM      1  C   UNL     1       2.144   4.162  19.951  0.00  0.00    +0.000 C 
ATOM      2  C   UNL     1       3.168   5.116  19.336  0.00  0.00    +0.000 C 
ATOM      3  N   UNL     1       4.403   5.116  20.095  0.00  0.00    +0.000 N 
ATOM      4  C   UNL     1       5.502   5.025  19.275  0.00  0.00    +0.000 C 
ATOM      5  O   UNL     1       6.645   5.236  19.647  0.00  0.00    +0.000 OA
ATOM      6  N   UNL     1       5.097   4.639  18.040  0.00  0.00    +0.000 N 
ATOM      7  C   UNL     1       3.730   4.579  17.992  0.00  0.00    +0.000 C 
ATOM      8  O   UNL     1       3.061   4.194  17.040  0.00  0.00    +0.000 OA
ATOM      9  H   UNL     1       4.506   5.478  21.032  0.00  0.00    +0.000 HD
ENDROOT
BRANCH   2  10
ATOM     10  C   UNL     1       2.599   6.526  19.168  0.00  0.00    +0.000 A 
ATOM     11  C   UNL     1       2.726   7.235  17.959  0.00  0.00    +0.000 A 
ATOM     12  C   UNL     1       2.202   8.518  17.816  0.00  0.00    +0.000 A 
ATOM     13  C   UNL     1       1.534   9.119  18.881  0.00  0.00    +0.000 A 
ATOM     14  C   UNL     1       1.391   8.433  20.087  0.00  0.00    +0.000 A 
ATOM     15  C   UNL     1       1.918   7.149  20.229  0.00  0.00    +0.000 A 
BRANCH  13  16
ATOM     16  C   UNL     1       1.002  10.436  18.738  0.00  0.00    +0.000 C 
ATOM     17  N   UNL     1       0.575  11.511  18.616  0.00  0.00    +0.000 NA
ENDBRANCH  13  16
ENDBRANCH   2  10
BRANCH   6  18
ATOM     18  C   UNL     1       5.998   4.259  16.974  0.00  0.00    +0.000 C 
BRANCH  18  19
ATOM     19  C   UNL     1       6.171   5.344  15.915  0.00  0.00    +0.000 C 
ATOM     20  O   UNL     1       6.066   6.544  16.161  0.00  0.00    +0.000 OA
BRANCH  19  21
ATOM     21  C   UNL     1       6.434   4.902  14.506  0.00  0.00    +0.000 A 
ATOM     22  C   UNL     1       7.490   5.412  13.748  0.00  0.00    +0.000 A 
ATOM     23  C   UNL     1       7.705   4.882  12.486  0.00  0.00    +0.000 A 
ATOM     24  N   UNL     1       6.948   3.909  11.942  0.00  0.00    +0.000 NA
ATOM     25  C   UNL     1       5.920   3.445  12.684  0.00  0.00    +0.000 A 
ATOM     26  C   UNL     1       5.621   3.910  13.953  0.00  0.00    +0.000 A 
ENDBRANCH  19  21
ENDBRANCH  18  19
ENDBRANCH   6  18
TORSDOF 5
ENDMDL
MODEL 4
REMARK VINA RESULT:      -7.7      0.243      1.368
REMARK  Name = 
REMARK  6 active torsions:
REMARK  status: ('A' for Active; 'I' for Inactive)
REMARK    1  A    between atoms: C_1  and  C_2
REMARK    2  A    between atoms: C_2  and  C_3
REMARK    3  A    between atoms: C_6  and  C_7
REMARK    4  A    between atoms: N_14  and  C_15
REMARK    5  A    between atoms: C_15  and  C_16
REMARK    6  A    between atoms: C_16  and  C_18
REMARK                            x       y       z     vdW  Elec       q    Type
REMARK                         _______ _______ _______ _____ _____    ______ ____
ROOT
ATOM      1  C   UNL     1       1.673   4.417  20.336  0.00  0.00    +0.000 C 
ATOM      2  C   UNL     1       2.673   5.244  19.529  0.00  0.00    +0.000 C 
ATOM      3  N   UNL     1       4.008   5.134  20.083  0.00  0.00    +0.000 N 
ATOM      4  C   UNL     1       4.946   4.910  19.104  0.00  0.00    +0.000 C 
ATOM      5  O   UNL     1       6.150   5.010  19.283  0.00  0.00    +0.000 OA
ATOM      6  N   UNL     1       4.311   4.538  17.965  0.00  0.00    +0.000 N 
ATOM      7  C   UNL     1       2.955   4.619  18.136  0.00  0.00    +0.000 C 
ATOM      8  O   UNL     1       2.107   4.283  17.318  0.00  0.00    +0.000 OA
ATOM      9  H   UNL     1       4.296   5.506  20.977  0.00  0.00    +0.000 HD
ENDROOT
BRANCH   2  10
ATOM     10  C   UNL     1       2.226   6.701  19.396  0.00  0.00    +0.000 A 
ATOM     11  C   UNL     1       1.636   7.394  20.471  0.00  0.00    +0.000 A 
ATOM     12  C   UNL     1       1.234   8.721  20.340  0.00  0.00    +0.000 A 
ATOM     13  C   UNL     1       1.419   9.388  19.130  0.00  0.00    +0.000 A 
ATOM     14  C   UNL     1       2.007   8.724  18.054  0.00  0.00    +0.000 A 
ATOM     15  C   UNL     1       2.406   7.393  18.186  0.00  0.00    +0.000 A 
BRANCH  13  16
ATOM     16  C   UNL     1       1.002  10.746  18.993  0.00  0.00    +0.000 C 
ATOM     17  N   UNL     1       0.670  11.856  18.886  0.00  0.00    +0.000 NA
ENDBRANCH  13  16
ENDBRANCH   2  10
BRANCH   6  18
ATOM     18  C   UNL     1       4.988   4.041  16.787  0.00  0.00    +0.000 C 
BRANCH  18  19
ATOM     19  C   UNL     1       5.500   5.150  15.873  0.00  0.00    +0.000 C 
ATOM     20  O   UNL     1       5.466   6.340  16.179  0.00  0.00    +0.000 OA
BRANCH  19  21
ATOM     21  C   UNL     1       6.022   4.752  14.525  0.00  0.00    +0.000 A 
ATOM     22  C   UNL     1       7.242   5.216  14.029  0.00  0.00    +0.000 A 
ATOM     23  C   UNL     1       7.682   4.727  12.809  0.00  0.00    +0.000 A 
ATOM     24  N   UNL     1       6.996   3.836  12.067  0.00  0.00    +0.000 NA
ATOM     25  C   UNL     1       5.809   3.416  12.556  0.00  0.00    +0.000 A 
ATOM     26  C   UNL     1       5.282   3.845  13.761  0.00  0.00    +0.000 A 
ENDBRANCH  19  21
ENDBRANCH  18  19
ENDBRANCH   6  18
TORSDOF 5
ENDMDL
MODEL 5
REMARK VINA RESULT:      -7.3      1.354      1.767
REMARK  Name = 
REMARK  6 active torsions:
REMARK  status: ('A' for Active; 'I' for Inactive)
REMARK    1  A    between atoms: C_1  and  C_2
REMARK    2  A    between atoms: C_2  and  C_3
REMARK    3  A    between atoms: C_6  and  C_7
REMARK    4  A    between atoms: N_14  and  C_15
REMARK    5  A    between atoms: C_15  and  C_16
REMARK    6  A    between atoms: C_16  and  C_18
REMARK                            x       y       z     vdW  Elec       q    Type
REMARK                         _______ _______ _______ _____ _____    ______ ____
ROOT
ATOM      1  C   UNL     1       2.158   4.702  17.733  0.00  0.00    +0.000 C 
ATOM      2  C   UNL     1       3.171   5.684  18.321  0.00  0.00    +0.000 C 
ATOM      3  N   UNL     1       4.003   5.040  19.318  0.00  0.00    +0.000 N 
ATOM      4  C   UNL     1       5.331   5.346  19.144  0.00  0.00    +0.000 C 
ATOM      5  O   UNL     1       6.194   5.120  19.977  0.00  0.00    +0.000 OA
ATOM      6  N   UNL     1       5.498   5.888  17.912  0.00  0.00    +0.000 N 
ATOM      7  C   UNL     1       4.283   6.052  17.303  0.00  0.00    +0.000 C 
ATOM      8  O   UNL     1       4.102   6.451  16.159  0.00  0.00    +0.000 OA
ATOM      9  H   UNL     1       3.679   4.708  20.216  0.00  0.00    +0.000 HD
ENDROOT
BRANCH   2  10
ATOM     10  C   UNL     1       2.489   6.940  18.868  0.00  0.00    +0.000 A 
ATOM     11  C   UNL     1       2.230   8.055  18.049  0.00  0.00    +0.000 A 
ATOM     12  C   UNL     1       1.607   9.193  18.557  0.00  0.00    +0.000 A 
ATOM     13  C   UNL     1       1.225   9.239  19.896  0.00  0.00    +0.000 A 
ATOM     14  C   UNL     1       1.467   8.143  20.725  0.00  0.00    +0.000 A 
ATOM     15  C   UNL     1       2.093   7.004  20.215  0.00  0.00    +0.000 A 
BRANCH  13  16
ATOM     16  C   UNL     1       0.592  10.406  20.419  0.00  0.00    +0.000 C 
ATOM     17  N   UNL     1       0.069  11.353  20.848  0.00  0.00    +0.000 NA
ENDBRANCH  13  16
ENDBRANCH   2  10
BRANCH   6  18
ATOM     18  C   UNL     1       6.788   6.154  17.314  0.00  0.00    +0.000 C 
BRANCH  18  19
ATOM     19  C   UNL     1       7.431   4.917  16.694  0.00  0.00    +0.000 C 
ATOM     20  O   UNL     1       8.217   4.194  17.304  0.00  0.00    +0.000 OA
BRANCH  19  21
ATOM     21  C   UNL     1       7.115   4.615  15.260  0.00  0.00    +0.000 A 
ATOM     22  C   UNL     1       6.055   3.785  14.887  0.00  0.00    +0.000 A 
ATOM     23  C   UNL     1       5.788   3.632  13.536  0.00  0.00    +0.000 A 
ATOM     24  N   UNL     1       6.497   4.230  12.558  0.00  0.00    +0.000 NA
ATOM     25  C   UNL     1       7.530   5.011  12.941  0.00  0.00    +0.000 A 
ATOM     26  C   UNL     1       7.879   5.226  14.262  0.00  0.00    +0.000 A 
ENDBRANCH  19  21
ENDBRANCH  18  19
ENDBRANCH   6  18
TORSDOF 5
ENDMDL
MODEL 6
REMARK VINA RESULT:      -7.3      1.249      2.001
REMARK  Name = 
REMARK  6 active torsions:
REMARK  status: ('A' for Active; 'I' for Inactive)
REMARK    1  A    between atoms: C_1  and  C_2
REMARK    2  A    between atoms: C_2  and  C_3
REMARK    3  A    between atoms: C_6  and  C_7
REMARK    4  A    between atoms: N_14  and  C_15
REMARK    5  A    between atoms: C_15  and  C_16
REMARK    6  A    between atoms: C_16  and  C_18
REMARK                            x       y       z     vdW  Elec       q    Type
REMARK                         _______ _______ _______ _____ _____    ______ ____
ROOT
ATOM      1  C   UNL     1       3.243   3.427  19.643  0.00  0.00    +0.000 C 
ATOM      2  C   UNL     1       4.080   4.566  19.060  0.00  0.00    +0.000 C 
ATOM      3  N   UNL     1       5.345   4.692  19.755  0.00  0.00    +0.000 N 
ATOM      4  C   UNL     1       6.394   4.828  18.878  0.00  0.00    +0.000 C 
ATOM      5  O   UNL     1       7.515   5.177  19.210  0.00  0.00    +0.000 OA
ATOM      6  N   UNL     1       5.975   4.479  17.636  0.00  0.00    +0.000 N 
ATOM      7  C   UNL     1       4.630   4.221  17.650  0.00  0.00    +0.000 C 
ATOM      8  O   UNL     1       3.968   3.813  16.703  0.00  0.00    +0.000 OA
ATOM      9  H   UNL     1       5.452   4.994  20.713  0.00  0.00    +0.000 HD
ENDROOT
BRANCH   2  10
ATOM     10  C   UNL     1       3.304   5.884  19.038  0.00  0.00    +0.000 A 
ATOM     11  C   UNL     1       2.458   6.262  20.098  0.00  0.00    +0.000 A 
ATOM     12  C   UNL     1       1.758   7.466  20.069  0.00  0.00    +0.000 A 
ATOM     13  C   UNL     1       1.892   8.323  18.978  0.00  0.00    +0.000 A 
ATOM     14  C   UNL     1       2.729   7.972  17.919  0.00  0.00    +0.000 A 
ATOM     15  C   UNL     1       3.428   6.764  17.949  0.00  0.00    +0.000 A 
BRANCH  13  16
ATOM     16  C   UNL     1       1.171   9.554  18.945  0.00  0.00    +0.000 C 
ATOM     17  N   UNL     1       0.590  10.561  18.912  0.00  0.00    +0.000 NA
ENDBRANCH  13  16
ENDBRANCH   2  10
BRANCH   6  18
ATOM     18  C   UNL     1       6.856   4.318  16.500  0.00  0.00    +0.000 C 
BRANCH  18  19
ATOM     19  C   UNL     1       6.525   5.255  15.343  0.00  0.00    +0.000 C 
ATOM     20  O   UNL     1       6.171   6.422  15.505  0.00  0.00    +0.000 OA
BRANCH  19  21
ATOM     21  C   UNL     1       6.593   4.694  13.954  0.00  0.00    +0.000 A 
ATOM     22  C   UNL     1       7.582   5.072  13.043  0.00  0.00    +0.000 A 
ATOM     23  C   UNL     1       7.616   4.437  11.812  0.00  0.00    +0.000 A 
ATOM     24  N   UNL     1       6.743   3.482  11.437  0.00  0.00    +0.000 NA
ATOM     25  C   UNL     1       5.783   3.146  12.325  0.00  0.00    +0.000 A 
ATOM     26  C   UNL     1       5.664   3.722  13.577  0.00  0.00    +0.000 A 
ENDBRANCH  19  21
ENDBRANCH  18  19
ENDBRANCH   6  18
TORSDOF 5
ENDMDL
MODEL 7
REMARK VINA RESULT:      -7.2      2.182      2.811
REMARK  Name = 
REMARK  6 active torsions:
REMARK  status: ('A' for Active; 'I' for Inactive)
REMARK    1  A    between atoms: C_1  and  C_2
REMARK    2  A    between atoms: C_2  and  C_3
REMARK    3  A    between atoms: C_6  and  C_7
REMARK    4  A    between atoms: N_14  and  C_15
REMARK    5  A    between atoms: C_15  and  C_16
REMARK    6  A    between atoms: C_16  and  C_18
REMARK                            x       y       z     vdW  Elec       q    Type
REMARK                         _______ _______ _______ _____ _____    ______ ____
ROOT
ATOM      1  C   UNL     1       0.873   3.754  19.971  0.00  0.00    +0.000 C 
ATOM      2  C   UNL     1       2.131   4.439  19.437  0.00  0.00    +0.000 C 
ATOM      3  N   UNL     1       3.301   4.047  20.197  0.00  0.00    +0.000 N 
ATOM      4  C   UNL     1       4.354   3.726  19.375  0.00  0.00    +0.000 C 
ATOM      5  O   UNL     1       5.503   3.590  19.766  0.00  0.00    +0.000 OA
ATOM      6  N   UNL     1       3.890   3.559  18.112  0.00  0.00    +0.000 N 
ATOM      7  C   UNL     1       2.559   3.875  18.056  0.00  0.00    +0.000 C 
ATOM      8  O   UNL     1       1.834   3.759  17.074  0.00  0.00    +0.000 OA
ATOM      9  H   UNL     1       3.475   4.295  21.161  0.00  0.00    +0.000 HD
ENDROOT
BRANCH   2  10
ATOM     10  C   UNL     1       1.966   5.959  19.381  0.00  0.00    +0.000 A 
ATOM     11  C   UNL     1       1.564   6.701  20.509  0.00  0.00    +0.000 A 
ATOM     12  C   UNL     1       1.420   8.085  20.448  0.00  0.00    +0.000 A 
ATOM     13  C   UNL     1       1.680   8.760  19.257  0.00  0.00    +0.000 A 
ATOM     14  C   UNL     1       2.085   8.047  18.129  0.00  0.00    +0.000 A 
ATOM     15  C   UNL     1       2.227   6.659  18.190  0.00  0.00    +0.000 A 
BRANCH  13  16
ATOM     16  C   UNL     1       1.527  10.177  19.191  0.00  0.00    +0.000 C 
ATOM     17  N   UNL     1       1.393  11.332  19.139  0.00  0.00    +0.000 NA
ENDBRANCH  13  16
ENDBRANCH   2  10
BRANCH   6  18
ATOM     18  C   UNL     1       4.681   3.031  17.022  0.00  0.00    +0.000 C 
BRANCH  18  19
ATOM     19  C   UNL     1       5.216   4.112  16.088  0.00  0.00    +0.000 C 
ATOM     20  O   UNL     1       5.043   4.092  14.870  0.00  0.00    +0.000 OA
BRANCH  19  21
ATOM     21  C   UNL     1       6.028   5.217  16.696  0.00  0.00    +0.000 A 
ATOM     22  C   UNL     1       5.655   6.560  16.599  0.00  0.00    +0.000 A 
ATOM     23  C   UNL     1       6.422   7.501  17.266  0.00  0.00    +0.000 A 
ATOM     24  N   UNL     1       7.514   7.199  17.996  0.00  0.00    +0.000 NA
ATOM     25  C   UNL     1       7.867   5.898  18.060  0.00  0.00    +0.000 A 
ATOM     26  C   UNL     1       7.169   4.883  17.429  0.00  0.00    +0.000 A 
ENDBRANCH  19  21
ENDBRANCH  18  19
ENDBRANCH   6  18
TORSDOF 5
ENDMDL
MODEL 8
REMARK VINA RESULT:      -7.1      2.254      2.760
REMARK  Name = 
REMARK  6 active torsions:
REMARK  status: ('A' for Active; 'I' for Inactive)
REMARK    1  A    between atoms: C_1  and  C_2
REMARK    2  A    between atoms: C_2  and  C_3
REMARK    3  A    between atoms: C_6  and  C_7
REMARK    4  A    between atoms: N_14  and  C_15
REMARK    5  A    between atoms: C_15  and  C_16
REMARK    6  A    between atoms: C_16  and  C_18
REMARK                            x       y       z     vdW  Elec       q    Type
REMARK                         _______ _______ _______ _____ _____    ______ ____
ROOT
ATOM      1  C   UNL     1       0.788   3.552  20.002  0.00  0.00    +0.000 C 
ATOM      2  C   UNL     1       2.048   4.279  19.534  0.00  0.00    +0.000 C 
ATOM      3  N   UNL     1       3.214   3.828  20.268  0.00  0.00    +0.000 N 
ATOM      4  C   UNL     1       4.273   3.575  19.431  0.00  0.00    +0.000 C 
ATOM      5  O   UNL     1       5.419   3.409  19.818  0.00  0.00    +0.000 OA
ATOM      6  N   UNL     1       3.818   3.510  18.155  0.00  0.00    +0.000 N 
ATOM      7  C   UNL     1       2.487   3.828  18.115  0.00  0.00    +0.000 C 
ATOM      8  O   UNL     1       1.770   3.792  17.122  0.00  0.00    +0.000 OA
ATOM      9  H   UNL     1       3.381   3.998  21.250  0.00  0.00    +0.000 HD
ENDROOT
BRANCH   2  10
ATOM     10  C   UNL     1       1.882   5.799  19.600  0.00  0.00    +0.000 A 
ATOM     11  C   UNL     1       2.232   6.628  18.517  0.00  0.00    +0.000 A 
ATOM     12  C   UNL     1       2.075   8.010  18.586  0.00  0.00    +0.000 A 
ATOM     13  C   UNL     1       1.560   8.595  19.742  0.00  0.00    +0.000 A 
ATOM     14  C   UNL     1       1.201   7.793  20.825  0.00  0.00    +0.000 A 
ATOM     15  C   UNL     1       1.361   6.408  20.755  0.00  0.00    +0.000 A 
BRANCH  13  16
ATOM     16  C   UNL     1       1.404  10.012  19.816  0.00  0.00    +0.000 C 
ATOM     17  N   UNL     1       1.276  11.167  19.868  0.00  0.00    +0.000 NA
ENDBRANCH  13  16
ENDBRANCH   2  10
BRANCH   6  18
ATOM     18  C   UNL     1       4.618   3.073  17.032  0.00  0.00    +0.000 C 
BRANCH  18  19
ATOM     19  C   UNL     1       5.173   4.227  16.201  0.00  0.00    +0.000 C 
ATOM     20  O   UNL     1       4.981   4.335  14.992  0.00  0.00    +0.000 OA
BRANCH  19  21
ATOM     21  C   UNL     1       6.028   5.238  16.904  0.00  0.00    +0.000 A 
ATOM     22  C   UNL     1       7.145   4.877  17.661  0.00  0.00    +0.000 A 
ATOM     23  C   UNL     1       7.923   5.887  18.203  0.00  0.00    +0.000 A 
ATOM     24  N   UNL     1       7.660   7.200  18.051  0.00  0.00    +0.000 NA
ATOM     25  C   UNL     1       6.565   7.527  17.333  0.00  0.00    +0.000 A 
ATOM     26  C   UNL     1       5.723   6.594  16.753  0.00  0.00    +0.000 A 
ENDBRANCH  19  21
ENDBRANCH  18  19
ENDBRANCH   6  18
TORSDOF 5
ENDMDL
MODEL 9
REMARK VINA RESULT:      -7.1      1.475      2.055
REMARK  Name = 
REMARK  6 active torsions:
REMARK  status: ('A' for Active; 'I' for Inactive)
REMARK    1  A    between atoms: C_1  and  C_2
REMARK    2  A    between atoms: C_2  and  C_3
REMARK    3  A    between atoms: C_6  and  C_7
REMARK    4  A    between atoms: N_14  and  C_15
REMARK    5  A    between atoms: C_15  and  C_16
REMARK    6  A    between atoms: C_16  and  C_18
REMARK                            x       y       z     vdW  Elec       q    Type
REMARK                         _______ _______ _______ _____ _____    ______ ____
ROOT
ATOM      1  C   UNL     1       3.715   3.364  19.624  0.00  0.00    +0.000 C 
ATOM      2  C   UNL     1       4.439   4.489  18.886  0.00  0.00    +0.000 C 
ATOM      3  N   UNL     1       5.769   4.695  19.423  0.00  0.00    +0.000 N 
ATOM      4  C   UNL     1       6.707   4.809  18.425  0.00  0.00    +0.000 C 
ATOM      5  O   UNL     1       7.845   5.210  18.607  0.00  0.00    +0.000 OA
ATOM      6  N   UNL     1       6.163   4.374  17.261  0.00  0.00    +0.000 N 
ATOM      7  C   UNL     1       4.839   4.077  17.444  0.00  0.00    +0.000 C 
ATOM      8  O   UNL     1       4.089   3.594  16.603  0.00  0.00    +0.000 OA
ATOM      9  H   UNL     1       5.972   5.057  20.344  0.00  0.00    +0.000 HD
ENDROOT
BRANCH   2  10
ATOM     10  C   UNL     1       3.618   5.781  18.879  0.00  0.00    +0.000 A 
ATOM     11  C   UNL     1       3.689   6.696  17.811  0.00  0.00    +0.000 A 
ATOM     12  C   UNL     1       2.935   7.867  17.813  0.00  0.00    +0.000 A 
ATOM     13  C   UNL     1       2.090   8.149  18.885  0.00  0.00    +0.000 A 
ATOM     14  C   UNL     1       1.999   7.254  19.951  0.00  0.00    +0.000 A 
ATOM     15  C   UNL     1       2.756   6.082  19.948  0.00  0.00    +0.000 A 
BRANCH  13  16
ATOM     16  C   UNL     1       1.322   9.352  18.892  0.00  0.00    +0.000 C 
ATOM     17  N   UNL     1       0.689  10.327  18.898  0.00  0.00    +0.000 NA
ENDBRANCH  13  16
ENDBRANCH   2  10
BRANCH   6  18
ATOM     18  C   UNL     1       6.916   4.171  16.043  0.00  0.00    +0.000 C 
BRANCH  18  19
ATOM     19  C   UNL     1       6.358   4.948  14.854  0.00  0.00    +0.000 C 
ATOM     20  O   UNL     1       6.028   6.131  14.921  0.00  0.00    +0.000 OA
BRANCH  19  21
ATOM     21  C   UNL     1       6.168   4.205  13.566  0.00  0.00    +0.000 A 
ATOM     22  C   UNL     1       7.243   3.807  12.766  0.00  0.00    +0.000 A 
ATOM     23  C   UNL     1       6.974   3.050  11.638  0.00  0.00    +0.000 A 
ATOM     24  N   UNL     1       5.734   2.682  11.259  0.00  0.00    +0.000 NA
ATOM     25  C   UNL     1       4.709   3.095  12.034  0.00  0.00    +0.000 A 
ATOM     26  C   UNL     1       4.872   3.855  13.179  0.00  0.00    +0.000 A 
ENDBRANCH  19  21
ENDBRANCH  18  19
ENDBRANCH   6  18
TORSDOF 5
ENDMDL
