MODEL 1
REMARK VINA RESULT:      -8.0      0.000      0.000
REMARK  Name = 
REMARK  6 active torsions:
REMARK  status: ('A' for Active; 'I' for Inactive)
REMARK    1  A    between atoms: C_1  and  N_2
REMARK    2  A    between atoms: N_2  and  C_3
REMARK    3  A    between atoms: N_2  and  C_17
REMARK    4  A    between atoms: C_3  and  C_4
REMARK    5  A    between atoms: C_4  and  C_5
REMARK    6  A    between atoms: C_7  and  C_8
REMARK                            x       y       z     vdW  Elec       q    Type
REMARK                         _______ _______ _______ _____ _____    ______ ____
ROOT
ATOM      1  C   UNL     1       5.913   5.184  17.780  0.00  0.00    +0.000 A 
ATOM      2  N   UNL     1       5.577   5.119  16.511  0.00  0.00    +0.000 NA
ATOM      3  C   UNL     1       6.739   4.711  15.883  0.00  0.00    +0.000 A 
ATOM      4  N   UNL     1       7.767   4.508  16.724  0.00  0.00    +0.000 NA
ATOM      5  N   UNL     1       7.225   4.832  17.901  0.00  0.00    +0.000 N 
ATOM      6  H   UNL     1       7.779   4.800  18.754  0.00  0.00    +0.000 HD
ENDROOT
BRANCH   3   7
ATOM      7  C   UNL     1       6.839   4.560  14.437  0.00  0.00    +0.000 A 
ATOM      8  C   UNL     1       7.719   5.365  13.699  0.00  0.00    +0.000 A 
ATOM      9  C   UNL     1       7.847   5.198  12.316  0.00  0.00    +0.000 A 
ATOM     10  C   UNL     1       7.092   4.227  11.663  0.00  0.00    +0.000 A 
ATOM     11  C   UNL     1       6.214   3.436  12.396  0.00  0.00    +0.000 A 
ATOM     12  F   UNL     1       5.491   2.502  11.763  0.00  0.00    +0.000 F 
ATOM     13  C   UNL     1       6.079   3.592  13.769  0.00  0.00    +0.000 A 
ENDBRANCH   3   7
BRANCH   1  14
ATOM     14  C   UNL     1       5.078   5.615  18.938  0.00  0.00    +0.000 C 
BRANCH  14  15
ATOM     15  C   UNL     1       3.663   6.087  18.531  0.00  0.00    +0.000 C 
BRANCH  15  17
ATOM     16  C   UNL     1       2.048   7.701  19.381  0.00  0.00    +0.000 C 
ATOM     17  N   UNL     1       2.806   6.476  19.683  0.00  0.00    +0.000 NA
BRANCH  17  18
ATOM     18  C   UNL     1       1.964   5.352  20.158  0.00  0.00    +0.000 C 
ATOM     19  C   UNL     1       1.653   4.338  19.032  0.00  0.00    +0.000 C 
ATOM     20  C   UNL     1       1.053   3.115  19.700  0.00  0.00    +0.000 C 
ATOM     21  S   UNL     1       2.080   2.875  21.130  0.00  0.00    +0.000 S 
ATOM     22  O   UNL     1       3.300   2.218  20.707  0.00  0.00    +0.000 OA
ATOM     23  O   UNL     1       1.268   2.373  22.214  0.00  0.00    +0.000 OA
ATOM     24  C   UNL     1       2.444   4.594  21.410  0.00  0.00    +0.000 C 
ENDBRANCH  17  18
ENDBRANCH  15  17
ENDBRANCH  14  15
ENDBRANCH   1  14
TORSDOF 5
ENDMDL
MODEL 2
REMARK VINA RESULT:      -7.8      4.912      8.879
REMARK  Name = 
REMARK  6 active torsions:
REMARK  status: ('A' for Active; 'I' for Inactive)
REMARK    1  A    between atoms: C_1  and  N_2
REMARK    2  A    between atoms: N_2  and  C_3
REMARK    3  A    between atoms: N_2  and  C_17
REMARK    4  A    between atoms: C_3  and  C_4
REMARK    5  A    between atoms: C_4  and  C_5
REMARK    6  A    between atoms: C_7  and  C_8
REMARK                            x       y       z     vdW  Elec       q    Type
REMARK                         _______ _______ _______ _____ _____    ______ ____
ROOT
ATOM      1  C   UNL     1       2.253   8.064  18.462  0.00  0.00    +0.000 A 
ATOM      2  N   UNL     1       1.766   8.197  19.676  0.00  0.00    +0.000 NA
ATOM      3  C   UNL     1       1.019   9.357  19.607  0.00  0.00    +0.000 A 
ATOM      4  N   UNL     1       1.016   9.928  18.391  0.00  0.00    +0.000 NA
ATOM      5  N   UNL     1       1.815   9.108  17.702  0.00  0.00    +0.000 N 
ATOM      6  H   UNL     1       2.032   9.294  16.726  0.00  0.00    +0.000 HD
ENDROOT
BRANCH   3   7
ATOM      7  C   UNL     1       0.335   9.921  20.763  0.00  0.00    +0.000 A 
ATOM      8  C   UNL     1      -0.506  11.034  20.616  0.00  0.00    +0.000 A 
ATOM      9  C   UNL     1      -1.196  11.556  21.716  0.00  0.00    +0.000 A 
ATOM     10  C   UNL     1      -1.045  10.969  22.970  0.00  0.00    +0.000 A 
ATOM     11  C   UNL     1      -0.205   9.870  23.114  0.00  0.00    +0.000 A 
ATOM     12  F   UNL     1      -0.064   9.308  24.323  0.00  0.00    +0.000 F 
ATOM     13  C   UNL     1       0.484   9.343  22.030  0.00  0.00    +0.000 A 
ENDBRANCH   3   7
BRANCH   1  14
ATOM     14  C   UNL     1       3.179   7.016  17.945  0.00  0.00    +0.000 C 
BRANCH  14  15
ATOM     15  C   UNL     1       3.563   5.959  19.007  0.00  0.00    +0.000 C 
BRANCH  15  17
ATOM     16  C   UNL     1       2.225   4.399  17.699  0.00  0.00    +0.000 C 
ATOM     17  N   UNL     1       3.427   4.556  18.533  0.00  0.00    +0.000 NA
BRANCH  17  18
ATOM     18  C   UNL     1       4.669   4.060  17.893  0.00  0.00    +0.000 C 
ATOM     19  C   UNL     1       4.592   4.109  16.349  0.00  0.00    +0.000 C 
ATOM     20  C   UNL     1       5.997   3.865  15.834  0.00  0.00    +0.000 C 
ATOM     21  S   UNL     1       7.013   4.853  16.906  0.00  0.00    +0.000 S 
ATOM     22  O   UNL     1       6.939   6.229  16.460  0.00  0.00    +0.000 OA
ATOM     23  O   UNL     1       8.271   4.176  17.118  0.00  0.00    +0.000 OA
ATOM     24  C   UNL     1       5.998   4.685  18.358  0.00  0.00    +0.000 C 
ENDBRANCH  17  18
ENDBRANCH  15  17
ENDBRANCH  14  15
ENDBRANCH   1  14
TORSDOF 5
ENDMDL
MODEL 3
REMARK VINA RESULT:      -7.8      1.880      2.395
REMARK  Name = 
REMARK  6 active torsions:
REMARK  status: ('A' for Active; 'I' for Inactive)
REMARK    1  A    between atoms: C_1  and  N_2
REMARK    2  A    between atoms: N_2  and  C_3
REMARK    3  A    between atoms: N_2  and  C_17
REMARK    4  A    between atoms: C_3  and  C_4
REMARK    5  A    between atoms: C_4  and  C_5
REMARK    6  A    between atoms: C_7  and  C_8
REMARK                            x       y       z     vdW  Elec       q    Type
REMARK                         _______ _______ _______ _____ _____    ______ ____
ROOT
ATOM      1  C   UNL     1       5.882   5.964  16.244  0.00  0.00    +0.000 A 
ATOM      2  N   UNL     1       5.268   5.196  15.371  0.00  0.00    +0.000 NA
ATOM      3  C   UNL     1       6.278   4.793  14.518  0.00  0.00    +0.000 A 
ATOM      4  N   UNL     1       7.489   5.272  14.848  0.00  0.00    +0.000 NA
ATOM      5  N   UNL     1       7.206   6.018  15.919  0.00  0.00    +0.000 N 
ATOM      6  H   UNL     1       7.936   6.542  16.395  0.00  0.00    +0.000 HD
ENDROOT
BRANCH   3   7
ATOM      7  C   UNL     1       6.032   3.960  13.349  0.00  0.00    +0.000 A 
ATOM      8  C   UNL     1       4.729   3.801  12.853  0.00  0.00    +0.000 A 
ATOM      9  C   UNL     1       4.491   3.033  11.708  0.00  0.00    +0.000 A 
ATOM     10  C   UNL     1       5.555   2.417  11.054  0.00  0.00    +0.000 A 
ATOM     11  C   UNL     1       6.844   2.570  11.552  0.00  0.00    +0.000 A 
ATOM     12  F   UNL     1       7.865   1.975  10.919  0.00  0.00    +0.000 F 
ATOM     13  C   UNL     1       7.093   3.330  12.687  0.00  0.00    +0.000 A 
ENDBRANCH   3   7
BRANCH   1  14
ATOM     14  C   UNL     1       5.294   6.726  17.383  0.00  0.00    +0.000 C 
BRANCH  14  15
ATOM     15  C   UNL     1       3.846   6.301  17.722  0.00  0.00    +0.000 C 
BRANCH  15  17
ATOM     16  C   UNL     1       2.488   6.828  19.675  0.00  0.00    +0.000 C 
ATOM     17  N   UNL     1       3.621   6.037  19.168  0.00  0.00    +0.000 NA
BRANCH  17  18
ATOM     18  C   UNL     1       3.519   4.588  19.464  0.00  0.00    +0.000 C 
ATOM     19  C   UNL     1       2.070   4.158  19.792  0.00  0.00    +0.000 C 
ATOM     20  C   UNL     1       2.051   2.642  19.780  0.00  0.00    +0.000 C 
ATOM     21  S   UNL     1       3.014   2.223  18.346  0.00  0.00    +0.000 S 
ATOM     22  O   UNL     1       2.176   2.382  17.175  0.00  0.00    +0.000 OA
ATOM     23  O   UNL     1       3.750   1.009  18.611  0.00  0.00    +0.000 OA
ATOM     24  C   UNL     1       4.119   3.616  18.430  0.00  0.00    +0.000 C 
ENDBRANCH  17  18
ENDBRANCH  15  17
ENDBRANCH  14  15
ENDBRANCH   1  14
TORSDOF 5
ENDMDL
MODEL 4
REMARK VINA RESULT:      -7.8      1.805      2.303
REMARK  Name = 
REMARK  6 active torsions:
REMARK  status: ('A' for Active; 'I' for Inactive)
REMARK    1  A    between atoms: C_1  and  N_2
REMARK    2  A    between atoms: N_2  and  C_3
REMARK    3  A    between atoms: N_2  and  C_17
REMARK    4  A    between atoms: C_3  and  C_4
REMARK    5  A    between atoms: C_4  and  C_5
REMARK    6  A    between atoms: C_7  and  C_8
REMARK                            x       y       z     vdW  Elec       q    Type
REMARK                         _______ _______ _______ _____ _____    ______ ____
ROOT
ATOM      1  C   UNL     1       6.320   5.397  16.166  0.00  0.00    +0.000 A 
ATOM      2  N   UNL     1       5.693   4.549  15.381  0.00  0.00    +0.000 NA
ATOM      3  C   UNL     1       6.482   4.506  14.247  0.00  0.00    +0.000 A 
ATOM      4  N   UNL     1       7.576   5.281  14.318  0.00  0.00    +0.000 NA
ATOM      5  N   UNL     1       7.437   5.842  15.522  0.00  0.00    +0.000 N 
ATOM      6  H   UNL     1       8.118   6.517  15.862  0.00  0.00    +0.000 HD
ENDROOT
BRANCH   3   7
ATOM      7  C   UNL     1       6.126   3.719  13.074  0.00  0.00    +0.000 A 
ATOM      8  C   UNL     1       7.095   2.944  12.419  0.00  0.00    +0.000 A 
ATOM      9  C   UNL     1       6.751   2.156  11.315  0.00  0.00    +0.000 A 
ATOM     10  C   UNL     1       5.436   2.142  10.858  0.00  0.00    +0.000 A 
ATOM     11  C   UNL     1       4.479   2.917  11.504  0.00  0.00    +0.000 A 
ATOM     12  F   UNL     1       3.214   2.899  11.060  0.00  0.00    +0.000 F 
ATOM     13  C   UNL     1       4.808   3.702  12.600  0.00  0.00    +0.000 A 
ENDBRANCH   3   7
BRANCH   1  14
ATOM     14  C   UNL     1       5.914   5.883  17.517  0.00  0.00    +0.000 C 
BRANCH  14  15
ATOM     15  C   UNL     1       4.420   6.271  17.604  0.00  0.00    +0.000 C 
BRANCH  15  17
ATOM     16  C   UNL     1       2.803   6.631  19.391  0.00  0.00    +0.000 C 
ATOM     17  N   UNL     1       3.708   5.658  18.757  0.00  0.00    +0.000 NA
BRANCH  17  18
ATOM     18  C   UNL     1       3.052   4.379  18.394  0.00  0.00    +0.000 C 
ATOM     19  C   UNL     1       3.769   3.157  19.015  0.00  0.00    +0.000 C 
ATOM     20  C   UNL     1       2.849   1.967  18.820  0.00  0.00    +0.000 C 
ATOM     21  S   UNL     1       1.242   2.610  19.224  0.00  0.00    +0.000 S 
ATOM     22  O   UNL     1       1.118   2.646  20.666  0.00  0.00    +0.000 OA
ATOM     23  O   UNL     1       0.257   1.977  18.378  0.00  0.00    +0.000 OA
ATOM     24  C   UNL     1       1.538   4.268  18.650  0.00  0.00    +0.000 C 
ENDBRANCH  17  18
ENDBRANCH  15  17
ENDBRANCH  14  15
ENDBRANCH   1  14
TORSDOF 5
ENDMDL
MODEL 5
REMARK VINA RESULT:      -7.7      4.977      8.918
REMARK  Name = 
REMARK  6 active torsions:
REMARK  status: ('A' for Active; 'I' for Inactive)
REMARK    1  A    between atoms: C_1  and  N_2
REMARK    2  A    between atoms: N_2  and  C_3
REMARK    3  A    between atoms: N_2  and  C_17
REMARK    4  A    between atoms: C_3  and  C_4
REMARK    5  A    between atoms: C_4  and  C_5
REMARK    6  A    between atoms: C_7  and  C_8
REMARK                            x       y       z     vdW  Elec       q    Type
REMARK                         _______ _______ _______ _____ _____    ______ ____
ROOT
ATOM      1  C   UNL     1       2.327   8.074  18.487  0.00  0.00    +0.000 A 
ATOM      2  N   UNL     1       1.778   8.128  19.680  0.00  0.00    +0.000 NA
ATOM      3  C   UNL     1       1.055   9.306  19.658  0.00  0.00    +0.000 A 
ATOM      4  N   UNL     1       1.127   9.964  18.490  0.00  0.00    +0.000 NA
ATOM      5  N   UNL     1       1.947   9.180  17.784  0.00  0.00    +0.000 N 
ATOM      6  H   UNL     1       2.220   9.432  16.837  0.00  0.00    +0.000 HD
ENDROOT
BRANCH   3   7
ATOM      7  C   UNL     1       0.320   9.797  20.817  0.00  0.00    +0.000 A 
ATOM      8  C   UNL     1       0.402   9.125  22.045  0.00  0.00    +0.000 A 
ATOM      9  C   UNL     1      -0.270   9.613  23.171  0.00  0.00    +0.000 A 
ATOM     10  C   UNL     1      -1.032  10.775  23.072  0.00  0.00    +0.000 A 
ATOM     11  C   UNL     1      -1.118  11.434  21.851  0.00  0.00    +0.000 A 
ATOM     12  F   UNL     1      -1.852  12.553  21.761  0.00  0.00    +0.000 F 
ATOM     13  C   UNL     1      -0.455  10.960  20.727  0.00  0.00    +0.000 A 
ENDBRANCH   3   7
BRANCH   1  14
ATOM     14  C   UNL     1       3.261   7.047  17.942  0.00  0.00    +0.000 C 
BRANCH  14  15
ATOM     15  C   UNL     1       2.700   5.608  18.017  0.00  0.00    +0.000 C 
BRANCH  15  17
ATOM     16  C   UNL     1       2.657   3.659  19.478  0.00  0.00    +0.000 C 
ATOM     17  N   UNL     1       3.508   4.693  18.867  0.00  0.00    +0.000 NA
BRANCH  17  18
ATOM     18  C   UNL     1       4.685   4.153  18.146  0.00  0.00    +0.000 C 
ATOM     19  C   UNL     1       4.461   4.101  16.616  0.00  0.00    +0.000 C 
ATOM     20  C   UNL     1       5.812   3.820  15.987  0.00  0.00    +0.000 C 
ATOM     21  S   UNL     1       6.922   4.873  16.891  0.00  0.00    +0.000 S 
ATOM     22  O   UNL     1       6.801   6.217  16.365  0.00  0.00    +0.000 OA
ATOM     23  O   UNL     1       8.196   4.206  17.027  0.00  0.00    +0.000 OA
ATOM     24  C   UNL     1       6.049   4.803  18.441  0.00  0.00    +0.000 C 
ENDBRANCH  17  18
ENDBRANCH  15  17
ENDBRANCH  14  15
ENDBRANCH   1  14
TORSDOF 5
ENDMDL
MODEL 6
REMARK VINA RESULT:      -7.7      5.312      6.519
REMARK  Name = 
REMARK  6 active torsions:
REMARK  status: ('A' for Active; 'I' for Inactive)
REMARK    1  A    between atoms: C_1  and  N_2
REMARK    2  A    between atoms: N_2  and  C_3
REMARK    3  A    between atoms: N_2  and  C_17
REMARK    4  A    between atoms: C_3  and  C_4
REMARK    5  A    between atoms: C_4  and  C_5
REMARK    6  A    between atoms: C_7  and  C_8
REMARK                            x       y       z     vdW  Elec       q    Type
REMARK                         _______ _______ _______ _____ _____    ______ ____
ROOT
ATOM      1  C   UNL     1       7.824   7.162  18.166  0.00  0.00    +0.000 A 
ATOM      2  N   UNL     1       8.616   7.896  18.916  0.00  0.00    +0.000 NA
ATOM      3  C   UNL     1       8.534   9.154  18.349  0.00  0.00    +0.000 A 
ATOM      4  N   UNL     1       7.706   9.220  17.294  0.00  0.00    +0.000 NA
ATOM      5  N   UNL     1       7.294   7.954  17.189  0.00  0.00    +0.000 N 
ATOM      6  H   UNL     1       6.657   7.674  16.447  0.00  0.00    +0.000 HD
ENDROOT
BRANCH   3   7
ATOM      7  C   UNL     1       9.309  10.287  18.838  0.00  0.00    +0.000 A 
ATOM      8  C   UNL     1       9.345  10.582  20.209  0.00  0.00    +0.000 A 
ATOM      9  C   UNL     1      10.119  11.645  20.689  0.00  0.00    +0.000 A 
ATOM     10  C   UNL     1      10.858  12.420  19.798  0.00  0.00    +0.000 A 
ATOM     11  C   UNL     1      10.814  12.130  18.439  0.00  0.00    +0.000 A 
ATOM     12  F   UNL     1      11.528  12.878  17.586  0.00  0.00    +0.000 F 
ATOM     13  C   UNL     1      10.051  11.078  17.951  0.00  0.00    +0.000 A 
ENDBRANCH   3   7
BRANCH   1  14
ATOM     14  C   UNL     1       7.547   5.700  18.265  0.00  0.00    +0.000 C 
BRANCH  14  15
ATOM     15  C   UNL     1       6.207   5.285  17.616  0.00  0.00    +0.000 C 
BRANCH  15  17
ATOM     16  C   UNL     1       4.222   6.677  17.369  0.00  0.00    +0.000 C 
ATOM     17  N   UNL     1       5.011   5.850  18.297  0.00  0.00    +0.000 NA
BRANCH  17  18
ATOM     18  C   UNL     1       4.218   4.807  18.991  0.00  0.00    +0.000 C 
ATOM     19  C   UNL     1       2.986   5.396  19.718  0.00  0.00    +0.000 C 
ATOM     20  C   UNL     1       2.117   4.221  20.125  0.00  0.00    +0.000 C 
ATOM     21  S   UNL     1       2.138   3.170  18.693  0.00  0.00    +0.000 S 
ATOM     22  O   UNL     1       1.203   3.704  17.724  0.00  0.00    +0.000 OA
ATOM     23  O   UNL     1       2.104   1.791  19.121  0.00  0.00    +0.000 OA
ATOM     24  C   UNL     1       3.786   3.584  18.162  0.00  0.00    +0.000 C 
ENDBRANCH  17  18
ENDBRANCH  15  17
ENDBRANCH  14  15
ENDBRANCH   1  14
TORSDOF 5
ENDMDL
MODEL 7
REMARK VINA RESULT:      -7.7      1.438      1.893
REMARK  Name = 
REMARK  6 active torsions:
REMARK  status: ('A' for Active; 'I' for Inactive)
REMARK    1  A    between atoms: C_1  and  N_2
REMARK    2  A    between atoms: N_2  and  C_3
REMARK    3  A    between atoms: N_2  and  C_17
REMARK    4  A    between atoms: C_3  and  C_4
REMARK    5  A    between atoms: C_4  and  C_5
REMARK    6  A    between atoms: C_7  and  C_8
REMARK                            x       y       z     vdW  Elec       q    Type
REMARK                         _______ _______ _______ _____ _____    ______ ____
ROOT
ATOM      1  C   UNL     1       5.862   6.001  16.183  0.00  0.00    +0.000 A 
ATOM      2  N   UNL     1       5.236   5.263  15.293  0.00  0.00    +0.000 NA
ATOM      3  C   UNL     1       6.253   4.779  14.492  0.00  0.00    +0.000 A 
ATOM      4  N   UNL     1       7.478   5.178  14.870  0.00  0.00    +0.000 NA
ATOM      5  N   UNL     1       7.200   5.959  15.918  0.00  0.00    +0.000 N 
ATOM      6  H   UNL     1       7.943   6.440  16.419  0.00  0.00    +0.000 HD
ENDROOT
BRANCH   3   7
ATOM      7  C   UNL     1       6.001   3.945  13.323  0.00  0.00    +0.000 A 
ATOM      8  C   UNL     1       4.701   3.810  12.816  0.00  0.00    +0.000 A 
ATOM      9  C   UNL     1       4.458   3.042  11.671  0.00  0.00    +0.000 A 
ATOM     10  C   UNL     1       5.517   2.403  11.031  0.00  0.00    +0.000 A 
ATOM     11  C   UNL     1       6.804   2.532  11.541  0.00  0.00    +0.000 A 
ATOM     12  F   UNL     1       7.819   1.914  10.920  0.00  0.00    +0.000 F 
ATOM     13  C   UNL     1       7.056   3.291  12.675  0.00  0.00    +0.000 A 
ENDBRANCH   3   7
BRANCH   1  14
ATOM     14  C   UNL     1       5.278   6.819  17.284  0.00  0.00    +0.000 C 
BRANCH  14  15
ATOM     15  C   UNL     1       4.607   5.970  18.389  0.00  0.00    +0.000 C 
BRANCH  15  17
ATOM     16  C   UNL     1       2.835   7.592  17.983  0.00  0.00    +0.000 C 
ATOM     17  N   UNL     1       3.325   6.538  18.886  0.00  0.00    +0.000 NA
BRANCH  17  18
ATOM     18  C   UNL     1       2.323   5.485  19.177  0.00  0.00    +0.000 C 
ATOM     19  C   UNL     1       2.039   4.591  17.947  0.00  0.00    +0.000 C 
ATOM     20  C   UNL     1       1.245   3.400  18.449  0.00  0.00    +0.000 C 
ATOM     21  S   UNL     1       2.071   2.950  19.956  0.00  0.00    +0.000 S 
ATOM     22  O   UNL     1       3.257   2.192  19.614  0.00  0.00    +0.000 OA
ATOM     23  O   UNL     1       1.093   2.470  20.904  0.00  0.00    +0.000 OA
ATOM     24  C   UNL     1       2.576   4.596  20.409  0.00  0.00    +0.000 C 
ENDBRANCH  17  18
ENDBRANCH  15  17
ENDBRANCH  14  15
ENDBRANCH   1  14
TORSDOF 5
ENDMDL
MODEL 8
REMARK VINA RESULT:      -7.7      4.843      6.139
REMARK  Name = 
REMARK  6 active torsions:
REMARK  status: ('A' for Active; 'I' for Inactive)
REMARK    1  A    between atoms: C_1  and  N_2
REMARK    2  A    between atoms: N_2  and  C_3
REMARK    3  A    between atoms: N_2  and  C_17
REMARK    4  A    between atoms: C_3  and  C_4
REMARK    5  A    between atoms: C_4  and  C_5
REMARK    6  A    between atoms: C_7  and  C_8
REMARK                            x       y       z     vdW  Elec       q    Type
REMARK                         _______ _______ _______ _____ _____    ______ ____
ROOT
ATOM      1  C   UNL     1       7.606   6.585  17.949  0.00  0.00    +0.000 A 
ATOM      2  N   UNL     1       8.345   7.423  18.641  0.00  0.00    +0.000 NA
ATOM      3  C   UNL     1       8.071   8.652  18.072  0.00  0.00    +0.000 A 
ATOM      4  N   UNL     1       7.178   8.598  17.070  0.00  0.00    +0.000 NA
ATOM      5  N   UNL     1       6.921   7.289  17.002  0.00  0.00    +0.000 N 
ATOM      6  H   UNL     1       6.280   6.921  16.304  0.00  0.00    +0.000 HD
ENDROOT
BRANCH   3   7
ATOM      7  C   UNL     1       8.728   9.879  18.501  0.00  0.00    +0.000 A 
ATOM      8  C   UNL     1       9.324   9.958  19.768  0.00  0.00    +0.000 A 
ATOM      9  C   UNL     1       9.990  11.121  20.172  0.00  0.00    +0.000 A 
ATOM     10  C   UNL     1      10.060  12.213  19.310  0.00  0.00    +0.000 A 
ATOM     11  C   UNL     1       9.461  12.135  18.058  0.00  0.00    +0.000 A 
ATOM     12  F   UNL     1       9.531  13.188  17.232  0.00  0.00    +0.000 F 
ATOM     13  C   UNL     1       8.798  10.986  17.646  0.00  0.00    +0.000 A 
ENDBRANCH   3   7
BRANCH   1  14
ATOM     14  C   UNL     1       7.520   5.101  18.077  0.00  0.00    +0.000 C 
BRANCH  14  15
ATOM     15  C   UNL     1       6.102   4.598  18.433  0.00  0.00    +0.000 C 
BRANCH  15  17
ATOM     16  C   UNL     1       5.548   3.985  16.141  0.00  0.00    +0.000 C 
ATOM     17  N   UNL     1       5.118   4.744  17.327  0.00  0.00    +0.000 NA
BRANCH  17  18
ATOM     18  C   UNL     1       3.735   4.440  17.765  0.00  0.00    +0.000 C 
ATOM     19  C   UNL     1       3.394   2.938  17.624  0.00  0.00    +0.000 C 
ATOM     20  C   UNL     1       2.090   2.716  18.366  0.00  0.00    +0.000 C 
ATOM     21  S   UNL     1       2.297   3.650  19.863  0.00  0.00    +0.000 S 
ATOM     22  O   UNL     1       3.110   2.872  20.775  0.00  0.00    +0.000 OA
ATOM     23  O   UNL     1       1.022   4.209  20.249  0.00  0.00    +0.000 OA
ATOM     24  C   UNL     1       3.317   4.930  19.163  0.00  0.00    +0.000 C 
ENDBRANCH  17  18
ENDBRANCH  15  17
ENDBRANCH  14  15
ENDBRANCH   1  14
TORSDOF 5
ENDMDL
MODEL 9
REMARK VINA RESULT:      -7.6      5.497      6.726
REMARK  Name = 
REMARK  6 active torsions:
REMARK  status: ('A' for Active; 'I' for Inactive)
REMARK    1  A    between atoms: C_1  and  N_2
REMARK    2  A    between atoms: N_2  and  C_3
REMARK    3  A    between atoms: N_2  and  C_17
REMARK    4  A    between atoms: C_3  and  C_4
REMARK    5  A    between atoms: C_4  and  C_5
REMARK    6  A    between atoms: C_7  and  C_8
REMARK                            x       y       z     vdW  Elec       q    Type
REMARK                         _______ _______ _______ _____ _____    ______ ____
ROOT
ATOM      1  C   UNL     1       7.904   7.216  18.301  0.00  0.00    +0.000 A 
ATOM      2  N   UNL     1       8.668   7.988  19.042  0.00  0.00    +0.000 NA
ATOM      3  C   UNL     1       8.613   9.214  18.406  0.00  0.00    +0.000 A 
ATOM      4  N   UNL     1       7.830   9.224  17.315  0.00  0.00    +0.000 NA
ATOM      5  N   UNL     1       7.417   7.954  17.263  0.00  0.00    +0.000 N 
ATOM      6  H   UNL     1       6.811   7.636  16.510  0.00  0.00    +0.000 HD
ENDROOT
BRANCH   3   7
ATOM      7  C   UNL     1       9.372  10.370  18.864  0.00  0.00    +0.000 A 
ATOM      8  C   UNL     1      10.103  11.145  17.951  0.00  0.00    +0.000 A 
ATOM      9  C   UNL     1      10.803  12.279  18.379  0.00  0.00    +0.000 A 
ATOM     10  C   UNL     1      10.777  12.642  19.723  0.00  0.00    +0.000 A 
ATOM     11  C   UNL     1      10.058  11.867  20.627  0.00  0.00    +0.000 A 
ATOM     12  F   UNL     1      10.036  12.221  21.920  0.00  0.00    +0.000 F 
ATOM     13  C   UNL     1       9.360  10.741  20.215  0.00  0.00    +0.000 A 
ENDBRANCH   3   7
BRANCH   1  14
ATOM     14  C   UNL     1       7.618   5.762  18.468  0.00  0.00    +0.000 C 
BRANCH  14  15
ATOM     15  C   UNL     1       6.723   5.181  17.348  0.00  0.00    +0.000 C 
BRANCH  15  17
ATOM     16  C   UNL     1       5.102   6.314  15.926  0.00  0.00    +0.000 C 
ATOM     17  N   UNL     1       5.373   5.801  17.279  0.00  0.00    +0.000 NA
BRANCH  17  18
ATOM     18  C   UNL     1       4.317   4.901  17.801  0.00  0.00    +0.000 C 
ATOM     19  C   UNL     1       4.384   3.491  17.167  0.00  0.00    +0.000 C 
ATOM     20  C   UNL     1       3.465   2.602  17.984  0.00  0.00    +0.000 C 
ATOM     21  S   UNL     1       3.825   3.060  19.662  0.00  0.00    +0.000 S 
ATOM     22  O   UNL     1       5.050   2.398  20.061  0.00  0.00    +0.000 OA
ATOM     23  O   UNL     1       2.611   2.978  20.442  0.00  0.00    +0.000 OA
ATOM     24  C   UNL     1       4.199   4.769  19.330  0.00  0.00    +0.000 C 
ENDBRANCH  17  18
ENDBRANCH  15  17
ENDBRANCH  14  15
ENDBRANCH   1  14
TORSDOF 5
ENDMDL
