MODEL 1
REMARK VINA RESULT:      -7.4      0.000      0.000
REMARK  Name = 
REMARK  7 active torsions:
REMARK  status: ('A' for Active; 'I' for Inactive)
REMARK    1  A    between atoms: C_1  and  O_2
REMARK    2  A    between atoms: O_2  and  C_3
REMARK    3  A    between atoms: C_5  and  C_6
REMARK    4  A    between atoms: N_7  and  N_8
REMARK    5  A    between atoms: C_16  and  O_17
REMARK    6  A    between atoms: O_17  and  C_18
REMARK    7  A    between atoms: C_18  and  C_19
REMARK                            x       y       z     vdW  Elec       q    Type
REMARK                         _______ _______ _______ _____ _____    ______ ____
ROOT
ATOM      1  C   UNL     1       3.300   6.275  18.897  0.00  0.00    +0.000 A 
ATOM      2  C   UNL     1       3.963   6.363  17.667  0.00  0.00    +0.000 A 
ATOM      3  C   UNL     1       4.815   5.339  17.253  0.00  0.00    +0.000 A 
ATOM      4  C   UNL     1       5.015   4.223  18.070  0.00  0.00    +0.000 A 
ATOM      5  C   UNL     1       4.283   4.084  19.255  0.00  0.00    +0.000 A 
ATOM      6  C   UNL     1       3.401   5.091  19.649  0.00  0.00    +0.000 A 
ENDROOT
BRANCH   1   8
ATOM      7  C   UNL     1       2.148   8.255  18.401  0.00  0.00    +0.000 C 
ATOM      8  O   UNL     1       2.529   7.295  19.391  0.00  0.00    +0.000 OA
ENDBRANCH   1   8
BRANCH   3   9
ATOM      9  C   UNL     1       5.467   5.387  15.926  0.00  0.00    +0.000 C 
ATOM     10  N   UNL     1       6.158   4.397  15.457  0.00  0.00    +0.000 NA
BRANCH  10  11
ATOM     11  N   UNL     1       6.786   4.638  14.261  0.00  0.00    +0.000 N 
ATOM     12  N   UNL     1       7.758   5.558  14.075  0.00  0.00    +0.000 NA
ATOM     13  N   UNL     1       8.126   5.452  12.808  0.00  0.00    +0.000 NA
ATOM     14  N   UNL     1       7.408   4.483  12.158  0.00  0.00    +0.000 NA
ATOM     15  C   UNL     1       6.580   3.978  13.044  0.00  0.00    +0.000 A 
ATOM     16  N   UNL     1       5.669   2.993  12.858  0.00  0.00    +0.000 N 
ATOM     17  H   UNL     1       5.442   2.745  11.900  0.00  0.00    +0.000 HD
ATOM     18  H   UNL     1       4.904   2.894  13.518  0.00  0.00    +0.000 HD
ENDBRANCH  10  11
ENDBRANCH   3   9
BRANCH   6  19
ATOM     19  O   UNL     1       2.481   4.934  20.725  0.00  0.00    +0.000 OA
BRANCH  19  20
ATOM     20  C   UNL     1       1.923   3.719  21.129  0.00  0.00    +0.000 C 
ATOM     21  C   UNL     1       0.867   3.287  20.151  0.00  0.00    +0.000 C 
ATOM     22  O   UNL     1       2.213   3.091  22.134  0.00  0.00    +0.000 OA
ENDBRANCH  19  20
ENDBRANCH   6  19
TORSDOF 5
ENDMDL
MODEL 2
REMARK VINA RESULT:      -7.4      1.084      2.297
REMARK  Name = 
REMARK  7 active torsions:
REMARK  status: ('A' for Active; 'I' for Inactive)
REMARK    1  A    between atoms: C_1  and  O_2
REMARK    2  A    between atoms: O_2  and  C_3
REMARK    3  A    between atoms: C_5  and  C_6
REMARK    4  A    between atoms: N_7  and  N_8
REMARK    5  A    between atoms: C_16  and  O_17
REMARK    6  A    between atoms: O_17  and  C_18
REMARK    7  A    between atoms: C_18  and  C_19
REMARK                            x       y       z     vdW  Elec       q    Type
REMARK                         _______ _______ _______ _____ _____    ______ ____
ROOT
ATOM      1  C   UNL     1       3.994   3.543  18.806  0.00  0.00    +0.000 A 
ATOM      2  C   UNL     1       4.648   3.692  17.577  0.00  0.00    +0.000 A 
ATOM      3  C   UNL     1       4.579   4.903  16.888  0.00  0.00    +0.000 A 
ATOM      4  C   UNL     1       3.850   5.969  17.420  0.00  0.00    +0.000 A 
ATOM      5  C   UNL     1       3.276   5.859  18.691  0.00  0.00    +0.000 A 
ATOM      6  C   UNL     1       3.378   4.660  19.397  0.00  0.00    +0.000 A 
ENDROOT
BRANCH   1   8
ATOM      7  C   UNL     1       3.655   1.230  18.633  0.00  0.00    +0.000 C 
ATOM      8  O   UNL     1       3.952   2.347  19.476  0.00  0.00    +0.000 OA
ENDBRANCH   1   8
BRANCH   3   9
ATOM      9  C   UNL     1       5.322   5.095  15.623  0.00  0.00    +0.000 C 
ATOM     10  N   UNL     1       6.034   4.154  15.088  0.00  0.00    +0.000 NA
BRANCH  10  11
ATOM     11  N   UNL     1       6.746   4.523  13.974  0.00  0.00    +0.000 N 
ATOM     12  N   UNL     1       7.677   5.502  13.946  0.00  0.00    +0.000 NA
ATOM     13  N   UNL     1       8.156   5.518  12.711  0.00  0.00    +0.000 NA
ATOM     14  N   UNL     1       7.550   4.571  11.928  0.00  0.00    +0.000 NA
ATOM     15  C   UNL     1       6.680   3.955  12.696  0.00  0.00    +0.000 A 
ATOM     16  N   UNL     1       5.844   2.945  12.356  0.00  0.00    +0.000 N 
ATOM     17  H   UNL     1       5.712   2.766  11.365  0.00  0.00    +0.000 HD
ATOM     18  H   UNL     1       5.033   2.755  12.936  0.00  0.00    +0.000 HD
ENDBRANCH  10  11
ENDBRANCH   3   9
BRANCH   6  19
ATOM     19  O   UNL     1       2.998   4.535  20.764  0.00  0.00    +0.000 OA
BRANCH  19  20
ATOM     20  C   UNL     1       1.964   3.722  21.235  0.00  0.00    +0.000 C 
ATOM     21  C   UNL     1       0.782   3.805  20.311  0.00  0.00    +0.000 C 
ATOM     22  O   UNL     1       1.981   3.053  22.255  0.00  0.00    +0.000 OA
ENDBRANCH  19  20
ENDBRANCH   6  19
TORSDOF 5
ENDMDL
MODEL 3
REMARK VINA RESULT:      -7.1      4.848      7.420
REMARK  Name = 
REMARK  7 active torsions:
REMARK  status: ('A' for Active; 'I' for Inactive)
REMARK    1  A    between atoms: C_1  and  O_2
REMARK    2  A    between atoms: O_2  and  C_3
REMARK    3  A    between atoms: C_5  and  C_6
REMARK    4  A    between atoms: N_7  and  N_8
REMARK    5  A    between atoms: C_16  and  O_17
REMARK    6  A    between atoms: O_17  and  C_18
REMARK    7  A    between atoms: C_18  and  C_19
REMARK                            x       y       z     vdW  Elec       q    Type
REMARK                         _______ _______ _______ _____ _____    ______ ____
ROOT
ATOM      1  C   UNL     1       6.839   5.818  16.584  0.00  0.00    +0.000 A 
ATOM      2  C   UNL     1       6.069   5.503  17.710  0.00  0.00    +0.000 A 
ATOM      3  C   UNL     1       5.106   4.496  17.643  0.00  0.00    +0.000 A 
ATOM      4  C   UNL     1       4.901   3.804  16.447  0.00  0.00    +0.000 A 
ATOM      5  C   UNL     1       5.731   4.047  15.347  0.00  0.00    +0.000 A 
ATOM      6  C   UNL     1       6.721   5.027  15.427  0.00  0.00    +0.000 A 
ENDROOT
BRANCH   1   8
ATOM      7  C   UNL     1       7.633   7.709  17.718  0.00  0.00    +0.000 C 
ATOM      8  O   UNL     1       7.730   6.860  16.571  0.00  0.00    +0.000 OA
ENDBRANCH   1   8
BRANCH   3   9
ATOM      9  C   UNL     1       4.335   4.106  18.844  0.00  0.00    +0.000 C 
ATOM     10  N   UNL     1       3.749   2.955  18.948  0.00  0.00    +0.000 NA
BRANCH  10  11
ATOM     11  N   UNL     1       2.987   2.789  20.076  0.00  0.00    +0.000 N 
ATOM     12  N   UNL     1       3.483   2.618  21.321  0.00  0.00    +0.000 NA
ATOM     13  N   UNL     1       2.434   2.537  22.126  0.00  0.00    +0.000 NA
ATOM     14  N   UNL     1       1.260   2.645  21.429  0.00  0.00    +0.000 NA
ATOM     15  C   UNL     1       1.590   2.798  20.167  0.00  0.00    +0.000 A 
ATOM     16  N   UNL     1       0.760   2.942  19.107  0.00  0.00    +0.000 N 
ATOM     17  H   UNL     1      -0.218   2.707  19.246  0.00  0.00    +0.000 HD
ATOM     18  H   UNL     1       1.113   2.761  18.171  0.00  0.00    +0.000 HD
ENDBRANCH  10  11
ENDBRANCH   3   9
BRANCH   6  19
ATOM     19  O   UNL     1       7.725   5.193  14.431  0.00  0.00    +0.000 OA
BRANCH  19  20
ATOM     20  C   UNL     1       7.542   4.965  13.065  0.00  0.00    +0.000 C 
ATOM     21  C   UNL     1       8.279   6.003  12.266  0.00  0.00    +0.000 C 
ATOM     22  O   UNL     1       6.868   4.079  12.566  0.00  0.00    +0.000 OA
ENDBRANCH  19  20
ENDBRANCH   6  19
TORSDOF 5
ENDMDL
MODEL 4
REMARK VINA RESULT:      -6.8      4.888      7.552
REMARK  Name = 
REMARK  7 active torsions:
REMARK  status: ('A' for Active; 'I' for Inactive)
REMARK    1  A    between atoms: C_1  and  O_2
REMARK    2  A    between atoms: O_2  and  C_3
REMARK    3  A    between atoms: C_5  and  C_6
REMARK    4  A    between atoms: N_7  and  N_8
REMARK    5  A    between atoms: C_16  and  O_17
REMARK    6  A    between atoms: O_17  and  C_18
REMARK    7  A    between atoms: C_18  and  C_19
REMARK                            x       y       z     vdW  Elec       q    Type
REMARK                         _______ _______ _______ _____ _____    ______ ____
ROOT
ATOM      1  C   UNL     1       6.839   5.705  16.288  0.00  0.00    +0.000 A 
ATOM      2  C   UNL     1       5.959   5.377  17.326  0.00  0.00    +0.000 A 
ATOM      3  C   UNL     1       5.029   4.351  17.161  0.00  0.00    +0.000 A 
ATOM      4  C   UNL     1       4.967   3.652  15.953  0.00  0.00    +0.000 A 
ATOM      5  C   UNL     1       5.905   3.909  14.947  0.00  0.00    +0.000 A 
ATOM      6  C   UNL     1       6.861   4.910  15.129  0.00  0.00    +0.000 A 
ENDROOT
BRANCH   1   8
ATOM      7  C   UNL     1       7.559   7.537  17.561  0.00  0.00    +0.000 C 
ATOM      8  O   UNL     1       7.705   6.765  16.365  0.00  0.00    +0.000 OA
ENDBRANCH   1   8
BRANCH   3   9
ATOM      9  C   UNL     1       4.141   3.949  18.274  0.00  0.00    +0.000 C 
ATOM     10  N   UNL     1       4.390   4.262  19.506  0.00  0.00    +0.000 NA
BRANCH  10  11
ATOM     11  N   UNL     1       3.530   3.725  20.430  0.00  0.00    +0.000 N 
ATOM     12  N   UNL     1       3.611   2.466  20.916  0.00  0.00    +0.000 NA
ATOM     13  N   UNL     1       2.636   2.352  21.804  0.00  0.00    +0.000 NA
ATOM     14  N   UNL     1       1.912   3.511  21.904  0.00  0.00    +0.000 NA
ATOM     15  C   UNL     1       2.455   4.361  21.062  0.00  0.00    +0.000 A 
ATOM     16  N   UNL     1       2.073   5.636  20.812  0.00  0.00    +0.000 N 
ATOM     17  H   UNL     1       1.157   5.920  21.145  0.00  0.00    +0.000 HD
ATOM     18  H   UNL     1       2.373   6.085  19.952  0.00  0.00    +0.000 HD
ENDBRANCH  10  11
ENDBRANCH   3   9
BRANCH   6  19
ATOM     19  O   UNL     1       7.963   5.093  14.245  0.00  0.00    +0.000 OA
BRANCH  19  20
ATOM     20  C   UNL     1       7.856   5.335  12.873  0.00  0.00    +0.000 C 
ATOM     21  C   UNL     1       7.215   4.160  12.192  0.00  0.00    +0.000 C 
ATOM     22  O   UNL     1       8.240   6.333  12.285  0.00  0.00    +0.000 OA
ENDBRANCH  19  20
ENDBRANCH   6  19
TORSDOF 5
ENDMDL
MODEL 5
REMARK VINA RESULT:      -6.8      0.746      1.431
REMARK  Name = 
REMARK  7 active torsions:
REMARK  status: ('A' for Active; 'I' for Inactive)
REMARK    1  A    between atoms: C_1  and  O_2
REMARK    2  A    between atoms: O_2  and  C_3
REMARK    3  A    between atoms: C_5  and  C_6
REMARK    4  A    between atoms: N_7  and  N_8
REMARK    5  A    between atoms: C_16  and  O_17
REMARK    6  A    between atoms: O_17  and  C_18
REMARK    7  A    between atoms: C_18  and  C_19
REMARK                            x       y       z     vdW  Elec       q    Type
REMARK                         _______ _______ _______ _____ _____    ______ ____
ROOT
ATOM      1  C   UNL     1       3.079   5.552  18.912  0.00  0.00    +0.000 A 
ATOM      2  C   UNL     1       3.590   5.574  17.608  0.00  0.00    +0.000 A 
ATOM      3  C   UNL     1       4.495   4.598  17.192  0.00  0.00    +0.000 A 
ATOM      4  C   UNL     1       4.902   3.598  18.079  0.00  0.00    +0.000 A 
ATOM      5  C   UNL     1       4.324   3.514  19.351  0.00  0.00    +0.000 A 
ATOM      6  C   UNL     1       3.388   4.468  19.753  0.00  0.00    +0.000 A 
ENDROOT
BRANCH   1   8
ATOM      7  C   UNL     1       2.409   7.790  18.718  0.00  0.00    +0.000 C 
ATOM      8  O   UNL     1       2.263   6.540  19.398  0.00  0.00    +0.000 OA
ENDBRANCH   1   8
BRANCH   3   9
ATOM      9  C   UNL     1       4.988   4.570  15.797  0.00  0.00    +0.000 C 
ATOM     10  N   UNL     1       5.837   3.684  15.381  0.00  0.00    +0.000 NA
BRANCH  10  11
ATOM     11  N   UNL     1       6.276   3.858  14.092  0.00  0.00    +0.000 N 
ATOM     12  N   UNL     1       5.790   3.199  13.018  0.00  0.00    +0.000 NA
ATOM     13  N   UNL     1       6.440   3.675  11.968  0.00  0.00    +0.000 NA
ATOM     14  N   UNL     1       7.350   4.632  12.336  0.00  0.00    +0.000 NA
ATOM     15  C   UNL     1       7.257   4.750  13.641  0.00  0.00    +0.000 A 
ATOM     16  N   UNL     1       7.965   5.573  14.450  0.00  0.00    +0.000 N 
ATOM     17  H   UNL     1       8.797   6.004  14.060  0.00  0.00    +0.000 HD
ATOM     18  H   UNL     1       8.015   5.371  15.444  0.00  0.00    +0.000 HD
ENDBRANCH  10  11
ENDBRANCH   3   9
BRANCH   6  19
ATOM     19  O   UNL     1       2.615   4.337  20.942  0.00  0.00    +0.000 OA
BRANCH  19  20
ATOM     20  C   UNL     1       1.740   3.283  21.214  0.00  0.00    +0.000 C 
ATOM     21  C   UNL     1       0.803   3.079  20.058  0.00  0.00    +0.000 C 
ATOM     22  O   UNL     1       1.702   2.624  22.240  0.00  0.00    +0.000 OA
ENDBRANCH  19  20
ENDBRANCH   6  19
TORSDOF 5
ENDMDL
MODEL 6
REMARK VINA RESULT:      -6.8      2.149      4.071
REMARK  Name = 
REMARK  7 active torsions:
REMARK  status: ('A' for Active; 'I' for Inactive)
REMARK    1  A    between atoms: C_1  and  O_2
REMARK    2  A    between atoms: O_2  and  C_3
REMARK    3  A    between atoms: C_5  and  C_6
REMARK    4  A    between atoms: N_7  and  N_8
REMARK    5  A    between atoms: C_16  and  O_17
REMARK    6  A    between atoms: O_17  and  C_18
REMARK    7  A    between atoms: C_18  and  C_19
REMARK                            x       y       z     vdW  Elec       q    Type
REMARK                         _______ _______ _______ _____ _____    ______ ____
ROOT
ATOM      1  C   UNL     1       1.977   6.819  19.992  0.00  0.00    +0.000 A 
ATOM      2  C   UNL     1       2.990   6.387  19.128  0.00  0.00    +0.000 A 
ATOM      3  C   UNL     1       3.359   7.167  18.033  0.00  0.00    +0.000 A 
ATOM      4  C   UNL     1       2.710   8.380  17.789  0.00  0.00    +0.000 A 
ATOM      5  C   UNL     1       1.765   8.863  18.701  0.00  0.00    +0.000 A 
ATOM      6  C   UNL     1       1.425   8.100  19.819  0.00  0.00    +0.000 A 
ENDROOT
BRANCH   1   8
ATOM      7  C   UNL     1       1.587   4.641  20.768  0.00  0.00    +0.000 C 
ATOM      8  O   UNL     1       1.514   6.046  21.026  0.00  0.00    +0.000 OA
ENDBRANCH   1   8
BRANCH   3   9
ATOM      9  C   UNL     1       4.475   6.755  17.152  0.00  0.00    +0.000 C 
ATOM     10  N   UNL     1       4.720   5.512  16.881  0.00  0.00    +0.000 NA
BRANCH  10  11
ATOM     11  N   UNL     1       5.852   5.291  16.138  0.00  0.00    +0.000 N 
ATOM     12  N   UNL     1       5.999   5.634  14.839  0.00  0.00    +0.000 NA
ATOM     13  N   UNL     1       7.234   5.291  14.507  0.00  0.00    +0.000 NA
ATOM     14  N   UNL     1       7.897   4.723  15.563  0.00  0.00    +0.000 NA
ATOM     15  C   UNL     1       7.054   4.717  16.570  0.00  0.00    +0.000 A 
ATOM     16  N   UNL     1       7.265   4.248  17.823  0.00  0.00    +0.000 N 
ATOM     17  H   UNL     1       8.075   3.653  17.966  0.00  0.00    +0.000 HD
ATOM     18  H   UNL     1       6.467   4.033  18.414  0.00  0.00    +0.000 HD
ENDBRANCH  10  11
ENDBRANCH   3   9
BRANCH   6  19
ATOM     19  O   UNL     1       0.629   8.607  20.886  0.00  0.00    +0.000 OA
BRANCH  19  20
ATOM     20  C   UNL     1       1.029   9.605  21.778  0.00  0.00    +0.000 C 
ATOM     21  C   UNL     1       0.379  10.910  21.414  0.00  0.00    +0.000 C 
ATOM     22  O   UNL     1       1.808   9.472  22.707  0.00  0.00    +0.000 OA
ENDBRANCH  19  20
ENDBRANCH   6  19
TORSDOF 5
ENDMDL
MODEL 7
REMARK VINA RESULT:      -6.7      1.445      1.957
REMARK  Name = 
REMARK  7 active torsions:
REMARK  status: ('A' for Active; 'I' for Inactive)
REMARK    1  A    between atoms: C_1  and  O_2
REMARK    2  A    between atoms: O_2  and  C_3
REMARK    3  A    between atoms: C_5  and  C_6
REMARK    4  A    between atoms: N_7  and  N_8
REMARK    5  A    between atoms: C_16  and  O_17
REMARK    6  A    between atoms: O_17  and  C_18
REMARK    7  A    between atoms: C_18  and  C_19
REMARK                            x       y       z     vdW  Elec       q    Type
REMARK                         _______ _______ _______ _____ _____    ______ ____
ROOT
ATOM      1  C   UNL     1       2.474   4.332  18.476  0.00  0.00    +0.000 A 
ATOM      2  C   UNL     1       3.170   4.487  17.271  0.00  0.00    +0.000 A 
ATOM      3  C   UNL     1       4.413   5.118  17.254  0.00  0.00    +0.000 A 
ATOM      4  C   UNL     1       4.965   5.606  18.440  0.00  0.00    +0.000 A 
ATOM      5  C   UNL     1       4.322   5.370  19.660  0.00  0.00    +0.000 A 
ATOM      6  C   UNL     1       3.096   4.704  19.681  0.00  0.00    +0.000 A 
ENDROOT
BRANCH   1   8
ATOM      7  C   UNL     1       1.170   2.390  18.331  0.00  0.00    +0.000 C 
ATOM      8  O   UNL     1       1.210   3.806  18.533  0.00  0.00    +0.000 OA
ENDBRANCH   1   8
BRANCH   3   9
ATOM      9  C   UNL     1       5.189   5.225  15.998  0.00  0.00    +0.000 C 
ATOM     10  N   UNL     1       6.067   4.339  15.649  0.00  0.00    +0.000 NA
BRANCH  10  11
ATOM     11  N   UNL     1       6.777   4.637  14.513  0.00  0.00    +0.000 N 
ATOM     12  N   UNL     1       7.793   5.525  14.451  0.00  0.00    +0.000 NA
ATOM     13  N   UNL     1       8.234   5.493  13.203  0.00  0.00    +0.000 NA
ATOM     14  N   UNL     1       7.519   4.604  12.444  0.00  0.00    +0.000 NA
ATOM     15  C   UNL     1       6.620   4.074  13.241  0.00  0.00    +0.000 A 
ATOM     16  N   UNL     1       5.684   3.146  12.930  0.00  0.00    +0.000 N 
ATOM     17  H   UNL     1       5.506   2.977  11.945  0.00  0.00    +0.000 HD
ATOM     18  H   UNL     1       4.876   3.033  13.536  0.00  0.00    +0.000 HD
ENDBRANCH  10  11
ENDBRANCH   3   9
BRANCH   6  19
ATOM     19  O   UNL     1       2.483   4.254  20.886  0.00  0.00    +0.000 OA
BRANCH  19  20
ATOM     20  C   UNL     1       2.584   2.959  21.399  0.00  0.00    +0.000 C 
ATOM     21  C   UNL     1       3.842   2.305  20.902  0.00  0.00    +0.000 C 
ATOM     22  O   UNL     1       1.775   2.405  22.125  0.00  0.00    +0.000 OA
ENDBRANCH  19  20
ENDBRANCH   6  19
TORSDOF 5
ENDMDL
MODEL 8
REMARK VINA RESULT:      -6.7      2.209      2.882
REMARK  Name = 
REMARK  7 active torsions:
REMARK  status: ('A' for Active; 'I' for Inactive)
REMARK    1  A    between atoms: C_1  and  O_2
REMARK    2  A    between atoms: O_2  and  C_3
REMARK    3  A    between atoms: C_5  and  C_6
REMARK    4  A    between atoms: N_7  and  N_8
REMARK    5  A    between atoms: C_16  and  O_17
REMARK    6  A    between atoms: O_17  and  C_18
REMARK    7  A    between atoms: C_18  and  C_19
REMARK                            x       y       z     vdW  Elec       q    Type
REMARK                         _______ _______ _______ _____ _____    ______ ____
ROOT
ATOM      1  C   UNL     1       4.000   2.667  19.504  0.00  0.00    +0.000 A 
ATOM      2  C   UNL     1       4.891   3.268  18.607  0.00  0.00    +0.000 A 
ATOM      3  C   UNL     1       4.502   3.516  17.291  0.00  0.00    +0.000 A 
ATOM      4  C   UNL     1       3.222   3.157  16.861  0.00  0.00    +0.000 A 
ATOM      5  C   UNL     1       2.295   2.645  17.776  0.00  0.00    +0.000 A 
ATOM      6  C   UNL     1       2.673   2.434  19.102  0.00  0.00    +0.000 A 
ENDROOT
BRANCH   1   8
ATOM      7  C   UNL     1       5.177   1.140  20.838  0.00  0.00    +0.000 C 
ATOM      8  O   UNL     1       4.364   2.316  20.778  0.00  0.00    +0.000 OA
ENDBRANCH   1   8
BRANCH   3   9
ATOM      9  C   UNL     1       5.410   4.214  16.353  0.00  0.00    +0.000 C 
ATOM     10  N   UNL     1       5.627   3.783  15.151  0.00  0.00    +0.000 NA
BRANCH  10  11
ATOM     11  N   UNL     1       6.575   4.480  14.444  0.00  0.00    +0.000 N 
ATOM     12  N   UNL     1       7.417   5.392  14.979  0.00  0.00    +0.000 NA
ATOM     13  N   UNL     1       8.193   5.800  13.988  0.00  0.00    +0.000 NA
ATOM     14  N   UNL     1       7.871   5.177  12.811  0.00  0.00    +0.000 NA
ATOM     15  C   UNL     1       6.875   4.364  13.082  0.00  0.00    +0.000 A 
ATOM     16  N   UNL     1       6.222   3.542  12.227  0.00  0.00    +0.000 N 
ATOM     17  H   UNL     1       6.360   3.700  11.234  0.00  0.00    +0.000 HD
ATOM     18  H   UNL     1       5.303   3.191  12.480  0.00  0.00    +0.000 HD
ENDBRANCH  10  11
ENDBRANCH   3   9
BRANCH   6  19
ATOM     19  O   UNL     1       1.739   2.108  20.128  0.00  0.00    +0.000 OA
BRANCH  19  20
ATOM     20  C   UNL     1       1.312   2.984  21.128  0.00  0.00    +0.000 C 
ATOM     21  C   UNL     1       1.101   4.357  20.554  0.00  0.00    +0.000 C 
ATOM     22  O   UNL     1       1.149   2.711  22.305  0.00  0.00    +0.000 OA
ENDBRANCH  19  20
ENDBRANCH   6  19
TORSDOF 5
ENDMDL
MODEL 9
REMARK VINA RESULT:      -6.7      3.248      4.791
REMARK  Name = 
REMARK  7 active torsions:
REMARK  status: ('A' for Active; 'I' for Inactive)
REMARK    1  A    between atoms: C_1  and  O_2
REMARK    2  A    between atoms: O_2  and  C_3
REMARK    3  A    between atoms: C_5  and  C_6
REMARK    4  A    between atoms: N_7  and  N_8
REMARK    5  A    between atoms: C_16  and  O_17
REMARK    6  A    between atoms: O_17  and  C_18
REMARK    7  A    between atoms: C_18  and  C_19
REMARK                            x       y       z     vdW  Elec       q    Type
REMARK                         _______ _______ _______ _____ _____    ______ ____
ROOT
ATOM      1  C   UNL     1       0.889   9.676  19.524  0.00  0.00    +0.000 A 
ATOM      2  C   UNL     1       1.697   9.115  18.527  0.00  0.00    +0.000 A 
ATOM      3  C   UNL     1       2.344   7.899  18.749  0.00  0.00    +0.000 A 
ATOM      4  C   UNL     1       2.193   7.241  19.972  0.00  0.00    +0.000 A 
ATOM      5  C   UNL     1       1.313   7.747  20.935  0.00  0.00    +0.000 A 
ATOM      6  C   UNL     1       0.635   8.943  20.696  0.00  0.00    +0.000 A 
ENDROOT
BRANCH   1   8
ATOM      7  C   UNL     1       1.192  11.993  19.704  0.00  0.00    +0.000 C 
ATOM      8  O   UNL     1       0.309  10.911  19.391  0.00  0.00    +0.000 OA
ENDBRANCH   1   8
BRANCH   3   9
ATOM      9  C   UNL     1       3.144   7.262  17.680  0.00  0.00    +0.000 C 
ATOM     10  N   UNL     1       3.926   6.254  17.907  0.00  0.00    +0.000 NA
BRANCH  10  11
ATOM     11  N   UNL     1       4.679   5.847  16.835  0.00  0.00    +0.000 N 
ATOM     12  N   UNL     1       5.166   6.670  15.880  0.00  0.00    +0.000 NA
ATOM     13  N   UNL     1       5.865   5.904  15.057  0.00  0.00    +0.000 NA
ATOM     14  N   UNL     1       5.838   4.592  15.451  0.00  0.00    +0.000 NA
ATOM     15  C   UNL     1       5.110   4.548  16.543  0.00  0.00    +0.000 A 
ATOM     16  N   UNL     1       4.801   3.459  17.287  0.00  0.00    +0.000 N 
ATOM     17  H   UNL     1       4.966   2.549  16.870  0.00  0.00    +0.000 HD
ATOM     18  H   UNL     1       4.009   3.501  17.923  0.00  0.00    +0.000 HD
ENDBRANCH  10  11
ENDBRANCH   3   9
BRANCH   6  19
ATOM     19  O   UNL     1      -0.418   9.414  21.532  0.00  0.00    +0.000 OA
BRANCH  19  20
ATOM     20  C   UNL     1      -0.238  10.037  22.769  0.00  0.00    +0.000 C 
ATOM     21  C   UNL     1      -1.108  11.259  22.861  0.00  0.00    +0.000 C 
ATOM     22  O   UNL     1       0.522   9.679  23.654  0.00  0.00    +0.000 OA
ENDBRANCH  19  20
ENDBRANCH   6  19
TORSDOF 5
ENDMDL
