MODEL 1
REMARK VINA RESULT:      -7.5      0.000      0.000
REMARK  Name = 
REMARK  8 active torsions:
REMARK  status: ('A' for Active; 'I' for Inactive)
REMARK    1  A    between atoms: C_1  and  C_2
REMARK    2  A    between atoms: C_2  and  C_3
REMARK    3  A    between atoms: N_9  and  C_10
REMARK    4  A    between atoms: C_10  and  C_11
REMARK    5  A    between atoms: C_12  and  C_13
REMARK    6  A    between atoms: C_12  and  C_14
REMARK    7  A    between atoms: C_15  and  C_16
REMARK    8  A    between atoms: C_16  and  O_18
REMARK                            x       y       z     vdW  Elec       q    Type
REMARK                         _______ _______ _______ _____ _____    ______ ____
ROOT
ATOM      1  C   UNL     1       6.756   4.013  13.353  0.00  0.00    +0.000 A 
ATOM      2  N   UNL     1       6.025   3.683  14.390  0.00  0.00    +0.000 NA
ATOM      3  C   UNL     1       6.284   4.697  15.278  0.00  0.00    +0.000 A 
ATOM      4  N   UNL     1       5.665   4.707  16.480  0.00  0.00    +0.000 N 
ATOM      5  C   UNL     1       5.857   5.825  17.407  0.00  0.00    +0.000 C 
ATOM      6  C   UNL     1       4.497   6.468  17.780  0.00  0.00    +0.000 C 
ATOM      7  N   UNL     1       3.453   5.517  18.282  0.00  0.00    +0.000 NA
ATOM      8  C   UNL     1       3.311   4.471  17.187  0.00  0.00    +0.000 C 
ATOM      9  C   UNL     1       4.617   3.731  16.816  0.00  0.00    +0.000 C 
ATOM     10  N   UNL     1       7.153   5.608  14.811  0.00  0.00    +0.000 NA
ATOM     11  O   UNL     1       7.462   5.160  13.534  0.00  0.00    +0.000 OA
ENDROOT
BRANCH   1  13
ATOM     12  C   UNL     1       5.602   2.620  11.671  0.00  0.00    +0.000 C 
ATOM     13  C   UNL     1       6.883   3.354  12.035  0.00  0.00    +0.000 C 
ENDBRANCH   1  13
BRANCH   8  14
ATOM     14  C   UNL     1       2.182   3.485  17.490  0.00  0.00    +0.000 C 
ATOM     15  O   UNL     1       2.319   2.287  17.664  0.00  0.00    +0.000 OA
BRANCH  14  16
ATOM     16  O   UNL     1       0.962   4.086  17.476  0.00  0.00    +0.000 OA
ATOM     17  H   UNL     1       0.831   4.530  18.346  0.00  0.00    +0.000 HD
ENDBRANCH  14  16
ENDBRANCH   8  14
BRANCH   7  18
ATOM     18  C   UNL     1       3.888   4.912  19.565  0.00  0.00    +0.000 C 
BRANCH  18  19
ATOM     19  C   UNL     1       2.737   4.452  20.420  0.00  0.00    +0.000 C 
ATOM     20  C   UNL     1       2.585   3.242  21.000  0.00  0.00    +0.000 C 
ATOM     21  C   UNL     1       3.565   2.104  20.907  0.00  0.00    +0.000 C 
ATOM     22  C   UNL     1       1.338   2.905  21.780  0.00  0.00    +0.000 C 
ENDBRANCH  18  19
ENDBRANCH   7  18
TORSDOF 5
ENDMDL
MODEL 2
REMARK VINA RESULT:      -7.5      0.800      1.098
REMARK  Name = 
REMARK  8 active torsions:
REMARK  status: ('A' for Active; 'I' for Inactive)
REMARK    1  A    between atoms: C_1  and  C_2
REMARK    2  A    between atoms: C_2  and  C_3
REMARK    3  A    between atoms: N_9  and  C_10
REMARK    4  A    between atoms: C_10  and  C_11
REMARK    5  A    between atoms: C_12  and  C_13
REMARK    6  A    between atoms: C_12  and  C_14
REMARK    7  A    between atoms: C_15  and  C_16
REMARK    8  A    between atoms: C_16  and  O_18
REMARK                            x       y       z     vdW  Elec       q    Type
REMARK                         _______ _______ _______ _____ _____    ______ ____
ROOT
ATOM      1  C   UNL     1       7.045   4.479  13.420  0.00  0.00    +0.000 A 
ATOM      2  N   UNL     1       6.321   3.905  14.351  0.00  0.00    +0.000 NA
ATOM      3  C   UNL     1       6.683   4.591  15.482  0.00  0.00    +0.000 A 
ATOM      4  N   UNL     1       6.102   4.285  16.664  0.00  0.00    +0.000 N 
ATOM      5  C   UNL     1       6.406   5.063  17.868  0.00  0.00    +0.000 C 
ATOM      6  C   UNL     1       5.111   5.656  18.481  0.00  0.00    +0.000 C 
ATOM      7  N   UNL     1       4.011   4.670  18.733  0.00  0.00    +0.000 NA
ATOM      8  C   UNL     1       3.758   4.006  17.389  0.00  0.00    +0.000 C 
ATOM      9  C   UNL     1       4.991   3.325  16.751  0.00  0.00    +0.000 C 
ATOM     10  N   UNL     1       7.606   5.540  15.260  0.00  0.00    +0.000 NA
ATOM     11  O   UNL     1       7.843   5.472  13.894  0.00  0.00    +0.000 OA
ENDROOT
BRANCH   1  13
ATOM     12  C   UNL     1       6.408   2.915  11.618  0.00  0.00    +0.000 C 
ATOM     13  C   UNL     1       7.083   4.232  11.963  0.00  0.00    +0.000 C 
ENDBRANCH   1  13
BRANCH   8  14
ATOM     14  C   UNL     1       2.564   3.051  17.445  0.00  0.00    +0.000 C 
ATOM     15  O   UNL     1       2.632   1.835  17.419  0.00  0.00    +0.000 OA
BRANCH  14  16
ATOM     16  O   UNL     1       1.378   3.716  17.456  0.00  0.00    +0.000 OA
ATOM     17  H   UNL     1       1.313   4.237  16.623  0.00  0.00    +0.000 HD
ENDBRANCH  14  16
ENDBRANCH   8  14
BRANCH   7  18
ATOM     18  C   UNL     1       4.434   3.684  19.758  0.00  0.00    +0.000 C 
BRANCH  18  19
ATOM     19  C   UNL     1       3.274   3.015  20.448  0.00  0.00    +0.000 C 
ATOM     20  C   UNL     1       2.178   3.613  20.962  0.00  0.00    +0.000 C 
ATOM     21  C   UNL     1       1.900   5.092  20.934  0.00  0.00    +0.000 C 
ATOM     22  C   UNL     1       1.122   2.812  21.684  0.00  0.00    +0.000 C 
ENDBRANCH  18  19
ENDBRANCH   7  18
TORSDOF 5
ENDMDL
MODEL 3
REMARK VINA RESULT:      -7.0      2.188      6.950
REMARK  Name = 
REMARK  8 active torsions:
REMARK  status: ('A' for Active; 'I' for Inactive)
REMARK    1  A    between atoms: C_1  and  C_2
REMARK    2  A    between atoms: C_2  and  C_3
REMARK    3  A    between atoms: N_9  and  C_10
REMARK    4  A    between atoms: C_10  and  C_11
REMARK    5  A    between atoms: C_12  and  C_13
REMARK    6  A    between atoms: C_12  and  C_14
REMARK    7  A    between atoms: C_15  and  C_16
REMARK    8  A    between atoms: C_16  and  O_18
REMARK                            x       y       z     vdW  Elec       q    Type
REMARK                         _______ _______ _______ _____ _____    ______ ____
ROOT
ATOM      1  C   UNL     1       1.890   3.817  19.642  0.00  0.00    +0.000 A 
ATOM      2  N   UNL     1       3.168   3.974  19.394  0.00  0.00    +0.000 NA
ATOM      3  C   UNL     1       3.200   4.079  18.027  0.00  0.00    +0.000 A 
ATOM      4  N   UNL     1       4.380   4.284  17.401  0.00  0.00    +0.000 N 
ATOM      5  C   UNL     1       4.429   4.491  15.951  0.00  0.00    +0.000 C 
ATOM      6  C   UNL     1       5.113   5.840  15.610  0.00  0.00    +0.000 C 
ATOM      7  N   UNL     1       6.457   6.053  16.236  0.00  0.00    +0.000 NA
ATOM      8  C   UNL     1       6.230   5.886  17.730  0.00  0.00    +0.000 C 
ATOM      9  C   UNL     1       5.620   4.530  18.153  0.00  0.00    +0.000 C 
ATOM     10  N   UNL     1       1.990   3.978  17.454  0.00  0.00    +0.000 NA
ATOM     11  O   UNL     1       1.120   3.810  18.522  0.00  0.00    +0.000 OA
ENDROOT
BRANCH   1  13
ATOM     12  C   UNL     1       1.730   2.528  21.743  0.00  0.00    +0.000 C 
ATOM     13  C   UNL     1       1.184   3.695  20.936  0.00  0.00    +0.000 C 
ENDBRANCH   1  13
BRANCH   8  14
ATOM     14  C   UNL     1       7.493   6.200  18.533  0.00  0.00    +0.000 C 
ATOM     15  O   UNL     1       8.153   7.221  18.441  0.00  0.00    +0.000 OA
BRANCH  14  16
ATOM     16  O   UNL     1       7.859   5.165  19.336  0.00  0.00    +0.000 OA
ATOM     17  H   UNL     1       7.059   4.860  19.822  0.00  0.00    +0.000 HD
ENDBRANCH  14  16
ENDBRANCH   8  14
BRANCH   7  18
ATOM     18  C   UNL     1       7.427   5.058  15.715  0.00  0.00    +0.000 C 
BRANCH  18  19
ATOM     19  C   UNL     1       6.884   4.254  14.563  0.00  0.00    +0.000 C 
ATOM     20  C   UNL     1       7.144   4.434  13.250  0.00  0.00    +0.000 C 
ATOM     21  C   UNL     1       8.053   5.490  12.680  0.00  0.00    +0.000 C 
ATOM     22  C   UNL     1       6.471   3.583  12.201  0.00  0.00    +0.000 C 
ENDBRANCH  18  19
ENDBRANCH   7  18
TORSDOF 5
ENDMDL
MODEL 4
REMARK VINA RESULT:      -6.6      2.195      7.024
REMARK  Name = 
REMARK  8 active torsions:
REMARK  status: ('A' for Active; 'I' for Inactive)
REMARK    1  A    between atoms: C_1  and  C_2
REMARK    2  A    between atoms: C_2  and  C_3
REMARK    3  A    between atoms: N_9  and  C_10
REMARK    4  A    between atoms: C_10  and  C_11
REMARK    5  A    between atoms: C_12  and  C_13
REMARK    6  A    between atoms: C_12  and  C_14
REMARK    7  A    between atoms: C_15  and  C_16
REMARK    8  A    between atoms: C_16  and  O_18
REMARK                            x       y       z     vdW  Elec       q    Type
REMARK                         _______ _______ _______ _____ _____    ______ ____
ROOT
ATOM      1  C   UNL     1       3.028   2.964  20.272  0.00  0.00    +0.000 A 
ATOM      2  N   UNL     1       4.164   3.422  19.806  0.00  0.00    +0.000 NA
ATOM      3  C   UNL     1       3.938   3.473  18.454  0.00  0.00    +0.000 A 
ATOM      4  N   UNL     1       4.906   3.937  17.631  0.00  0.00    +0.000 N 
ATOM      5  C   UNL     1       4.656   4.086  16.195  0.00  0.00    +0.000 C 
ATOM      6  C   UNL     1       4.909   5.547  15.741  0.00  0.00    +0.000 C 
ATOM      7  N   UNL     1       6.241   6.115  16.124  0.00  0.00    +0.000 NA
ATOM      8  C   UNL     1       6.319   5.963  17.635  0.00  0.00    +0.000 C 
ATOM      9  C   UNL     1       6.152   4.517  18.156  0.00  0.00    +0.000 C 
ATOM     10  N   UNL     1       2.715   3.049  18.099  0.00  0.00    +0.000 NA
ATOM     11  O   UNL     1       2.108   2.717  19.302  0.00  0.00    +0.000 OA
ENDROOT
BRANCH   1  13
ATOM     12  C   UNL     1       1.089   2.668  21.773  0.00  0.00    +0.000 C 
ATOM     13  C   UNL     1       2.604   2.726  21.669  0.00  0.00    +0.000 C 
ENDBRANCH   1  13
BRANCH   8  14
ATOM     14  C   UNL     1       7.578   6.616  18.206  0.00  0.00    +0.000 C 
ATOM     15  O   UNL     1       8.271   6.154  19.095  0.00  0.00    +0.000 OA
BRANCH  14  16
ATOM     16  O   UNL     1       7.816   7.835  17.653  0.00  0.00    +0.000 OA
ATOM     17  H   UNL     1       7.378   8.515  18.215  0.00  0.00    +0.000 HD
ENDBRANCH  14  16
ENDBRANCH   8  14
BRANCH   7  18
ATOM     18  C   UNL     1       7.329   5.370  15.442  0.00  0.00    +0.000 C 
BRANCH  18  19
ATOM     19  C   UNL     1       6.821   4.410  14.398  0.00  0.00    +0.000 C 
ATOM     20  C   UNL     1       7.061   4.449  13.070  0.00  0.00    +0.000 C 
ATOM     21  C   UNL     1       7.908   5.477  12.369  0.00  0.00    +0.000 C 
ATOM     22  C   UNL     1       6.427   3.448  12.136  0.00  0.00    +0.000 C 
ENDBRANCH  18  19
ENDBRANCH   7  18
TORSDOF 5
ENDMDL
MODEL 5
REMARK VINA RESULT:      -6.4      2.810      6.564
REMARK  Name = 
REMARK  8 active torsions:
REMARK  status: ('A' for Active; 'I' for Inactive)
REMARK    1  A    between atoms: C_1  and  C_2
REMARK    2  A    between atoms: C_2  and  C_3
REMARK    3  A    between atoms: N_9  and  C_10
REMARK    4  A    between atoms: C_10  and  C_11
REMARK    5  A    between atoms: C_12  and  C_13
REMARK    6  A    between atoms: C_12  and  C_14
REMARK    7  A    between atoms: C_15  and  C_16
REMARK    8  A    between atoms: C_16  and  O_18
REMARK                            x       y       z     vdW  Elec       q    Type
REMARK                         _______ _______ _______ _____ _____    ______ ____
ROOT
ATOM      1  C   UNL     1       2.780   2.760  18.914  0.00  0.00    +0.000 A 
ATOM      2  N   UNL     1       3.402   3.619  18.142  0.00  0.00    +0.000 NA
ATOM      3  C   UNL     1       4.297   4.205  19.000  0.00  0.00    +0.000 A 
ATOM      4  N   UNL     1       5.152   5.144  18.535  0.00  0.00    +0.000 N 
ATOM      5  C   UNL     1       6.177   5.718  19.410  0.00  0.00    +0.000 C 
ATOM      6  C   UNL     1       7.591   5.515  18.808  0.00  0.00    +0.000 C 
ATOM      7  N   UNL     1       7.759   5.980  17.394  0.00  0.00    +0.000 NA
ATOM      8  C   UNL     1       6.688   5.245  16.604  0.00  0.00    +0.000 C 
ATOM      9  C   UNL     1       5.240   5.464  17.102  0.00  0.00    +0.000 C 
ATOM     10  N   UNL     1       4.221   3.736  20.256  0.00  0.00    +0.000 NA
ATOM     11  O   UNL     1       3.221   2.775  20.200  0.00  0.00    +0.000 OA
ENDROOT
BRANCH   1  13
ATOM     12  C   UNL     1       0.349   2.326  18.913  0.00  0.00    +0.000 C 
ATOM     13  C   UNL     1       1.727   1.776  18.582  0.00  0.00    +0.000 C 
ENDBRANCH   1  13
BRANCH   8  14
ATOM     14  C   UNL     1       6.805   5.516  15.104  0.00  0.00    +0.000 C 
ATOM     15  O   UNL     1       7.836   5.466  14.456  0.00  0.00    +0.000 OA
BRANCH  14  16
ATOM     16  O   UNL     1       5.619   5.900  14.560  0.00  0.00    +0.000 OA
ATOM     17  H   UNL     1       4.943   5.907  15.276  0.00  0.00    +0.000 HD
ENDBRANCH  14  16
ENDBRANCH   8  14
BRANCH   7  18
ATOM     18  C   UNL     1       7.582   7.452  17.317  0.00  0.00    +0.000 C 
BRANCH  18  19
ATOM     19  C   UNL     1       8.398   8.198  18.340  0.00  0.00    +0.000 C 
ATOM     20  C   UNL     1       8.582   9.533  18.420  0.00  0.00    +0.000 C 
ATOM     21  C   UNL     1       7.986  10.550  17.484  0.00  0.00    +0.000 C 
ATOM     22  C   UNL     1       9.485  10.132  19.470  0.00  0.00    +0.000 C 
ENDBRANCH  18  19
ENDBRANCH   7  18
TORSDOF 5
ENDMDL
MODEL 6
REMARK VINA RESULT:      -6.4      2.580      3.547
REMARK  Name = 
REMARK  8 active torsions:
REMARK  status: ('A' for Active; 'I' for Inactive)
REMARK    1  A    between atoms: C_1  and  C_2
REMARK    2  A    between atoms: C_2  and  C_3
REMARK    3  A    between atoms: N_9  and  C_10
REMARK    4  A    between atoms: C_10  and  C_11
REMARK    5  A    between atoms: C_12  and  C_13
REMARK    6  A    between atoms: C_12  and  C_14
REMARK    7  A    between atoms: C_15  and  C_16
REMARK    8  A    between atoms: C_16  and  O_18
REMARK                            x       y       z     vdW  Elec       q    Type
REMARK                         _______ _______ _______ _____ _____    ______ ____
ROOT
ATOM      1  C   UNL     1       7.055   4.688  13.079  0.00  0.00    +0.000 A 
ATOM      2  N   UNL     1       6.976   5.227  14.272  0.00  0.00    +0.000 NA
ATOM      3  C   UNL     1       5.905   4.576  14.829  0.00  0.00    +0.000 A 
ATOM      4  N   UNL     1       5.537   4.859  16.099  0.00  0.00    +0.000 N 
ATOM      5  C   UNL     1       4.454   4.113  16.745  0.00  0.00    +0.000 C 
ATOM      6  C   UNL     1       4.949   3.452  18.057  0.00  0.00    +0.000 C 
ATOM      7  N   UNL     1       5.628   4.374  19.024  0.00  0.00    +0.000 NA
ATOM      8  C   UNL     1       6.764   5.008  18.236  0.00  0.00    +0.000 C 
ATOM      9  C   UNL     1       6.335   5.753  16.951  0.00  0.00    +0.000 C 
ATOM     10  N   UNL     1       5.337   3.680  14.006  0.00  0.00    +0.000 NA
ATOM     11  O   UNL     1       6.100   3.748  12.849  0.00  0.00    +0.000 OA
ENDROOT
BRANCH   1  13
ATOM     12  C   UNL     1       7.902   6.328  11.438  0.00  0.00    +0.000 C 
ATOM     13  C   UNL     1       8.035   4.921  11.997  0.00  0.00    +0.000 C 
ENDBRANCH   1  13
BRANCH   8  14
ATOM     14  C   UNL     1       7.643   5.891  19.123  0.00  0.00    +0.000 C 
ATOM     15  O   UNL     1       8.173   6.933  18.776  0.00  0.00    +0.000 OA
BRANCH  14  16
ATOM     16  O   UNL     1       7.838   5.347  20.353  0.00  0.00    +0.000 OA
ATOM     17  H   UNL     1       7.991   4.381  20.238  0.00  0.00    +0.000 HD
ENDBRANCH  14  16
ENDBRANCH   8  14
BRANCH   7  18
ATOM     18  C   UNL     1       4.668   5.394  19.516  0.00  0.00    +0.000 C 
BRANCH  18  19
ATOM     19  C   UNL     1       3.441   4.791  20.146  0.00  0.00    +0.000 C 
ATOM     20  C   UNL     1       2.177   4.834  19.672  0.00  0.00    +0.000 C 
ATOM     21  C   UNL     1       1.751   5.499  18.391  0.00  0.00    +0.000 C 
ATOM     22  C   UNL     1       1.033   4.235  20.454  0.00  0.00    +0.000 C 
ENDBRANCH  18  19
ENDBRANCH   7  18
TORSDOF 5
ENDMDL
MODEL 7
REMARK VINA RESULT:      -6.3      3.348      7.378
REMARK  Name = 
REMARK  8 active torsions:
REMARK  status: ('A' for Active; 'I' for Inactive)
REMARK    1  A    between atoms: C_1  and  C_2
REMARK    2  A    between atoms: C_2  and  C_3
REMARK    3  A    between atoms: N_9  and  C_10
REMARK    4  A    between atoms: C_10  and  C_11
REMARK    5  A    between atoms: C_12  and  C_13
REMARK    6  A    between atoms: C_12  and  C_14
REMARK    7  A    between atoms: C_15  and  C_16
REMARK    8  A    between atoms: C_16  and  O_18
REMARK                            x       y       z     vdW  Elec       q    Type
REMARK                         _______ _______ _______ _____ _____    ______ ____
ROOT
ATOM      1  C   UNL     1       0.785   8.669  21.329  0.00  0.00    +0.000 A 
ATOM      2  N   UNL     1       1.215   7.535  20.829  0.00  0.00    +0.000 NA
ATOM      3  C   UNL     1       1.794   7.925  19.648  0.00  0.00    +0.000 A 
ATOM      4  N   UNL     1       2.384   7.001  18.857  0.00  0.00    +0.000 N 
ATOM      5  C   UNL     1       3.088   7.405  17.637  0.00  0.00    +0.000 C 
ATOM      6  C   UNL     1       4.560   6.919  17.665  0.00  0.00    +0.000 C 
ATOM      7  N   UNL     1       4.749   5.459  17.944  0.00  0.00    +0.000 NA
ATOM      8  C   UNL     1       4.038   5.213  19.266  0.00  0.00    +0.000 C 
ATOM      9  C   UNL     1       2.543   5.604  19.289  0.00  0.00    +0.000 C 
ATOM     10  N   UNL     1       1.711   9.245  19.422  0.00  0.00    +0.000 NA
ATOM     11  O   UNL     1       1.049   9.741  20.536  0.00  0.00    +0.000 OA
ENDROOT
BRANCH   1  13
ATOM     12  C   UNL     1      -0.495  10.336  22.626  0.00  0.00    +0.000 C 
ATOM     13  C   UNL     1       0.111   8.942  22.617  0.00  0.00    +0.000 C 
ENDBRANCH   1  13
BRANCH   8  14
ATOM     14  C   UNL     1       4.246   3.782  19.762  0.00  0.00    +0.000 C 
ATOM     15  O   UNL     1       3.429   3.125  20.385  0.00  0.00    +0.000 OA
BRANCH  14  16
ATOM     16  O   UNL     1       5.497   3.323  19.492  0.00  0.00    +0.000 OA
ATOM     17  H   UNL     1       5.450   2.343  19.403  0.00  0.00    +0.000 HD
ENDBRANCH  14  16
ENDBRANCH   8  14
BRANCH   7  18
ATOM     18  C   UNL     1       4.160   4.649  16.848  0.00  0.00    +0.000 C 
BRANCH  18  19
ATOM     19  C   UNL     1       4.959   4.714  15.573  0.00  0.00    +0.000 C 
ATOM     20  C   UNL     1       6.300   4.628  15.447  0.00  0.00    +0.000 C 
ATOM     21  C   UNL     1       7.270   4.436  16.582  0.00  0.00    +0.000 C 
ATOM     22  C   UNL     1       6.965   4.775  14.100  0.00  0.00    +0.000 C 
ENDBRANCH  18  19
ENDBRANCH   7  18
TORSDOF 5
ENDMDL
MODEL 8
REMARK VINA RESULT:      -6.2      2.263      7.114
REMARK  Name = 
REMARK  8 active torsions:
REMARK  status: ('A' for Active; 'I' for Inactive)
REMARK    1  A    between atoms: C_1  and  C_2
REMARK    2  A    between atoms: C_2  and  C_3
REMARK    3  A    between atoms: N_9  and  C_10
REMARK    4  A    between atoms: C_10  and  C_11
REMARK    5  A    between atoms: C_12  and  C_13
REMARK    6  A    between atoms: C_12  and  C_14
REMARK    7  A    between atoms: C_15  and  C_16
REMARK    8  A    between atoms: C_16  and  O_18
REMARK                            x       y       z     vdW  Elec       q    Type
REMARK                         _______ _______ _______ _____ _____    ______ ____
ROOT
ATOM      1  C   UNL     1       2.368   3.508  20.558  0.00  0.00    +0.000 A 
ATOM      2  N   UNL     1       3.588   3.698  20.117  0.00  0.00    +0.000 NA
ATOM      3  C   UNL     1       3.409   3.784  18.760  0.00  0.00    +0.000 A 
ATOM      4  N   UNL     1       4.473   4.015  17.958  0.00  0.00    +0.000 N 
ATOM      5  C   UNL     1       4.294   4.200  16.516  0.00  0.00    +0.000 C 
ATOM      6  C   UNL     1       4.875   5.564  16.061  0.00  0.00    +0.000 C 
ATOM      7  N   UNL     1       6.291   5.827  16.472  0.00  0.00    +0.000 NA
ATOM      8  C   UNL     1       6.300   5.676  17.985  0.00  0.00    +0.000 C 
ATOM      9  C   UNL     1       5.805   4.309  18.510  0.00  0.00    +0.000 C 
ATOM     10  N   UNL     1       2.130   3.638  18.379  0.00  0.00    +0.000 NA
ATOM     11  O   UNL     1       1.438   3.461  19.568  0.00  0.00    +0.000 OA
ENDROOT
BRANCH   1  13
ATOM     12  C   UNL     1       1.098   2.088  22.131  0.00  0.00    +0.000 C 
ATOM     13  C   UNL     1       1.872   3.384  21.946  0.00  0.00    +0.000 C 
ENDBRANCH   1  13
BRANCH   8  14
ATOM     14  C   UNL     1       7.660   6.040  18.582  0.00  0.00    +0.000 C 
ATOM     15  O   UNL     1       8.303   5.343  19.348  0.00  0.00    +0.000 OA
BRANCH  14  16
ATOM     16  O   UNL     1       8.060   7.287  18.219  0.00  0.00    +0.000 OA
ATOM     17  H   UNL     1       7.565   7.938  18.767  0.00  0.00    +0.000 HD
ENDBRANCH  14  16
ENDBRANCH   8  14
BRANCH   7  18
ATOM     18  C   UNL     1       7.201   4.853  15.820  0.00  0.00    +0.000 C 
BRANCH  18  19
ATOM     19  C   UNL     1       7.521   5.210  14.392  0.00  0.00    +0.000 C 
ATOM     20  C   UNL     1       7.028   4.630  13.277  0.00  0.00    +0.000 C 
ATOM     21  C   UNL     1       6.036   3.498  13.252  0.00  0.00    +0.000 C 
ATOM     22  C   UNL     1       7.494   5.057  11.907  0.00  0.00    +0.000 C 
ENDBRANCH  18  19
ENDBRANCH   7  18
TORSDOF 5
ENDMDL
MODEL 9
REMARK VINA RESULT:      -6.2      2.102      6.841
REMARK  Name = 
REMARK  8 active torsions:
REMARK  status: ('A' for Active; 'I' for Inactive)
REMARK    1  A    between atoms: C_1  and  C_2
REMARK    2  A    between atoms: C_2  and  C_3
REMARK    3  A    between atoms: N_9  and  C_10
REMARK    4  A    between atoms: C_10  and  C_11
REMARK    5  A    between atoms: C_12  and  C_13
REMARK    6  A    between atoms: C_12  and  C_14
REMARK    7  A    between atoms: C_15  and  C_16
REMARK    8  A    between atoms: C_16  and  O_18
REMARK                            x       y       z     vdW  Elec       q    Type
REMARK                         _______ _______ _______ _____ _____    ______ ____
ROOT
ATOM      1  C   UNL     1       2.004   2.996  19.403  0.00  0.00    +0.000 A 
ATOM      2  N   UNL     1       3.251   3.085  19.006  0.00  0.00    +0.000 NA
ATOM      3  C   UNL     1       3.127   3.565  17.727  0.00  0.00    +0.000 A 
ATOM      4  N   UNL     1       4.237   3.817  16.997  0.00  0.00    +0.000 N 
ATOM      5  C   UNL     1       4.133   4.414  15.663  0.00  0.00    +0.000 C 
ATOM      6  C   UNL     1       4.951   5.729  15.584  0.00  0.00    +0.000 C 
ATOM      7  N   UNL     1       6.380   5.622  16.024  0.00  0.00    +0.000 NA
ATOM      8  C   UNL     1       6.320   5.068  17.438  0.00  0.00    +0.000 C 
ATOM      9  C   UNL     1       5.583   3.716  17.581  0.00  0.00    +0.000 C 
ATOM     10  N   UNL     1       1.853   3.751  17.345  0.00  0.00    +0.000 NA
ATOM     11  O   UNL     1       1.108   3.380  18.456  0.00  0.00    +0.000 OA
ENDROOT
BRANCH   1  13
ATOM     12  C   UNL     1       2.086   3.392  21.840  0.00  0.00    +0.000 C 
ATOM     13  C   UNL     1       1.455   2.588  20.714  0.00  0.00    +0.000 C 
ENDBRANCH   1  13
BRANCH   8  14
ATOM     14  C   UNL     1       7.705   5.016  18.085  0.00  0.00    +0.000 C 
ATOM     15  O   UNL     1       8.498   4.097  17.981  0.00  0.00    +0.000 OA
BRANCH  14  16
ATOM     16  O   UNL     1       7.943   6.100  18.870  0.00  0.00    +0.000 OA
ATOM     17  H   UNL     1       8.901   6.318  18.805  0.00  0.00    +0.000 HD
ENDBRANCH  14  16
ENDBRANCH   8  14
BRANCH   7  18
ATOM     18  C   UNL     1       7.128   4.719  15.114  0.00  0.00    +0.000 C 
BRANCH  18  19
ATOM     19  C   UNL     1       6.236   3.990  14.143  0.00  0.00    +0.000 C 
ATOM     20  C   UNL     1       6.388   3.903  12.804  0.00  0.00    +0.000 C 
ATOM     21  C   UNL     1       7.508   4.525  12.014  0.00  0.00    +0.000 C 
ATOM     22  C   UNL     1       5.370   3.186  11.951  0.00  0.00    +0.000 C 
ENDBRANCH  18  19
ENDBRANCH   7  18
TORSDOF 5
ENDMDL
