MODEL 1
REMARK VINA RESULT:      -6.5      0.000      0.000
REMARK  Name = 
REMARK  6 active torsions:
REMARK  status: ('A' for Active; 'I' for Inactive)
REMARK    1  A    between atoms: C_1  and  C_2
REMARK    2  A    between atoms: C_2  and  C_3
REMARK    3  A    between atoms: N_9  and  C_10
REMARK    4  A    between atoms: C_10  and  C_11
REMARK    5  A    between atoms: C_11  and  O_12
REMARK    6  A    between atoms: C_13  and  C_14
REMARK                            x       y       z     vdW  Elec       q    Type
REMARK                         _______ _______ _______ _____ _____    ______ ____
ROOT
ATOM      1  C   UNL     1       7.943   7.497  17.652  0.00  0.00    +0.000 C 
ATOM      2  C   UNL     1       7.080   6.266  17.954  0.00  0.00    +0.000 C 
ATOM      3  C   UNL     1       7.439   5.886  19.426  0.00  0.00    +0.000 C 
ATOM      4  N   UNL     1       5.621   6.466  18.140  0.00  0.00    +0.000 NA
ATOM      5  C   UNL     1       5.010   5.431  17.658  0.00  0.00    +0.000 A 
ATOM      6  C   UNL     1       5.123   4.996  16.241  0.00  0.00    +0.000 A 
ATOM      7  N   UNL     1       4.204   3.979  15.980  0.00  0.00    +0.000 NA
ATOM      8  C   UNL     1       3.790   3.651  17.170  0.00  0.00    +0.000 A 
ATOM      9  N   UNL     1       4.280   4.396  18.247  0.00  0.00    +0.000 N 
ATOM     10  C   UNL     1       6.425   5.004  15.912  0.00  0.00    +0.000 C 
ATOM     11  N   UNL     1       7.424   5.318  16.879  0.00  0.00    +0.000 N 
ATOM     12  H   UNL     1       7.855   4.457  17.204  0.00  0.00    +0.000 HD
ENDROOT
BRANCH  10  13
ATOM     13  C   UNL     1       6.752   4.689  14.469  0.00  0.00    +0.000 C 
ATOM     14  N   UNL     1       6.329   3.488  14.069  0.00  0.00    +0.000 N 
ATOM     15  O   UNL     1       7.447   5.373  13.735  0.00  0.00    +0.000 OA
ATOM     16  H   UNL     1       6.016   2.836  14.774  0.00  0.00    +0.000 HD
ATOM     17  H   UNL     1       6.779   3.134  13.222  0.00  0.00    +0.000 HD
ENDBRANCH  10  13
BRANCH   9  18
ATOM     18  C   UNL     1       5.036   3.570  19.240  0.00  0.00    +0.000 C 
BRANCH  18  19
ATOM     19  C   UNL     1       4.277   2.315  19.627  0.00  0.00    +0.000 C 
BRANCH  19  20
ATOM     20  O   UNL     1       5.186   1.364  20.168  0.00  0.00    +0.000 OA
ATOM     21  H   UNL     1       6.046   1.535  19.742  0.00  0.00    +0.000 HD
ENDBRANCH  19  20
ENDBRANCH  18  19
ENDBRANCH   9  18
TORSDOF 4
ENDMDL
MODEL 2
REMARK VINA RESULT:      -6.5      2.474      3.409
REMARK  Name = 
REMARK  6 active torsions:
REMARK  status: ('A' for Active; 'I' for Inactive)
REMARK    1  A    between atoms: C_1  and  C_2
REMARK    2  A    between atoms: C_2  and  C_3
REMARK    3  A    between atoms: N_9  and  C_10
REMARK    4  A    between atoms: C_10  and  C_11
REMARK    5  A    between atoms: C_11  and  O_12
REMARK    6  A    between atoms: C_13  and  C_14
REMARK                            x       y       z     vdW  Elec       q    Type
REMARK                         _______ _______ _______ _____ _____    ______ ____
ROOT
ATOM      1  C   UNL     1       2.603   7.712  17.978  0.00  0.00    +0.000 C 
ATOM      2  C   UNL     1       2.802   6.311  18.566  0.00  0.00    +0.000 C 
ATOM      3  C   UNL     1       2.251   6.416  20.024  0.00  0.00    +0.000 C 
ATOM      4  N   UNL     1       1.914   5.221  18.086  0.00  0.00    +0.000 NA
ATOM      5  C   UNL     1       2.605   4.127  18.059  0.00  0.00    +0.000 A 
ATOM      6  C   UNL     1       3.839   3.953  17.248  0.00  0.00    +0.000 A 
ATOM      7  N   UNL     1       4.240   2.616  17.272  0.00  0.00    +0.000 NA
ATOM      8  C   UNL     1       3.499   2.108  18.213  0.00  0.00    +0.000 A 
ATOM      9  N   UNL     1       2.554   2.950  18.810  0.00  0.00    +0.000 N 
ATOM     10  C   UNL     1       4.618   5.027  17.451  0.00  0.00    +0.000 C 
ATOM     11  N   UNL     1       4.238   6.044  18.375  0.00  0.00    +0.000 N 
ATOM     12  H   UNL     1       4.759   5.921  19.239  0.00  0.00    +0.000 HD
ENDROOT
BRANCH  10  13
ATOM     13  C   UNL     1       5.887   5.098  16.632  0.00  0.00    +0.000 C 
ATOM     14  N   UNL     1       6.811   4.203  16.988  0.00  0.00    +0.000 N 
ATOM     15  O   UNL     1       6.148   5.954  15.801  0.00  0.00    +0.000 OA
ATOM     16  H   UNL     1       6.680   3.707  17.858  0.00  0.00    +0.000 HD
ATOM     17  H   UNL     1       7.759   4.412  16.667  0.00  0.00    +0.000 HD
ENDBRANCH  10  13
BRANCH   9  18
ATOM     18  C   UNL     1       2.765   3.124  20.281  0.00  0.00    +0.000 C 
BRANCH  18  19
ATOM     19  C   UNL     1       1.492   2.885  21.069  0.00  0.00    +0.000 C 
BRANCH  19  20
ATOM     20  O   UNL     1       0.381   3.378  20.329  0.00  0.00    +0.000 OA
ATOM     21  H   UNL     1      -0.414   2.990  20.739  0.00  0.00    +0.000 HD
ENDBRANCH  19  20
ENDBRANCH  18  19
ENDBRANCH   9  18
TORSDOF 4
ENDMDL
MODEL 3
REMARK VINA RESULT:      -6.4      3.079      4.224
REMARK  Name = 
REMARK  6 active torsions:
REMARK  status: ('A' for Active; 'I' for Inactive)
REMARK    1  A    between atoms: C_1  and  C_2
REMARK    2  A    between atoms: C_2  and  C_3
REMARK    3  A    between atoms: N_9  and  C_10
REMARK    4  A    between atoms: C_10  and  C_11
REMARK    5  A    between atoms: C_11  and  O_12
REMARK    6  A    between atoms: C_13  and  C_14
REMARK                            x       y       z     vdW  Elec       q    Type
REMARK                         _______ _______ _______ _____ _____    ______ ____
ROOT
ATOM      1  C   UNL     1       2.513   7.491  19.086  0.00  0.00    +0.000 C 
ATOM      2  C   UNL     1       2.368   6.007  19.439  0.00  0.00    +0.000 C 
ATOM      3  C   UNL     1       1.177   5.957  20.447  0.00  0.00    +0.000 C 
ATOM      4  N   UNL     1       1.807   5.097  18.408  0.00  0.00    +0.000 NA
ATOM      5  C   UNL     1       2.400   3.951  18.521  0.00  0.00    +0.000 A 
ATOM      6  C   UNL     1       3.869   3.768  18.382  0.00  0.00    +0.000 A 
ATOM      7  N   UNL     1       4.179   2.408  18.357  0.00  0.00    +0.000 NA
ATOM      8  C   UNL     1       3.061   1.850  18.722  0.00  0.00    +0.000 A 
ATOM      9  N   UNL     1       1.963   2.690  18.932  0.00  0.00    +0.000 N 
ATOM     10  C   UNL     1       4.470   4.714  19.121  0.00  0.00    +0.000 C 
ATOM     11  N   UNL     1       3.709   5.621  19.914  0.00  0.00    +0.000 N 
ATOM     12  H   UNL     1       3.737   5.320  20.884  0.00  0.00    +0.000 HD
ENDROOT
BRANCH  10  13
ATOM     13  C   UNL     1       5.980   4.769  19.036  0.00  0.00    +0.000 C 
ATOM     14  N   UNL     1       6.486   4.123  17.984  0.00  0.00    +0.000 N 
ATOM     15  O   UNL     1       6.721   5.233  19.888  0.00  0.00    +0.000 OA
ATOM     16  H   UNL     1       5.873   3.511  17.463  0.00  0.00    +0.000 HD
ATOM     17  H   UNL     1       7.480   3.894  18.057  0.00  0.00    +0.000 HD
ENDBRANCH  10  13
BRANCH   9  18
ATOM     18  C   UNL     1       1.431   2.626  20.329  0.00  0.00    +0.000 C 
BRANCH  18  19
ATOM     19  C   UNL     1       2.536   2.422  21.347  0.00  0.00    +0.000 C 
BRANCH  19  20
ATOM     20  O   UNL     1       2.532   3.505  22.269  0.00  0.00    +0.000 OA
ATOM     21  H   UNL     1       2.606   3.109  23.157  0.00  0.00    +0.000 HD
ENDBRANCH  19  20
ENDBRANCH  18  19
ENDBRANCH   9  18
TORSDOF 4
ENDMDL
MODEL 4
REMARK VINA RESULT:      -6.4      2.591      3.526
REMARK  Name = 
REMARK  6 active torsions:
REMARK  status: ('A' for Active; 'I' for Inactive)
REMARK    1  A    between atoms: C_1  and  C_2
REMARK    2  A    between atoms: C_2  and  C_3
REMARK    3  A    between atoms: N_9  and  C_10
REMARK    4  A    between atoms: C_10  and  C_11
REMARK    5  A    between atoms: C_11  and  O_12
REMARK    6  A    between atoms: C_13  and  C_14
REMARK                            x       y       z     vdW  Elec       q    Type
REMARK                         _______ _______ _______ _____ _____    ______ ____
ROOT
ATOM      1  C   UNL     1       3.307   7.825  17.671  0.00  0.00    +0.000 C 
ATOM      2  C   UNL     1       2.968   6.547  18.445  0.00  0.00    +0.000 C 
ATOM      3  C   UNL     1       2.157   7.042  19.685  0.00  0.00    +0.000 C 
ATOM      4  N   UNL     1       1.941   5.638  17.874  0.00  0.00    +0.000 NA
ATOM      5  C   UNL     1       2.285   4.421  18.153  0.00  0.00    +0.000 A 
ATOM      6  C   UNL     1       3.569   3.810  17.720  0.00  0.00    +0.000 A 
ATOM      7  N   UNL     1       3.563   2.442  17.998  0.00  0.00    +0.000 NA
ATOM      8  C   UNL     1       2.518   2.307  18.762  0.00  0.00    +0.000 A 
ATOM      9  N   UNL     1       1.738   3.446  18.991  0.00  0.00    +0.000 N 
ATOM     10  C   UNL     1       4.552   4.680  17.999  0.00  0.00    +0.000 C 
ATOM     11  N   UNL     1       4.277   5.907  18.669  0.00  0.00    +0.000 N 
ATOM     12  H   UNL     1       4.535   5.818  19.649  0.00  0.00    +0.000 HD
ENDROOT
BRANCH  10  13
ATOM     13  C   UNL     1       5.940   4.292  17.540  0.00  0.00    +0.000 C 
ATOM     14  N   UNL     1       5.965   3.679  16.355  0.00  0.00    +0.000 N 
ATOM     15  O   UNL     1       6.959   4.387  18.205  0.00  0.00    +0.000 OA
ATOM     16  H   UNL     1       5.089   3.359  15.967  0.00  0.00    +0.000 HD
ATOM     17  H   UNL     1       6.821   3.154  16.160  0.00  0.00    +0.000 HD
ENDBRANCH  10  13
BRANCH   9  18
ATOM     18  C   UNL     1       1.656   3.824  20.436  0.00  0.00    +0.000 C 
BRANCH  18  19
ATOM     19  C   UNL     1       1.525   2.608  21.332  0.00  0.00    +0.000 C 
BRANCH  19  20
ATOM     20  O   UNL     1       2.662   2.525  22.184  0.00  0.00    +0.000 OA
ATOM     21  H   UNL     1       3.325   1.996  21.704  0.00  0.00    +0.000 HD
ENDBRANCH  19  20
ENDBRANCH  18  19
ENDBRANCH   9  18
TORSDOF 4
ENDMDL
MODEL 5
REMARK VINA RESULT:      -6.4      2.884      4.329
REMARK  Name = 
REMARK  6 active torsions:
REMARK  status: ('A' for Active; 'I' for Inactive)
REMARK    1  A    between atoms: C_1  and  C_2
REMARK    2  A    between atoms: C_2  and  C_3
REMARK    3  A    between atoms: N_9  and  C_10
REMARK    4  A    between atoms: C_10  and  C_11
REMARK    5  A    between atoms: C_11  and  O_12
REMARK    6  A    between atoms: C_13  and  C_14
REMARK                            x       y       z     vdW  Elec       q    Type
REMARK                         _______ _______ _______ _____ _____    ______ ____
ROOT
ATOM      1  C   UNL     1       6.507   6.303  17.259  0.00  0.00    +0.000 C 
ATOM      2  C   UNL     1       5.561   5.146  17.599  0.00  0.00    +0.000 C 
ATOM      3  C   UNL     1       5.885   4.048  16.535  0.00  0.00    +0.000 C 
ATOM      4  N   UNL     1       5.847   4.346  18.817  0.00  0.00    +0.000 NA
ATOM      5  C   UNL     1       4.715   3.994  19.339  0.00  0.00    +0.000 A 
ATOM      6  C   UNL     1       3.683   4.962  19.793  0.00  0.00    +0.000 A 
ATOM      7  N   UNL     1       2.673   4.292  20.485  0.00  0.00    +0.000 NA
ATOM      8  C   UNL     1       2.928   3.041  20.228  0.00  0.00    +0.000 A 
ATOM      9  N   UNL     1       4.073   2.761  19.475  0.00  0.00    +0.000 N 
ATOM     10  C   UNL     1       3.520   5.874  18.821  0.00  0.00    +0.000 C 
ATOM     11  N   UNL     1       4.223   5.763  17.587  0.00  0.00    +0.000 N 
ATOM     12  H   UNL     1       3.597   5.389  16.879  0.00  0.00    +0.000 HD
ENDROOT
BRANCH  10  13
ATOM     13  C   UNL     1       2.579   7.018  19.128  0.00  0.00    +0.000 C 
ATOM     14  N   UNL     1       2.298   7.153  20.425  0.00  0.00    +0.000 N 
ATOM     15  O   UNL     1       2.000   7.701  18.298  0.00  0.00    +0.000 OA
ATOM     16  H   UNL     1       2.561   6.402  21.049  0.00  0.00    +0.000 HD
ATOM     17  H   UNL     1       1.463   7.706  20.629  0.00  0.00    +0.000 HD
ENDBRANCH  10  13
BRANCH   9  18
ATOM     18  C   UNL     1       3.776   2.053  18.191  0.00  0.00    +0.000 C 
BRANCH  18  19
ATOM     19  C   UNL     1       2.351   2.290  17.730  0.00  0.00    +0.000 C 
BRANCH  19  20
ATOM     20  O   UNL     1       2.332   3.355  16.787  0.00  0.00    +0.000 OA
ATOM     21  H   UNL     1       3.186   3.319  16.317  0.00  0.00    +0.000 HD
ENDBRANCH  19  20
ENDBRANCH  18  19
ENDBRANCH   9  18
TORSDOF 4
ENDMDL
MODEL 6
REMARK VINA RESULT:      -6.4      2.068      4.030
REMARK  Name = 
REMARK  6 active torsions:
REMARK  status: ('A' for Active; 'I' for Inactive)
REMARK    1  A    between atoms: C_1  and  C_2
REMARK    2  A    between atoms: C_2  and  C_3
REMARK    3  A    between atoms: N_9  and  C_10
REMARK    4  A    between atoms: C_10  and  C_11
REMARK    5  A    between atoms: C_11  and  O_12
REMARK    6  A    between atoms: C_13  and  C_14
REMARK                            x       y       z     vdW  Elec       q    Type
REMARK                         _______ _______ _______ _____ _____    ______ ____
ROOT
ATOM      1  C   UNL     1       5.564   3.788  13.567  0.00  0.00    +0.000 C 
ATOM      2  C   UNL     1       5.946   4.513  14.862  0.00  0.00    +0.000 C 
ATOM      3  C   UNL     1       7.460   4.858  14.688  0.00  0.00    +0.000 C 
ATOM      4  N   UNL     1       5.440   5.895  15.063  0.00  0.00    +0.000 NA
ATOM      5  C   UNL     1       5.196   6.052  16.325  0.00  0.00    +0.000 A 
ATOM      6  C   UNL     1       4.232   5.215  17.086  0.00  0.00    +0.000 A 
ATOM      7  N   UNL     1       4.041   5.749  18.362  0.00  0.00    +0.000 NA
ATOM      8  C   UNL     1       4.992   6.634  18.449  0.00  0.00    +0.000 A 
ATOM      9  N   UNL     1       5.794   6.828  17.320  0.00  0.00    +0.000 N 
ATOM     10  C   UNL     1       4.476   3.930  16.783  0.00  0.00    +0.000 C 
ATOM     11  N   UNL     1       5.557   3.571  15.927  0.00  0.00    +0.000 N 
ATOM     12  H   UNL     1       6.333   3.236  16.492  0.00  0.00    +0.000 HD
ENDROOT
BRANCH  10  13
ATOM     13  C   UNL     1       3.530   2.911  17.379  0.00  0.00    +0.000 C 
ATOM     14  N   UNL     1       4.138   1.959  18.087  0.00  0.00    +0.000 N 
ATOM     15  O   UNL     1       2.331   2.843  17.157  0.00  0.00    +0.000 OA
ATOM     16  H   UNL     1       5.143   1.879  18.012  0.00  0.00    +0.000 HD
ATOM     17  H   UNL     1       3.579   1.118  18.247  0.00  0.00    +0.000 HD
ENDBRANCH  10  13
BRANCH   9  18
ATOM     18  C   UNL     1       7.241   6.538  17.569  0.00  0.00    +0.000 C 
BRANCH  18  19
ATOM     19  C   UNL     1       7.434   5.541  18.696  0.00  0.00    +0.000 C 
BRANCH  19  20
ATOM     20  O   UNL     1       7.683   4.253  18.147  0.00  0.00    +0.000 OA
ATOM     21  H   UNL     1       8.626   4.238  17.902  0.00  0.00    +0.000 HD
ENDBRANCH  19  20
ENDBRANCH  18  19
ENDBRANCH   9  18
TORSDOF 4
ENDMDL
MODEL 7
REMARK VINA RESULT:      -6.3      2.745      4.274
REMARK  Name = 
REMARK  6 active torsions:
REMARK  status: ('A' for Active; 'I' for Inactive)
REMARK    1  A    between atoms: C_1  and  C_2
REMARK    2  A    between atoms: C_2  and  C_3
REMARK    3  A    between atoms: N_9  and  C_10
REMARK    4  A    between atoms: C_10  and  C_11
REMARK    5  A    between atoms: C_11  and  O_12
REMARK    6  A    between atoms: C_13  and  C_14
REMARK                            x       y       z     vdW  Elec       q    Type
REMARK                         _______ _______ _______ _____ _____    ______ ____
ROOT
ATOM      1  C   UNL     1       7.212   4.463  17.200  0.00  0.00    +0.000 C 
ATOM      2  C   UNL     1       5.819   4.880  17.684  0.00  0.00    +0.000 C 
ATOM      3  C   UNL     1       5.887   6.438  17.782  0.00  0.00    +0.000 C 
ATOM      4  N   UNL     1       4.689   4.781  16.725  0.00  0.00    +0.000 NA
ATOM      5  C   UNL     1       3.630   4.443  17.389  0.00  0.00    +0.000 A 
ATOM      6  C   UNL     1       3.523   3.190  18.183  0.00  0.00    +0.000 A 
ATOM      7  N   UNL     1       2.208   3.011  18.614  0.00  0.00    +0.000 NA
ATOM      8  C   UNL     1       1.658   4.161  18.351  0.00  0.00    +0.000 A 
ATOM      9  N   UNL     1       2.447   5.116  17.703  0.00  0.00    +0.000 N 
ATOM     10  C   UNL     1       4.633   3.082  18.929  0.00  0.00    +0.000 C 
ATOM     11  N   UNL     1       5.624   4.106  18.923  0.00  0.00    +0.000 N 
ATOM     12  H   UNL     1       5.522   4.675  19.759  0.00  0.00    +0.000 HD
ENDROOT
BRANCH  10  13
ATOM     13  C   UNL     1       4.772   1.814  19.742  0.00  0.00    +0.000 C 
ATOM     14  N   UNL     1       4.457   0.705  19.070  0.00  0.00    +0.000 N 
ATOM     15  O   UNL     1       5.018   1.761  20.936  0.00  0.00    +0.000 OA
ATOM     16  H   UNL     1       3.984   0.805  18.183  0.00  0.00    +0.000 HD
ATOM     17  H   UNL     1       4.258  -0.111  19.655  0.00  0.00    +0.000 HD
ENDBRANCH  10  13
BRANCH   9  18
ATOM     18  C   UNL     1       2.622   6.373  18.496  0.00  0.00    +0.000 C 
BRANCH  18  19
ATOM     19  C   UNL     1       2.281   6.171  19.960  0.00  0.00    +0.000 C 
BRANCH  19  20
ATOM     20  O   UNL     1       2.210   7.436  20.605  0.00  0.00    +0.000 OA
ATOM     21  H   UNL     1       2.880   8.000  20.178  0.00  0.00    +0.000 HD
ENDBRANCH  19  20
ENDBRANCH  18  19
ENDBRANCH   9  18
TORSDOF 4
ENDMDL
MODEL 8
REMARK VINA RESULT:      -6.2      1.946      4.369
REMARK  Name = 
REMARK  6 active torsions:
REMARK  status: ('A' for Active; 'I' for Inactive)
REMARK    1  A    between atoms: C_1  and  C_2
REMARK    2  A    between atoms: C_2  and  C_3
REMARK    3  A    between atoms: N_9  and  C_10
REMARK    4  A    between atoms: C_10  and  C_11
REMARK    5  A    between atoms: C_11  and  O_12
REMARK    6  A    between atoms: C_13  and  C_14
REMARK                            x       y       z     vdW  Elec       q    Type
REMARK                         _______ _______ _______ _____ _____    ______ ____
ROOT
ATOM      1  C   UNL     1       5.365   3.906  14.030  0.00  0.00    +0.000 C 
ATOM      2  C   UNL     1       5.752   4.378  15.437  0.00  0.00    +0.000 C 
ATOM      3  C   UNL     1       7.257   4.779  15.316  0.00  0.00    +0.000 C 
ATOM      4  N   UNL     1       5.225   5.686  15.903  0.00  0.00    +0.000 NA
ATOM      5  C   UNL     1       4.995   5.594  17.174  0.00  0.00    +0.000 A 
ATOM      6  C   UNL     1       4.056   4.609  17.770  0.00  0.00    +0.000 A 
ATOM      7  N   UNL     1       3.873   4.885  19.126  0.00  0.00    +0.000 NA
ATOM      8  C   UNL     1       4.810   5.755  19.372  0.00  0.00    +0.000 A 
ATOM      9  N   UNL     1       5.594   6.177  18.293  0.00  0.00    +0.000 N 
ATOM     10  C   UNL     1       4.318   3.411  17.225  0.00  0.00    +0.000 C 
ATOM     11  N   UNL     1       5.394   3.243  16.305  0.00  0.00    +0.000 N 
ATOM     12  H   UNL     1       6.183   2.821  16.788  0.00  0.00    +0.000 HD
ENDROOT
BRANCH  10  13
ATOM     13  C   UNL     1       3.398   2.278  17.624  0.00  0.00    +0.000 C 
ATOM     14  N   UNL     1       4.023   1.253  18.206  0.00  0.00    +0.000 N 
ATOM     15  O   UNL     1       2.211   2.199  17.348  0.00  0.00    +0.000 OA
ATOM     16  H   UNL     1       5.032   1.224  18.158  0.00  0.00    +0.000 HD
ATOM     17  H   UNL     1       3.495   0.377  18.216  0.00  0.00    +0.000 HD
ENDBRANCH  10  13
BRANCH   9  18
ATOM     18  C   UNL     1       7.048   5.873  18.468  0.00  0.00    +0.000 C 
BRANCH  18  19
ATOM     19  C   UNL     1       7.913   7.100  18.259  0.00  0.00    +0.000 C 
BRANCH  19  20
ATOM     20  O   UNL     1       7.536   7.742  17.047  0.00  0.00    +0.000 OA
ATOM     21  H   UNL     1       7.160   7.047  16.476  0.00  0.00    +0.000 HD
ENDBRANCH  19  20
ENDBRANCH  18  19
ENDBRANCH   9  18
TORSDOF 4
ENDMDL
MODEL 9
REMARK VINA RESULT:      -6.2      2.270      3.775
REMARK  Name = 
REMARK  6 active torsions:
REMARK  status: ('A' for Active; 'I' for Inactive)
REMARK    1  A    between atoms: C_1  and  C_2
REMARK    2  A    between atoms: C_2  and  C_3
REMARK    3  A    between atoms: N_9  and  C_10
REMARK    4  A    between atoms: C_10  and  C_11
REMARK    5  A    between atoms: C_11  and  O_12
REMARK    6  A    between atoms: C_13  and  C_14
REMARK                            x       y       z     vdW  Elec       q    Type
REMARK                         _______ _______ _______ _____ _____    ______ ____
ROOT
ATOM      1  C   UNL     1       7.447   5.005  14.129  0.00  0.00    +0.000 C 
ATOM      2  C   UNL     1       6.356   4.961  15.204  0.00  0.00    +0.000 C 
ATOM      3  C   UNL     1       5.048   4.616  14.422  0.00  0.00    +0.000 C 
ATOM      4  N   UNL     1       6.347   3.810  16.142  0.00  0.00    +0.000 NA
ATOM      5  C   UNL     1       5.952   4.239  17.298  0.00  0.00    +0.000 A 
ATOM      6  C   UNL     1       6.652   5.305  18.062  0.00  0.00    +0.000 A 
ATOM      7  N   UNL     1       6.109   5.407  19.344  0.00  0.00    +0.000 NA
ATOM      8  C   UNL     1       5.029   4.686  19.258  0.00  0.00    +0.000 A 
ATOM      9  N   UNL     1       4.796   4.020  18.050  0.00  0.00    +0.000 N 
ATOM     10  C   UNL     1       6.906   6.316  17.216  0.00  0.00    +0.000 C 
ATOM     11  N   UNL     1       6.454   6.274  15.866  0.00  0.00    +0.000 N 
ATOM     12  H   UNL     1       5.622   6.850  15.774  0.00  0.00    +0.000 HD
ENDROOT
BRANCH  10  13
ATOM     13  C   UNL     1       7.711   7.469  17.775  0.00  0.00    +0.000 C 
ATOM     14  N   UNL     1       8.390   7.167  18.883  0.00  0.00    +0.000 N 
ATOM     15  O   UNL     1       7.678   8.619  17.367  0.00  0.00    +0.000 OA
ATOM     16  H   UNL     1       8.171   6.299  19.352  0.00  0.00    +0.000 HD
ATOM     17  H   UNL     1       8.695   7.973  19.434  0.00  0.00    +0.000 HD
ENDBRANCH  10  13
BRANCH   9  18
ATOM     18  C   UNL     1       3.518   4.431  17.388  0.00  0.00    +0.000 C 
BRANCH  18  19
ATOM     19  C   UNL     1       2.434   3.384  17.550  0.00  0.00    +0.000 C 
BRANCH  19  20
ATOM     20  O   UNL     1       1.160   3.997  17.393  0.00  0.00    +0.000 OA
ATOM     21  H   UNL     1       1.099   4.682  18.083  0.00  0.00    +0.000 HD
ENDBRANCH  19  20
ENDBRANCH  18  19
ENDBRANCH   9  18
TORSDOF 4
ENDMDL
