MODEL 1
REMARK VINA RESULT:      -5.8      0.000      0.000
REMARK  Name = 
REMARK  8 active torsions:
REMARK  status: ('A' for Active; 'I' for Inactive)
REMARK    1  A    between atoms: CB_1  and  CA_2
REMARK    2  A    between atoms: CA_2  and  N_3
REMARK    3  A    between atoms: CA_2  and  C_12
REMARK    4  A    between atoms: C_4  and  CA_6
REMARK    5  A    between atoms: CA_6  and  N_7
REMARK    6  A    between atoms: C_8  and  CA_10
REMARK    7  A    between atoms: CA_10  and  N_11
REMARK    8  A    between atoms: C_12  and  OXT_14
REMARK                            x       y       z     vdW  Elec       q    Type
REMARK                         _______ _______ _______ _____ _____    ______ ____
ROOT
ATOM      1  N   ALA A   3       4.856   4.698  16.904  0.00  0.00    +0.000 N 
ATOM      2  C   GLY A   2       4.741   4.546  18.265  0.00  0.00    +0.000 C 
ATOM      3  O   GLY A   2       5.495   3.833  18.922  0.00  0.00    +0.000 OA
ATOM      4  H   ALA A   3       4.085   5.128  16.390  0.00  0.00    +0.000 HD
ENDROOT
BRANCH   1   6
ATOM      5  CB  ALA A   3       5.661   4.150  14.637  0.00  0.00    +0.000 C 
ATOM      6  CA  ALA A   3       5.935   4.098  16.133  0.00  0.00    +0.000 C 
BRANCH   6   7
ATOM      7  C   ALA A   3       7.239   4.840  16.447  0.00  0.00    +0.000 C 
ATOM      8  O   ALA A   3       7.520   5.947  16.009  0.00  0.00    +0.000 OA
BRANCH   7   9
ATOM      9  OXT ALA A   3       8.085   4.146  17.244  0.00  0.00    +0.000 OA
ATOM     10  HXT ALA A   3       7.767   3.258  17.497  0.00  0.00    +0.000 HD
ENDBRANCH   7   9
ENDBRANCH   6   7
ENDBRANCH   1   6
BRANCH   2  11
ATOM     11  CA  GLY A   2       3.549   5.279  18.882  0.00  0.00    +0.000 C 
BRANCH  11  12
ATOM     12  N   GLY A   2       2.565   4.339  19.367  0.00  0.00    +0.000 N 
ATOM     13  C   GLY A   1       1.709   3.682  18.514  0.00  0.00    +0.000 C 
ATOM     14  O   GLY A   1       1.670   3.897  17.307  0.00  0.00    +0.000 OA
ATOM     15  H   GLY A   2       2.637   3.957  20.307  0.00  0.00    +0.000 HD
BRANCH  13  16
ATOM     16  CA  GLY A   1       0.789   2.679  19.216  0.00  0.00    +0.000 C 
BRANCH  16  17
ATOM     17  N   GLY A   1       0.658   3.007  20.651  0.00  0.00    +0.000 NA
ATOM     18  H1  GLY A   1      -0.197   3.553  20.776  0.00  0.00    +0.000 HD
ATOM     19  H2  GLY A   1       1.419   3.641  20.901  0.00  0.00    +0.000 HD
ENDBRANCH  16  17
ENDBRANCH  13  16
ENDBRANCH  11  12
ENDBRANCH   2  11
TORSDOF 7
ENDMDL
MODEL 2
REMARK VINA RESULT:      -5.6      1.948      5.586
REMARK  Name = 
REMARK  8 active torsions:
REMARK  status: ('A' for Active; 'I' for Inactive)
REMARK    1  A    between atoms: CB_1  and  CA_2
REMARK    2  A    between atoms: CA_2  and  N_3
REMARK    3  A    between atoms: CA_2  and  C_12
REMARK    4  A    between atoms: C_4  and  CA_6
REMARK    5  A    between atoms: CA_6  and  N_7
REMARK    6  A    between atoms: C_8  and  CA_10
REMARK    7  A    between atoms: CA_10  and  N_11
REMARK    8  A    between atoms: C_12  and  OXT_14
REMARK                            x       y       z     vdW  Elec       q    Type
REMARK                         _______ _______ _______ _____ _____    ______ ____
ROOT
ATOM      1  N   ALA A   3       3.236   3.875  19.398  0.00  0.00    +0.000 N 
ATOM      2  C   GLY A   2       4.538   3.470  19.566  0.00  0.00    +0.000 C 
ATOM      3  O   GLY A   2       4.841   2.371  20.023  0.00  0.00    +0.000 OA
ATOM      4  H   ALA A   3       3.046   4.862  19.216  0.00  0.00    +0.000 HD
ENDROOT
BRANCH   1   6
ATOM      5  CB  ALA A   3       1.271   3.494  20.842  0.00  0.00    +0.000 C 
ATOM      6  CA  ALA A   3       2.100   3.004  19.664  0.00  0.00    +0.000 C 
BRANCH   6   7
ATOM      7  C   ALA A   3       1.225   2.936  18.408  0.00  0.00    +0.000 C 
ATOM      8  O   ALA A   3       1.299   3.727  17.477  0.00  0.00    +0.000 OA
BRANCH   7   9
ATOM      9  OXT ALA A   3       0.325   1.924  18.422  0.00  0.00    +0.000 OA
ATOM     10  HXT ALA A   3      -0.050   1.703  17.547  0.00  0.00    +0.000 HD
ENDBRANCH   7   9
ENDBRANCH   6   7
ENDBRANCH   1   6
BRANCH   2  11
ATOM     11  CA  GLY A   2       5.579   4.533  19.208  0.00  0.00    +0.000 C 
BRANCH  11  12
ATOM     12  N   GLY A   2       6.238   4.206  17.965  0.00  0.00    +0.000 N 
ATOM     13  C   GLY A   1       5.653   4.456  16.746  0.00  0.00    +0.000 C 
ATOM     14  O   GLY A   1       4.516   4.902  16.628  0.00  0.00    +0.000 OA
ATOM     15  H   GLY A   2       7.237   4.010  17.948  0.00  0.00    +0.000 HD
BRANCH  13  16
ATOM     16  CA  GLY A   1       6.540   4.100  15.550  0.00  0.00    +0.000 C 
BRANCH  16  17
ATOM     17  N   GLY A   1       7.417   5.236  15.195  0.00  0.00    +0.000 NA
ATOM     18  H1  GLY A   1       7.155   6.034  15.777  0.00  0.00    +0.000 HD
ATOM     19  H2  GLY A   1       7.195   5.518  14.238  0.00  0.00    +0.000 HD
ENDBRANCH  16  17
ENDBRANCH  13  16
ENDBRANCH  11  12
ENDBRANCH   2  11
TORSDOF 7
ENDMDL
MODEL 3
REMARK VINA RESULT:      -5.5      1.588      5.606
REMARK  Name = 
REMARK  8 active torsions:
REMARK  status: ('A' for Active; 'I' for Inactive)
REMARK    1  A    between atoms: CB_1  and  CA_2
REMARK    2  A    between atoms: CA_2  and  N_3
REMARK    3  A    between atoms: CA_2  and  C_12
REMARK    4  A    between atoms: C_4  and  CA_6
REMARK    5  A    between atoms: CA_6  and  N_7
REMARK    6  A    between atoms: C_8  and  CA_10
REMARK    7  A    between atoms: CA_10  and  N_11
REMARK    8  A    between atoms: C_12  and  OXT_14
REMARK                            x       y       z     vdW  Elec       q    Type
REMARK                         _______ _______ _______ _____ _____    ______ ____
ROOT
ATOM      1  N   ALA A   3       3.364   4.353  19.560  0.00  0.00    +0.000 N 
ATOM      2  C   GLY A   2       4.673   3.948  19.442  0.00  0.00    +0.000 C 
ATOM      3  O   GLY A   2       5.041   2.803  19.692  0.00  0.00    +0.000 OA
ATOM      4  H   ALA A   3       3.155   5.352  19.543  0.00  0.00    +0.000 HD
ENDROOT
BRANCH   1   6
ATOM      5  CB  ALA A   3       1.104   4.164  20.532  0.00  0.00    +0.000 C 
ATOM      6  CA  ALA A   3       2.286   3.438  19.905  0.00  0.00    +0.000 C 
BRANCH   6   7
ATOM      7  C   ALA A   3       1.831   2.708  18.636  0.00  0.00    +0.000 C 
ATOM      8  O   ALA A   3       0.995   3.144  17.857  0.00  0.00    +0.000 OA
BRANCH   7   9
ATOM      9  OXT ALA A   3       2.424   1.504  18.455  0.00  0.00    +0.000 OA
ATOM     10  HXT ALA A   3       2.116   0.805  19.063  0.00  0.00    +0.000 HD
ENDBRANCH   7   9
ENDBRANCH   6   7
ENDBRANCH   1   6
BRANCH   2  11
ATOM     11  CA  GLY A   2       5.643   5.063  19.048  0.00  0.00    +0.000 C 
BRANCH  11  12
ATOM     12  N   GLY A   2       5.880   5.057  17.623  0.00  0.00    +0.000 N 
ATOM     13  C   GLY A   1       7.082   4.655  17.090  0.00  0.00    +0.000 C 
ATOM     14  O   GLY A   1       8.050   4.347  17.777  0.00  0.00    +0.000 OA
ATOM     15  H   GLY A   2       5.100   5.114  16.971  0.00  0.00    +0.000 HD
BRANCH  13  16
ATOM     16  CA  GLY A   1       7.109   4.657  15.559  0.00  0.00    +0.000 C 
BRANCH  16  17
ATOM     17  N   GLY A   1       6.053   3.776  15.018  0.00  0.00    +0.000 NA
ATOM     18  H1  GLY A   1       5.987   3.939  14.011  0.00  0.00    +0.000 HD
ATOM     19  H2  GLY A   1       5.157   4.087  15.397  0.00  0.00    +0.000 HD
ENDBRANCH  16  17
ENDBRANCH  13  16
ENDBRANCH  11  12
ENDBRANCH   2  11
TORSDOF 7
ENDMDL
MODEL 4
REMARK VINA RESULT:      -5.5      1.390      1.446
REMARK  Name = 
REMARK  8 active torsions:
REMARK  status: ('A' for Active; 'I' for Inactive)
REMARK    1  A    between atoms: CB_1  and  CA_2
REMARK    2  A    between atoms: CA_2  and  N_3
REMARK    3  A    between atoms: CA_2  and  C_12
REMARK    4  A    between atoms: C_4  and  CA_6
REMARK    5  A    between atoms: CA_6  and  N_7
REMARK    6  A    between atoms: C_8  and  CA_10
REMARK    7  A    between atoms: CA_10  and  N_11
REMARK    8  A    between atoms: C_12  and  OXT_14
REMARK                            x       y       z     vdW  Elec       q    Type
REMARK                         _______ _______ _______ _____ _____    ______ ____
ROOT
ATOM      1  N   ALA A   3       4.583   4.532  16.746  0.00  0.00    +0.000 N 
ATOM      2  C   GLY A   2       3.790   3.715  17.516  0.00  0.00    +0.000 C 
ATOM      3  O   GLY A   2       4.011   2.515  17.661  0.00  0.00    +0.000 OA
ATOM      4  H   ALA A   3       4.237   5.459  16.495  0.00  0.00    +0.000 HD
ENDROOT
BRANCH   1   6
ATOM      5  CB  ALA A   3       5.775   4.283  14.600  0.00  0.00    +0.000 C 
ATOM      6  CA  ALA A   3       5.805   4.067  16.106  0.00  0.00    +0.000 C 
BRANCH   6   7
ATOM      7  C   ALA A   3       6.997   4.815  16.713  0.00  0.00    +0.000 C 
ATOM      8  O   ALA A   3       7.473   5.840  16.244  0.00  0.00    +0.000 OA
BRANCH   7   9
ATOM      9  OXT ALA A   3       7.508   4.224  17.819  0.00  0.00    +0.000 OA
ATOM     10  HXT ALA A   3       8.203   4.741  18.269  0.00  0.00    +0.000 HD
ENDBRANCH   7   9
ENDBRANCH   6   7
ENDBRANCH   1   6
BRANCH   2  11
ATOM     11  CA  GLY A   2       2.566   4.409  18.115  0.00  0.00    +0.000 C 
BRANCH  11  12
ATOM     12  N   GLY A   2       2.348   3.979  19.477  0.00  0.00    +0.000 N 
ATOM     13  C   GLY A   1       1.354   3.087  19.805  0.00  0.00    +0.000 C 
ATOM     14  O   GLY A   1       0.546   2.655  18.990  0.00  0.00    +0.000 OA
ATOM     15  H   GLY A   2       3.064   4.128  20.185  0.00  0.00    +0.000 HD
BRANCH  13  16
ATOM     16  CA  GLY A   1       1.331   2.707  21.288  0.00  0.00    +0.000 C 
BRANCH  16  17
ATOM     17  N   GLY A   1       2.686   2.795  21.870  0.00  0.00    +0.000 NA
ATOM     18  H1  GLY A   1       2.705   2.231  22.722  0.00  0.00    +0.000 HD
ATOM     19  H2  GLY A   1       2.835   3.756  22.182  0.00  0.00    +0.000 HD
ENDBRANCH  16  17
ENDBRANCH  13  16
ENDBRANCH  11  12
ENDBRANCH   2  11
TORSDOF 7
ENDMDL
MODEL 5
REMARK VINA RESULT:      -5.5      1.797      2.266
REMARK  Name = 
REMARK  8 active torsions:
REMARK  status: ('A' for Active; 'I' for Inactive)
REMARK    1  A    between atoms: CB_1  and  CA_2
REMARK    2  A    between atoms: CA_2  and  N_3
REMARK    3  A    between atoms: CA_2  and  C_12
REMARK    4  A    between atoms: C_4  and  CA_6
REMARK    5  A    between atoms: CA_6  and  N_7
REMARK    6  A    between atoms: C_8  and  CA_10
REMARK    7  A    between atoms: CA_10  and  N_11
REMARK    8  A    between atoms: C_12  and  OXT_14
REMARK                            x       y       z     vdW  Elec       q    Type
REMARK                         _______ _______ _______ _____ _____    ______ ____
ROOT
ATOM      1  N   ALA A   3       5.824   4.280  18.686  0.00  0.00    +0.000 N 
ATOM      2  C   GLY A   2       4.629   4.042  18.050  0.00  0.00    +0.000 C 
ATOM      3  O   GLY A   2       4.143   4.819  17.232  0.00  0.00    +0.000 OA
ATOM      4  H   ALA A   3       6.071   3.712  19.498  0.00  0.00    +0.000 HD
ENDROOT
BRANCH   1   6
ATOM      5  CB  ALA A   3       7.686   5.692  19.478  0.00  0.00    +0.000 C 
ATOM      6  CA  ALA A   3       6.662   5.431  18.383  0.00  0.00    +0.000 C 
BRANCH   6   7
ATOM      7  C   ALA A   3       7.379   5.183  17.052  0.00  0.00    +0.000 C 
ATOM      8  O   ALA A   3       7.291   5.918  16.078  0.00  0.00    +0.000 OA
BRANCH   7   9
ATOM      9  OXT ALA A   3       8.114   4.045  17.029  0.00  0.00    +0.000 OA
ATOM     10  HXT ALA A   3       8.835   4.015  17.687  0.00  0.00    +0.000 HD
ENDBRANCH   7   9
ENDBRANCH   6   7
ENDBRANCH   1   6
BRANCH   2  11
ATOM     11  CA  GLY A   2       3.918   2.765  18.502  0.00  0.00    +0.000 C 
BRANCH  11  12
ATOM     12  N   GLY A   2       3.087   3.022  19.655  0.00  0.00    +0.000 N 
ATOM     13  C   GLY A   1       1.758   2.671  19.682  0.00  0.00    +0.000 C 
ATOM     14  O   GLY A   1       1.172   2.188  18.719  0.00  0.00    +0.000 OA
ATOM     15  H   GLY A   2       3.508   3.243  20.555  0.00  0.00    +0.000 HD
BRANCH  13  16
ATOM     16  CA  GLY A   1       1.069   2.967  21.018  0.00  0.00    +0.000 C 
BRANCH  16  17
ATOM     17  N   GLY A   1       1.931   2.566  22.149  0.00  0.00    +0.000 NA
ATOM     18  H1  GLY A   1       2.208   1.592  22.008  0.00  0.00    +0.000 HD
ATOM     19  H2  GLY A   1       1.359   2.561  22.996  0.00  0.00    +0.000 HD
ENDBRANCH  16  17
ENDBRANCH  13  16
ENDBRANCH  11  12
ENDBRANCH   2  11
TORSDOF 7
ENDMDL
MODEL 6
REMARK VINA RESULT:      -5.4      0.756      1.137
REMARK  Name = 
REMARK  8 active torsions:
REMARK  status: ('A' for Active; 'I' for Inactive)
REMARK    1  A    between atoms: CB_1  and  CA_2
REMARK    2  A    between atoms: CA_2  and  N_3
REMARK    3  A    between atoms: CA_2  and  C_12
REMARK    4  A    between atoms: C_4  and  CA_6
REMARK    5  A    between atoms: CA_6  and  N_7
REMARK    6  A    between atoms: C_8  and  CA_10
REMARK    7  A    between atoms: CA_10  and  N_11
REMARK    8  A    between atoms: C_12  and  OXT_14
REMARK                            x       y       z     vdW  Elec       q    Type
REMARK                         _______ _______ _______ _____ _____    ______ ____
ROOT
ATOM      1  N   ALA A   3       4.959   4.793  17.320  0.00  0.00    +0.000 N 
ATOM      2  C   GLY A   2       4.900   4.541  18.669  0.00  0.00    +0.000 C 
ATOM      3  O   GLY A   2       5.614   3.709  19.224  0.00  0.00    +0.000 OA
ATOM      4  H   ALA A   3       4.208   5.333  16.886  0.00  0.00    +0.000 HD
ENDROOT
BRANCH   1   6
ATOM      5  CB  ALA A   3       5.562   4.315  14.975  0.00  0.00    +0.000 C 
ATOM      6  CA  ALA A   3       5.934   4.161  16.442  0.00  0.00    +0.000 C 
BRANCH   6   7
ATOM      7  C   ALA A   3       7.308   4.789  16.697  0.00  0.00    +0.000 C 
ATOM      8  O   ALA A   3       8.219   4.229  17.291  0.00  0.00    +0.000 OA
BRANCH   7   9
ATOM      9  OXT ALA A   3       7.428   6.053  16.224  0.00  0.00    +0.000 OA
ATOM     10  HXT ALA A   3       6.625   6.600  16.322  0.00  0.00    +0.000 HD
ENDBRANCH   7   9
ENDBRANCH   6   7
ENDBRANCH   1   6
BRANCH   2  11
ATOM     11  CA  GLY A   2       3.817   5.327  19.410  0.00  0.00    +0.000 C 
BRANCH  11  12
ATOM     12  N   GLY A   2       2.732   4.459  19.803  0.00  0.00    +0.000 N 
ATOM     13  C   GLY A   1       1.796   4.014  18.899  0.00  0.00    +0.000 C 
ATOM     14  O   GLY A   1       1.772   4.375  17.727  0.00  0.00    +0.000 OA
ATOM     15  H   GLY A   2       2.765   3.961  20.690  0.00  0.00    +0.000 HD
BRANCH  13  16
ATOM     16  CA  GLY A   1       0.768   3.050  19.498  0.00  0.00    +0.000 C 
BRANCH  16  17
ATOM     17  N   GLY A   1       0.413   1.995  18.526  0.00  0.00    +0.000 NA
ATOM     18  H1  GLY A   1       0.003   2.444  17.704  0.00  0.00    +0.000 HD
ATOM     19  H2  GLY A   1      -0.340   1.434  18.928  0.00  0.00    +0.000 HD
ENDBRANCH  16  17
ENDBRANCH  13  16
ENDBRANCH  11  12
ENDBRANCH   2  11
TORSDOF 7
ENDMDL
MODEL 7
REMARK VINA RESULT:      -5.4      2.014      2.631
REMARK  Name = 
REMARK  8 active torsions:
REMARK  status: ('A' for Active; 'I' for Inactive)
REMARK    1  A    between atoms: CB_1  and  CA_2
REMARK    2  A    between atoms: CA_2  and  N_3
REMARK    3  A    between atoms: CA_2  and  C_12
REMARK    4  A    between atoms: C_4  and  CA_6
REMARK    5  A    between atoms: CA_6  and  N_7
REMARK    6  A    between atoms: C_8  and  CA_10
REMARK    7  A    between atoms: CA_10  and  N_11
REMARK    8  A    between atoms: C_12  and  OXT_14
REMARK                            x       y       z     vdW  Elec       q    Type
REMARK                         _______ _______ _______ _____ _____    ______ ____
ROOT
ATOM      1  N   ALA A   3       5.628   5.904  18.158  0.00  0.00    +0.000 N 
ATOM      2  C   GLY A   2       4.273   6.126  18.216  0.00  0.00    +0.000 C 
ATOM      3  O   GLY A   2       3.687   6.872  17.436  0.00  0.00    +0.000 OA
ATOM      4  H   ALA A   3       6.087   5.448  18.949  0.00  0.00    +0.000 HD
ENDROOT
BRANCH   1   6
ATOM      5  CB  ALA A   3       7.604   7.306  17.688  0.00  0.00    +0.000 C 
ATOM      6  CA  ALA A   3       6.474   6.464  17.114  0.00  0.00    +0.000 C 
BRANCH   6   7
ATOM      7  C   ALA A   3       7.056   5.316  16.281  0.00  0.00    +0.000 C 
ATOM      8  O   ALA A   3       7.573   5.460  15.182  0.00  0.00    +0.000 OA
BRANCH   7   9
ATOM      9  OXT ALA A   3       6.927   4.099  16.861  0.00  0.00    +0.000 OA
ATOM     10  HXT ALA A   3       7.731   3.546  16.827  0.00  0.00    +0.000 HD
ENDBRANCH   7   9
ENDBRANCH   6   7
ENDBRANCH   1   6
BRANCH   2  11
ATOM     11  CA  GLY A   2       3.570   5.426  19.380  0.00  0.00    +0.000 C 
BRANCH  11  12
ATOM     12  N   GLY A   2       3.200   4.077  19.018  0.00  0.00    +0.000 N 
ATOM     13  C   GLY A   1       4.089   3.033  19.109  0.00  0.00    +0.000 C 
ATOM     14  O   GLY A   1       5.265   3.179  19.428  0.00  0.00    +0.000 OA
ATOM     15  H   GLY A   2       2.219   3.820  18.922  0.00  0.00    +0.000 HD
BRANCH  13  16
ATOM     16  CA  GLY A   1       3.485   1.674  18.744  0.00  0.00    +0.000 C 
BRANCH  16  17
ATOM     17  N   GLY A   1       2.120   1.839  18.202  0.00  0.00    +0.000 NA
ATOM     18  H1  GLY A   1       1.682   0.917  18.153  0.00  0.00    +0.000 HD
ATOM     19  H2  GLY A   1       2.201   2.148  17.231  0.00  0.00    +0.000 HD
ENDBRANCH  16  17
ENDBRANCH  13  16
ENDBRANCH  11  12
ENDBRANCH   2  11
TORSDOF 7
ENDMDL
MODEL 8
REMARK VINA RESULT:      -5.4      1.599      5.865
REMARK  Name = 
REMARK  8 active torsions:
REMARK  status: ('A' for Active; 'I' for Inactive)
REMARK    1  A    between atoms: CB_1  and  CA_2
REMARK    2  A    between atoms: CA_2  and  N_3
REMARK    3  A    between atoms: CA_2  and  C_12
REMARK    4  A    between atoms: C_4  and  CA_6
REMARK    5  A    between atoms: CA_6  and  N_7
REMARK    6  A    between atoms: C_8  and  CA_10
REMARK    7  A    between atoms: CA_10  and  N_11
REMARK    8  A    between atoms: C_12  and  OXT_14
REMARK                            x       y       z     vdW  Elec       q    Type
REMARK                         _______ _______ _______ _____ _____    ______ ____
ROOT
ATOM      1  N   ALA A   3       3.517   4.692  18.852  0.00  0.00    +0.000 N 
ATOM      2  C   GLY A   2       4.881   4.528  18.896  0.00  0.00    +0.000 C 
ATOM      3  O   GLY A   2       5.421   3.587  19.473  0.00  0.00    +0.000 OA
ATOM      4  H   ALA A   3       3.139   5.589  18.546  0.00  0.00    +0.000 HD
ENDROOT
BRANCH   1   6
ATOM      5  CB  ALA A   3       1.997   4.188  20.730  0.00  0.00    +0.000 C 
ATOM      6  CA  ALA A   3       2.589   3.718  19.409  0.00  0.00    +0.000 C 
BRANCH   6   7
ATOM      7  C   ALA A   3       1.465   3.472  18.397  0.00  0.00    +0.000 C 
ATOM      8  O   ALA A   3       0.698   2.520  18.443  0.00  0.00    +0.000 OA
BRANCH   7   9
ATOM      9  OXT ALA A   3       1.404   4.398  17.411  0.00  0.00    +0.000 OA
ATOM     10  HXT ALA A   3       0.997   5.245  17.675  0.00  0.00    +0.000 HD
ENDBRANCH   7   9
ENDBRANCH   6   7
ENDBRANCH   1   6
BRANCH   2  11
ATOM     11  CA  GLY A   2       5.672   5.657  18.233  0.00  0.00    +0.000 C 
BRANCH  11  12
ATOM     12  N   GLY A   2       5.843   5.402  16.821  0.00  0.00    +0.000 N 
ATOM     13  C   GLY A   1       6.941   4.734  16.333  0.00  0.00    +0.000 C 
ATOM     14  O   GLY A   1       7.876   4.376  17.041  0.00  0.00    +0.000 OA
ATOM     15  H   GLY A   2       5.055   5.490  16.183  0.00  0.00    +0.000 HD
BRANCH  13  16
ATOM     16  CA  GLY A   1       6.902   4.506  14.819  0.00  0.00    +0.000 C 
BRANCH  16  17
ATOM     17  N   GLY A   1       7.755   5.490  14.122  0.00  0.00    +0.000 NA
ATOM     18  H1  GLY A   1       7.171   6.287  13.857  0.00  0.00    +0.000 HD
ATOM     19  H2  GLY A   1       8.058   5.076  13.239  0.00  0.00    +0.000 HD
ENDBRANCH  16  17
ENDBRANCH  13  16
ENDBRANCH  11  12
ENDBRANCH   2  11
TORSDOF 7
ENDMDL
MODEL 9
REMARK VINA RESULT:      -5.4      1.541      1.602
REMARK  Name = 
REMARK  8 active torsions:
REMARK  status: ('A' for Active; 'I' for Inactive)
REMARK    1  A    between atoms: CB_1  and  CA_2
REMARK    2  A    between atoms: CA_2  and  N_3
REMARK    3  A    between atoms: CA_2  and  C_12
REMARK    4  A    between atoms: C_4  and  CA_6
REMARK    5  A    between atoms: CA_6  and  N_7
REMARK    6  A    between atoms: C_8  and  CA_10
REMARK    7  A    between atoms: CA_10  and  N_11
REMARK    8  A    between atoms: C_12  and  OXT_14
REMARK                            x       y       z     vdW  Elec       q    Type
REMARK                         _______ _______ _______ _____ _____    ______ ____
ROOT
ATOM      1  N   ALA A   3       4.681   4.482  16.459  0.00  0.00    +0.000 N 
ATOM      2  C   GLY A   2       3.836   3.746  17.255  0.00  0.00    +0.000 C 
ATOM      3  O   GLY A   2       4.053   2.574  17.552  0.00  0.00    +0.000 OA
ATOM      4  H   ALA A   3       4.349   5.369  16.077  0.00  0.00    +0.000 HD
ENDROOT
BRANCH   1   6
ATOM      5  CB  ALA A   3       6.048   4.037  14.452  0.00  0.00    +0.000 C 
ATOM      6  CA  ALA A   3       5.951   3.965  15.970  0.00  0.00    +0.000 C 
BRANCH   6   7
ATOM      7  C   ALA A   3       7.089   4.774  16.600  0.00  0.00    +0.000 C 
ATOM      8  O   ALA A   3       7.515   5.827  16.146  0.00  0.00    +0.000 OA
BRANCH   7   9
ATOM      9  OXT ALA A   3       7.615   4.204  17.711  0.00  0.00    +0.000 OA
ATOM     10  HXT ALA A   3       8.431   3.691  17.556  0.00  0.00    +0.000 HD
ENDBRANCH   7   9
ENDBRANCH   6   7
ENDBRANCH   1   6
BRANCH   2  11
ATOM     11  CA  GLY A   2       2.565   4.486  17.677  0.00  0.00    +0.000 C 
BRANCH  11  12
ATOM     12  N   GLY A   2       1.880   3.769  18.727  0.00  0.00    +0.000 N 
ATOM     13  C   GLY A   1       2.051   4.089  20.053  0.00  0.00    +0.000 C 
ATOM     14  O   GLY A   1       2.841   4.945  20.440  0.00  0.00    +0.000 OA
ATOM     15  H   GLY A   2       1.078   3.180  18.511  0.00  0.00    +0.000 HD
BRANCH  13  16
ATOM     16  CA  GLY A   1       1.186   3.258  21.005  0.00  0.00    +0.000 C 
BRANCH  16  17
ATOM     17  N   GLY A   1       2.019   2.635  22.055  0.00  0.00    +0.000 NA
ATOM     18  H1  GLY A   1       2.897   2.333  21.628  0.00  0.00    +0.000 HD
ATOM     19  H2  GLY A   1       1.558   1.773  22.354  0.00  0.00    +0.000 HD
ENDBRANCH  16  17
ENDBRANCH  13  16
ENDBRANCH  11  12
ENDBRANCH   2  11
TORSDOF 7
ENDMDL
