MODEL 1
REMARK VINA RESULT:      -9.4      0.000      0.000
REMARK  Name = 
REMARK  6 active torsions:
REMARK  status: ('A' for Active; 'I' for Inactive)
REMARK    1  A    between atoms: C_1  and  C_2
REMARK    2  A    between atoms: C_5  and  C_6
REMARK    3  A    between atoms: C_7  and  N_8
REMARK    4  A    between atoms: C_9  and  C_11
REMARK    5  A    between atoms: C_13  and  C_14
REMARK    6  A    between atoms: C_17  and  N_18
REMARK                            x       y       z     vdW  Elec       q    Type
REMARK                         _______ _______ _______ _____ _____    ______ ____
ROOT
ATOM      1  C   UNL     1       3.238   4.897  19.597  0.00  0.00    +0.000 A 
ATOM      2  C   UNL     1       3.888   5.174  18.414  0.00  0.00    +0.000 A 
ATOM      3  C   UNL     1       4.849   4.269  18.024  0.00  0.00    +0.000 A 
ATOM      4  N   UNL     1       5.112   3.167  18.766  0.00  0.00    +0.000 NA
ATOM      5  C   UNL     1       4.416   2.983  19.893  0.00  0.00    +0.000 A 
ATOM      6  N   UNL     1       4.681   1.851  20.629  0.00  0.00    +0.000 N 
ATOM      7  N   UNL     1       3.498   3.820  20.370  0.00  0.00    +0.000 NA
ATOM      8  H   UNL     1       5.608   1.497  20.436  0.00  0.00    +0.000 HD
ATOM      9  H   UNL     1       4.413   1.964  21.595  0.00  0.00    +0.000 HD
ENDROOT
BRANCH   3  10
ATOM     10  C   UNL     1       5.612   4.412  16.759  0.00  0.00    +0.000 A 
ATOM     11  C   UNL     1       6.929   4.920  16.745  0.00  0.00    +0.000 A 
ATOM     12  C   UNL     1       7.623   5.137  15.548  0.00  0.00    +0.000 A 
ATOM     13  C   UNL     1       7.004   4.837  14.331  0.00  0.00    +0.000 A 
ATOM     14  C   UNL     1       5.713   4.299  14.308  0.00  0.00    +0.000 A 
ATOM     15  C   UNL     1       5.034   4.082  15.516  0.00  0.00    +0.000 A 
BRANCH  13  16
ATOM     16  N   UNL     1       7.708   5.098  13.069  0.00  0.00    +0.000 N 
ATOM     17  O   UNL     1       7.311   4.495  12.052  0.00  0.00    +0.000 OA
ATOM     18  O   UNL     1       8.650   5.900  13.087  0.00  0.00    +0.000 OA
ENDBRANCH  13  16
ENDBRANCH   3  10
BRANCH   1  20
ATOM     19  N   UNL     1       2.482   7.175  19.950  0.00  0.00    +0.000 N 
ATOM     20  C   UNL     1       2.167   5.831  20.076  0.00  0.00    +0.000 C 
ATOM     21  O   UNL     1       1.100   5.377  20.472  0.00  0.00    +0.000 OA
ATOM     22  H   UNL     1       3.274   7.379  19.350  0.00  0.00    +0.000 HD
BRANCH  19  29
ATOM     23  C   UNL     1      -0.206   9.589  23.327  0.00  0.00    +0.000 C 
ATOM     24  C   UNL     1       0.245   9.416  21.907  0.00  0.00    +0.000 A 
ATOM     25  C   UNL     1      -0.158  10.311  20.914  0.00  0.00    +0.000 A 
ATOM     26  C   UNL     1       0.304  10.164  19.605  0.00  0.00    +0.000 A 
ATOM     27  C   UNL     1       1.191   9.130  19.263  0.00  0.00    +0.000 A 
ATOM     28  C   UNL     1       1.618   8.986  17.829  0.00  0.00    +0.000 C 
ATOM     29  C   UNL     1       1.575   8.212  20.253  0.00  0.00    +0.000 A 
ATOM     30  C   UNL     1       1.096   8.356  21.563  0.00  0.00    +0.000 A 
ENDBRANCH  19  29
ENDBRANCH   1  20
TORSDOF 4
ENDMDL
MODEL 2
REMARK VINA RESULT:      -8.7      1.987      2.925
REMARK  Name = 
REMARK  6 active torsions:
REMARK  status: ('A' for Active; 'I' for Inactive)
REMARK    1  A    between atoms: C_1  and  C_2
REMARK    2  A    between atoms: C_5  and  C_6
REMARK    3  A    between atoms: C_7  and  N_8
REMARK    4  A    between atoms: C_9  and  C_11
REMARK    5  A    between atoms: C_13  and  C_14
REMARK    6  A    between atoms: C_17  and  N_18
REMARK                            x       y       z     vdW  Elec       q    Type
REMARK                         _______ _______ _______ _____ _____    ______ ____
ROOT
ATOM      1  C   UNL     1       1.795   7.138  20.050  0.00  0.00    +0.000 A 
ATOM      2  C   UNL     1       2.601   7.052  18.936  0.00  0.00    +0.000 A 
ATOM      3  C   UNL     1       3.156   5.818  18.682  0.00  0.00    +0.000 A 
ATOM      4  N   UNL     1       2.896   4.758  19.484  0.00  0.00    +0.000 NA
ATOM      5  C   UNL     1       2.090   4.943  20.535  0.00  0.00    +0.000 A 
ATOM      6  N   UNL     1       1.821   3.854  21.332  0.00  0.00    +0.000 N 
ATOM      7  N   UNL     1       1.540   6.104  20.882  0.00  0.00    +0.000 NA
ATOM      8  H   UNL     1       2.544   3.153  21.251  0.00  0.00    +0.000 HD
ATOM      9  H   UNL     1       1.537   4.133  22.259  0.00  0.00    +0.000 HD
ENDROOT
BRANCH   3  10
ATOM     10  C   UNL     1       4.019   5.560  17.504  0.00  0.00    +0.000 A 
ATOM     11  C   UNL     1       4.313   4.247  17.077  0.00  0.00    +0.000 A 
ATOM     12  C   UNL     1       5.194   3.994  16.019  0.00  0.00    +0.000 A 
ATOM     13  C   UNL     1       5.797   5.067  15.355  0.00  0.00    +0.000 A 
ATOM     14  C   UNL     1       5.502   6.383  15.727  0.00  0.00    +0.000 A 
ATOM     15  C   UNL     1       4.613   6.619  16.786  0.00  0.00    +0.000 A 
BRANCH  13  16
ATOM     16  N   UNL     1       6.753   4.812  14.271  0.00  0.00    +0.000 N 
ATOM     17  O   UNL     1       7.804   5.484  14.259  0.00  0.00    +0.000 OA
ATOM     18  O   UNL     1       6.464   3.948  13.435  0.00  0.00    +0.000 OA
ENDBRANCH  13  16
ENDBRANCH   3  10
BRANCH   1  20
ATOM     19  N   UNL     1       1.191   9.383  19.357  0.00  0.00    +0.000 N 
ATOM     20  C   UNL     1       1.145   8.448  20.379  0.00  0.00    +0.000 C 
ATOM     21  O   UNL     1       0.579   8.589  21.458  0.00  0.00    +0.000 OA
ATOM     22  H   UNL     1       1.440   9.014  18.446  0.00  0.00    +0.000 HD
BRANCH  19  29
ATOM     23  C   UNL     1       1.092  13.970  21.201  0.00  0.00    +0.000 C 
ATOM     24  C   UNL     1       0.492  12.907  20.329  0.00  0.00    +0.000 A 
ATOM     25  C   UNL     1      -0.628  13.176  19.540  0.00  0.00    +0.000 A 
ATOM     26  C   UNL     1      -1.150  12.191  18.701  0.00  0.00    +0.000 A 
ATOM     27  C   UNL     1      -0.555  10.921  18.619  0.00  0.00    +0.000 A 
ATOM     28  C   UNL     1      -1.186   9.881  17.737  0.00  0.00    +0.000 C 
ATOM     29  C   UNL     1       0.555  10.639  19.431  0.00  0.00    +0.000 A 
ATOM     30  C   UNL     1       1.066  11.628  20.284  0.00  0.00    +0.000 A 
ENDBRANCH  19  29
ENDBRANCH   1  20
TORSDOF 4
ENDMDL
MODEL 3
REMARK VINA RESULT:      -8.6      0.893      1.072
REMARK  Name = 
REMARK  6 active torsions:
REMARK  status: ('A' for Active; 'I' for Inactive)
REMARK    1  A    between atoms: C_1  and  C_2
REMARK    2  A    between atoms: C_5  and  C_6
REMARK    3  A    between atoms: C_7  and  N_8
REMARK    4  A    between atoms: C_9  and  C_11
REMARK    5  A    between atoms: C_13  and  C_14
REMARK    6  A    between atoms: C_17  and  N_18
REMARK                            x       y       z     vdW  Elec       q    Type
REMARK                         _______ _______ _______ _____ _____    ______ ____
ROOT
ATOM      1  C   UNL     1       2.730   4.761  19.081  0.00  0.00    +0.000 A 
ATOM      2  C   UNL     1       3.645   5.151  18.128  0.00  0.00    +0.000 A 
ATOM      3  C   UNL     1       4.286   4.138  17.452  0.00  0.00    +0.000 A 
ATOM      4  N   UNL     1       4.006   2.839  17.713  0.00  0.00    +0.000 NA
ATOM      5  C   UNL     1       3.091   2.565  18.649  0.00  0.00    +0.000 A 
ATOM      6  N   UNL     1       2.803   1.242  18.892  0.00  0.00    +0.000 N 
ATOM      7  N   UNL     1       2.450   3.473  19.380  0.00  0.00    +0.000 NA
ATOM      8  H   UNL     1       3.567   0.643  18.612  0.00  0.00    +0.000 HD
ATOM      9  H   UNL     1       2.415   1.109  19.814  0.00  0.00    +0.000 HD
ENDROOT
BRANCH   3  10
ATOM     10  C   UNL     1       5.274   4.398  16.376  0.00  0.00    +0.000 A 
ATOM     11  C   UNL     1       6.197   5.462  16.462  0.00  0.00    +0.000 A 
ATOM     12  C   UNL     1       7.075   5.765  15.414  0.00  0.00    +0.000 A 
ATOM     13  C   UNL     1       7.047   4.992  14.249  0.00  0.00    +0.000 A 
ATOM     14  C   UNL     1       6.169   3.908  14.142  0.00  0.00    +0.000 A 
ATOM     15  C   UNL     1       5.301   3.614  15.204  0.00  0.00    +0.000 A 
BRANCH  13  16
ATOM     16  N   UNL     1       7.934   5.326  13.128  0.00  0.00    +0.000 N 
ATOM     17  O   UNL     1       8.932   6.031  13.373  0.00  0.00    +0.000 OA
ATOM     18  O   UNL     1       7.641   4.890  12.008  0.00  0.00    +0.000 OA
ENDBRANCH  13  16
ENDBRANCH   3  10
BRANCH   1  20
ATOM     19  N   UNL     1       2.275   7.113  19.468  0.00  0.00    +0.000 N 
ATOM     20  C   UNL     1       1.982   5.812  19.845  0.00  0.00    +0.000 C 
ATOM     21  O   UNL     1       1.145   5.476  20.676  0.00  0.00    +0.000 OA
ATOM     22  H   UNL     1       2.767   7.206  18.586  0.00  0.00    +0.000 HD
BRANCH  19  29
ATOM     23  C   UNL     1       0.236   9.376  23.362  0.00  0.00    +0.000 C 
ATOM     24  C   UNL     1       0.602   9.371  21.908  0.00  0.00    +0.000 A 
ATOM     25  C   UNL     1       0.366  10.490  21.106  0.00  0.00    +0.000 A 
ATOM     26  C   UNL     1       0.751  10.487  19.765  0.00  0.00    +0.000 A 
ATOM     27  C   UNL     1       1.396   9.375  19.199  0.00  0.00    +0.000 A 
ATOM     28  C   UNL     1       1.745   9.405  17.738  0.00  0.00    +0.000 C 
ATOM     29  C   UNL     1       1.610   8.238  19.996  0.00  0.00    +0.000 A 
ATOM     30  C   UNL     1       1.207   8.241  21.339  0.00  0.00    +0.000 A 
ENDBRANCH  19  29
ENDBRANCH   1  20
TORSDOF 4
ENDMDL
MODEL 4
REMARK VINA RESULT:      -8.5      2.642      8.314
REMARK  Name = 
REMARK  6 active torsions:
REMARK  status: ('A' for Active; 'I' for Inactive)
REMARK    1  A    between atoms: C_1  and  C_2
REMARK    2  A    between atoms: C_5  and  C_6
REMARK    3  A    between atoms: C_7  and  N_8
REMARK    4  A    between atoms: C_9  and  C_11
REMARK    5  A    between atoms: C_13  and  C_14
REMARK    6  A    between atoms: C_17  and  N_18
REMARK                            x       y       z     vdW  Elec       q    Type
REMARK                         _______ _______ _______ _____ _____    ______ ____
ROOT
ATOM      1  C   UNL     1       3.289   4.608  18.862  0.00  0.00    +0.000 A 
ATOM      2  C   UNL     1       2.910   5.932  18.895  0.00  0.00    +0.000 A 
ATOM      3  C   UNL     1       2.170   6.324  19.987  0.00  0.00    +0.000 A 
ATOM      4  N   UNL     1       1.859   5.446  20.971  0.00  0.00    +0.000 NA
ATOM      5  C   UNL     1       2.286   4.185  20.851  0.00  0.00    +0.000 A 
ATOM      6  N   UNL     1       1.978   3.307  21.864  0.00  0.00    +0.000 N 
ATOM      7  N   UNL     1       2.971   3.705  19.816  0.00  0.00    +0.000 NA
ATOM      8  H   UNL     1       1.166   3.615  22.382  0.00  0.00    +0.000 HD
ATOM      9  H   UNL     1       1.998   2.350  21.547  0.00  0.00    +0.000 HD
ENDROOT
BRANCH   3  10
ATOM     10  C   UNL     1       1.714   7.723  20.181  0.00  0.00    +0.000 A 
ATOM     11  C   UNL     1       1.287   8.192  21.442  0.00  0.00    +0.000 A 
ATOM     12  C   UNL     1       0.776   9.485  21.614  0.00  0.00    +0.000 A 
ATOM     13  C   UNL     1       0.693  10.343  20.514  0.00  0.00    +0.000 A 
ATOM     14  C   UNL     1       1.140   9.924  19.256  0.00  0.00    +0.000 A 
ATOM     15  C   UNL     1       1.654   8.628  19.102  0.00  0.00    +0.000 A 
BRANCH  13  16
ATOM     16  N   UNL     1       0.122  11.686  20.675  0.00  0.00    +0.000 N 
ATOM     17  O   UNL     1       0.547  12.383  21.618  0.00  0.00    +0.000 OA
ATOM     18  O   UNL     1      -0.744  12.047  19.869  0.00  0.00    +0.000 OA
ENDBRANCH  13  16
ENDBRANCH   3  10
BRANCH   1  20
ATOM     19  N   UNL     1       4.508   5.104  16.824  0.00  0.00    +0.000 N 
ATOM     20  C   UNL     1       4.111   4.115  17.710  0.00  0.00    +0.000 C 
ATOM     21  O   UNL     1       4.426   2.931  17.653  0.00  0.00    +0.000 OA
ATOM     22  H   UNL     1       4.406   6.054  17.164  0.00  0.00    +0.000 HD
BRANCH  19  29
ATOM     23  C   UNL     1       5.124   3.340  12.245  0.00  0.00    +0.000 C 
ATOM     24  C   UNL     1       5.686   4.000  13.470  0.00  0.00    +0.000 A 
ATOM     25  C   UNL     1       7.009   4.442  13.502  0.00  0.00    +0.000 A 
ATOM     26  C   UNL     1       7.506   5.093  14.632  0.00  0.00    +0.000 A 
ATOM     27  C   UNL     1       6.688   5.331  15.748  0.00  0.00    +0.000 A 
ATOM     28  C   UNL     1       7.286   5.991  16.958  0.00  0.00    +0.000 C 
ATOM     29  C   UNL     1       5.364   4.863  15.730  0.00  0.00    +0.000 A 
ATOM     30  C   UNL     1       4.875   4.196  14.597  0.00  0.00    +0.000 A 
ENDBRANCH  19  29
ENDBRANCH   1  20
TORSDOF 4
ENDMDL
MODEL 5
REMARK VINA RESULT:      -8.5      1.924      2.709
REMARK  Name = 
REMARK  6 active torsions:
REMARK  status: ('A' for Active; 'I' for Inactive)
REMARK    1  A    between atoms: C_1  and  C_2
REMARK    2  A    between atoms: C_5  and  C_6
REMARK    3  A    between atoms: C_7  and  N_8
REMARK    4  A    between atoms: C_9  and  C_11
REMARK    5  A    between atoms: C_13  and  C_14
REMARK    6  A    between atoms: C_17  and  N_18
REMARK                            x       y       z     vdW  Elec       q    Type
REMARK                         _______ _______ _______ _____ _____    ______ ____
ROOT
ATOM      1  C   UNL     1       1.818   6.968  20.264  0.00  0.00    +0.000 A 
ATOM      2  C   UNL     1       2.699   6.915  19.207  0.00  0.00    +0.000 A 
ATOM      3  C   UNL     1       2.964   5.663  18.700  0.00  0.00    +0.000 A 
ATOM      4  N   UNL     1       2.368   4.561  19.215  0.00  0.00    +0.000 NA
ATOM      5  C   UNL     1       1.517   4.721  20.233  0.00  0.00    +0.000 A 
ATOM      6  N   UNL     1       0.904   3.596  20.736  0.00  0.00    +0.000 N 
ATOM      7  N   UNL     1       1.229   5.883  20.814  0.00  0.00    +0.000 NA
ATOM      8  H   UNL     1       1.441   2.765  20.532  0.00  0.00    +0.000 HD
ATOM      9  H   UNL     1       0.593   3.734  21.686  0.00  0.00    +0.000 HD
ENDROOT
BRANCH   3  10
ATOM     10  C   UNL     1       3.867   5.446  17.542  0.00  0.00    +0.000 A 
ATOM     11  C   UNL     1       4.163   4.150  17.070  0.00  0.00    +0.000 A 
ATOM     12  C   UNL     1       5.079   3.933  16.033  0.00  0.00    +0.000 A 
ATOM     13  C   UNL     1       5.715   5.027  15.439  0.00  0.00    +0.000 A 
ATOM     14  C   UNL     1       5.421   6.329  15.858  0.00  0.00    +0.000 A 
ATOM     15  C   UNL     1       4.496   6.529  16.893  0.00  0.00    +0.000 A 
BRANCH  13  16
ATOM     16  N   UNL     1       6.708   4.809  14.379  0.00  0.00    +0.000 N 
ATOM     17  O   UNL     1       6.452   3.943  13.519  0.00  0.00    +0.000 OA
ATOM     18  O   UNL     1       7.737   5.495  14.400  0.00  0.00    +0.000 OA
ENDBRANCH  13  16
ENDBRANCH   3  10
BRANCH   1  20
ATOM     19  N   UNL     1       0.859   9.178  19.974  0.00  0.00    +0.000 N 
ATOM     20  C   UNL     1       1.470   8.301  20.856  0.00  0.00    +0.000 C 
ATOM     21  O   UNL     1       1.678   8.507  22.047  0.00  0.00    +0.000 OA
ATOM     22  H   UNL     1       0.508   8.756  19.121  0.00  0.00    +0.000 HD
BRANCH  19  29
ATOM     23  C   UNL     1      -1.977  11.870  23.001  0.00  0.00    +0.000 C 
ATOM     24  C   UNL     1      -1.024  11.787  21.845  0.00  0.00    +0.000 A 
ATOM     25  C   UNL     1      -0.564  12.943  21.212  0.00  0.00    +0.000 A 
ATOM     26  C   UNL     1       0.356  12.852  20.166  0.00  0.00    +0.000 A 
ATOM     27  C   UNL     1       0.849  11.608  19.742  0.00  0.00    +0.000 A 
ATOM     28  C   UNL     1       1.801  11.564  18.580  0.00  0.00    +0.000 C 
ATOM     29  C   UNL     1       0.368  10.442  20.359  0.00  0.00    +0.000 A 
ATOM     30  C   UNL     1      -0.568  10.538  21.399  0.00  0.00    +0.000 A 
ENDBRANCH  19  29
ENDBRANCH   1  20
TORSDOF 4
ENDMDL
MODEL 6
REMARK VINA RESULT:      -8.4      2.158      3.156
REMARK  Name = 
REMARK  6 active torsions:
REMARK  status: ('A' for Active; 'I' for Inactive)
REMARK    1  A    between atoms: C_1  and  C_2
REMARK    2  A    between atoms: C_5  and  C_6
REMARK    3  A    between atoms: C_7  and  N_8
REMARK    4  A    between atoms: C_9  and  C_11
REMARK    5  A    between atoms: C_13  and  C_14
REMARK    6  A    between atoms: C_17  and  N_18
REMARK                            x       y       z     vdW  Elec       q    Type
REMARK                         _______ _______ _______ _____ _____    ______ ____
ROOT
ATOM      1  C   UNL     1       1.945   7.523  19.722  0.00  0.00    +0.000 A 
ATOM      2  C   UNL     1       2.722   7.336  18.600  0.00  0.00    +0.000 A 
ATOM      3  C   UNL     1       3.278   6.086  18.449  0.00  0.00    +0.000 A 
ATOM      4  N   UNL     1       3.046   5.105  19.354  0.00  0.00    +0.000 NA
ATOM      5  C   UNL     1       2.266   5.385  20.403  0.00  0.00    +0.000 A 
ATOM      6  N   UNL     1       2.025   4.375  21.306  0.00  0.00    +0.000 N 
ATOM      7  N   UNL     1       1.719   6.571  20.654  0.00  0.00    +0.000 NA
ATOM      8  H   UNL     1       2.751   3.673  21.273  0.00  0.00    +0.000 HD
ATOM      9  H   UNL     1       1.763   4.739  22.211  0.00  0.00    +0.000 HD
ENDROOT
BRANCH   3  10
ATOM     10  C   UNL     1       4.112   5.720  17.277  0.00  0.00    +0.000 A 
ATOM     11  C   UNL     1       4.396   4.374  16.965  0.00  0.00    +0.000 A 
ATOM     12  C   UNL     1       5.251   4.025  15.912  0.00  0.00    +0.000 A 
ATOM     13  C   UNL     1       5.835   5.033  15.139  0.00  0.00    +0.000 A 
ATOM     14  C   UNL     1       5.549   6.377  15.397  0.00  0.00    +0.000 A 
ATOM     15  C   UNL     1       4.686   6.709  16.452  0.00  0.00    +0.000 A 
BRANCH  13  16
ATOM     16  N   UNL     1       6.765   4.680  14.058  0.00  0.00    +0.000 N 
ATOM     17  O   UNL     1       7.808   5.355  13.952  0.00  0.00    +0.000 OA
ATOM     18  O   UNL     1       6.461   3.736  13.319  0.00  0.00    +0.000 OA
ENDBRANCH  13  16
ENDBRANCH   3  10
BRANCH   1  20
ATOM     19  N   UNL     1       0.979   9.540  18.780  0.00  0.00    +0.000 N 
ATOM     20  C   UNL     1       1.295   8.856  19.944  0.00  0.00    +0.000 C 
ATOM     21  O   UNL     1       1.033   9.219  21.085  0.00  0.00    +0.000 OA
ATOM     22  H   UNL     1       1.003   8.983  17.932  0.00  0.00    +0.000 HD
BRANCH  19  29
ATOM     23  C   UNL     1      -3.298  11.966  19.295  0.00  0.00    +0.000 C 
ATOM     24  C   UNL     1      -1.823  11.976  19.023  0.00  0.00    +0.000 A 
ATOM     25  C   UNL     1      -1.137  13.179  18.845  0.00  0.00    +0.000 A 
ATOM     26  C   UNL     1       0.243  13.177  18.635  0.00  0.00    +0.000 A 
ATOM     27  C   UNL     1       0.970  11.975  18.617  0.00  0.00    +0.000 A 
ATOM     28  C   UNL     1       2.446  12.026  18.338  0.00  0.00    +0.000 C 
ATOM     29  C   UNL     1       0.279  10.763  18.769  0.00  0.00    +0.000 A 
ATOM     30  C   UNL     1      -1.110  10.770  18.964  0.00  0.00    +0.000 A 
ENDBRANCH  19  29
ENDBRANCH   1  20
TORSDOF 4
ENDMDL
MODEL 7
REMARK VINA RESULT:      -8.3      2.138      3.027
REMARK  Name = 
REMARK  6 active torsions:
REMARK  status: ('A' for Active; 'I' for Inactive)
REMARK    1  A    between atoms: C_1  and  C_2
REMARK    2  A    between atoms: C_5  and  C_6
REMARK    3  A    between atoms: C_7  and  N_8
REMARK    4  A    between atoms: C_9  and  C_11
REMARK    5  A    between atoms: C_13  and  C_14
REMARK    6  A    between atoms: C_17  and  N_18
REMARK                            x       y       z     vdW  Elec       q    Type
REMARK                         _______ _______ _______ _____ _____    ______ ____
ROOT
ATOM      1  C   UNL     1       1.962   7.483  19.750  0.00  0.00    +0.000 A 
ATOM      2  C   UNL     1       2.825   7.308  18.691  0.00  0.00    +0.000 A 
ATOM      3  C   UNL     1       3.364   6.050  18.548  0.00  0.00    +0.000 A 
ATOM      4  N   UNL     1       3.036   5.050  19.401  0.00  0.00    +0.000 NA
ATOM      5  C   UNL     1       2.178   5.319  20.391  0.00  0.00    +0.000 A 
ATOM      6  N   UNL     1       1.840   4.291  21.240  0.00  0.00    +0.000 N 
ATOM      7  N   UNL     1       1.638   6.511  20.631  0.00  0.00    +0.000 NA
ATOM      8  H   UNL     1       2.550   3.572  21.246  0.00  0.00    +0.000 HD
ATOM      9  H   UNL     1       1.512   4.635  22.130  0.00  0.00    +0.000 HD
ENDROOT
BRANCH   3  10
ATOM     10  C   UNL     1       4.283   5.698  17.439  0.00  0.00    +0.000 A 
ATOM     11  C   UNL     1       4.851   6.687  16.607  0.00  0.00    +0.000 A 
ATOM     12  C   UNL     1       5.651   6.356  15.507  0.00  0.00    +0.000 A 
ATOM     13  C   UNL     1       5.908   5.012  15.223  0.00  0.00    +0.000 A 
ATOM     14  C   UNL     1       5.392   4.005  16.046  0.00  0.00    +0.000 A 
ATOM     15  C   UNL     1       4.596   4.353  17.148  0.00  0.00    +0.000 A 
BRANCH  13  16
ATOM     16  N   UNL     1       6.712   4.653  14.049  0.00  0.00    +0.000 N 
ATOM     17  O   UNL     1       6.322   3.694  13.354  0.00  0.00    +0.000 OA
ATOM     18  O   UNL     1       7.728   5.320  13.817  0.00  0.00    +0.000 OA
ENDBRANCH  13  16
ENDBRANCH   3  10
BRANCH   1  20
ATOM     19  N   UNL     1       1.035   9.508  18.787  0.00  0.00    +0.000 N 
ATOM     20  C   UNL     1       1.326   8.825  19.958  0.00  0.00    +0.000 C 
ATOM     21  O   UNL     1       1.052   9.196  21.094  0.00  0.00    +0.000 OA
ATOM     22  H   UNL     1       1.063   8.947  17.942  0.00  0.00    +0.000 HD
BRANCH  19  29
ATOM     23  C   UNL     1      -3.194  12.006  19.362  0.00  0.00    +0.000 C 
ATOM     24  C   UNL     1      -1.728  11.989  19.045  0.00  0.00    +0.000 A 
ATOM     25  C   UNL     1      -1.033  13.176  18.810  0.00  0.00    +0.000 A 
ATOM     26  C   UNL     1       0.340  13.149  18.558  0.00  0.00    +0.000 A 
ATOM     27  C   UNL     1       1.050  11.938  18.553  0.00  0.00    +0.000 A 
ATOM     28  C   UNL     1       2.518  11.960  18.227  0.00  0.00    +0.000 C 
ATOM     29  C   UNL     1       0.349  10.740  18.762  0.00  0.00    +0.000 A 
ATOM     30  C   UNL     1      -1.033  10.771  18.999  0.00  0.00    +0.000 A 
ENDBRANCH  19  29
ENDBRANCH   1  20
TORSDOF 4
ENDMDL
MODEL 8
REMARK VINA RESULT:      -8.2      2.924      9.050
REMARK  Name = 
REMARK  6 active torsions:
REMARK  status: ('A' for Active; 'I' for Inactive)
REMARK    1  A    between atoms: C_1  and  C_2
REMARK    2  A    between atoms: C_5  and  C_6
REMARK    3  A    between atoms: C_7  and  N_8
REMARK    4  A    between atoms: C_9  and  C_11
REMARK    5  A    between atoms: C_13  and  C_14
REMARK    6  A    between atoms: C_17  and  N_18
REMARK                            x       y       z     vdW  Elec       q    Type
REMARK                         _______ _______ _______ _____ _____    ______ ____
ROOT
ATOM      1  C   UNL     1       2.952   6.340  19.018  0.00  0.00    +0.000 A 
ATOM      2  C   UNL     1       2.334   7.505  19.414  0.00  0.00    +0.000 A 
ATOM      3  C   UNL     1       1.492   7.407  20.499  0.00  0.00    +0.000 A 
ATOM      4  N   UNL     1       1.312   6.226  21.136  0.00  0.00    +0.000 NA
ATOM      5  C   UNL     1       1.969   5.154  20.681  0.00  0.00    +0.000 A 
ATOM      6  N   UNL     1       1.790   3.964  21.347  0.00  0.00    +0.000 N 
ATOM      7  N   UNL     1       2.770   5.144  19.619  0.00  0.00    +0.000 NA
ATOM      8  H   UNL     1       0.916   3.956  21.855  0.00  0.00    +0.000 HD
ATOM      9  H   UNL     1       1.998   3.172  20.758  0.00  0.00    +0.000 HD
ENDROOT
BRANCH   3  10
ATOM     10  C   UNL     1       0.780   8.579  21.064  0.00  0.00    +0.000 A 
ATOM     11  C   UNL     1       0.644   9.782  20.337  0.00  0.00    +0.000 A 
ATOM     12  C   UNL     1       0.047  10.919  20.896  0.00  0.00    +0.000 A 
ATOM     13  C   UNL     1      -0.438  10.866  22.206  0.00  0.00    +0.000 A 
ATOM     14  C   UNL     1      -0.352   9.682  22.944  0.00  0.00    +0.000 A 
ATOM     15  C   UNL     1       0.243   8.550  22.368  0.00  0.00    +0.000 A 
BRANCH  13  16
ATOM     16  N   UNL     1      -1.028  12.064  22.815  0.00  0.00    +0.000 N 
ATOM     17  O   UNL     1      -2.247  12.037  23.077  0.00  0.00    +0.000 OA
ATOM     18  O   UNL     1      -0.285  13.029  23.034  0.00  0.00    +0.000 OA
ENDBRANCH  13  16
ENDBRANCH   3  10
BRANCH   1  20
ATOM     19  N   UNL     1       4.591   5.196  17.643  0.00  0.00    +0.000 N 
ATOM     20  C   UNL     1       3.895   6.376  17.852  0.00  0.00    +0.000 C 
ATOM     21  O   UNL     1       3.947   7.377  17.146  0.00  0.00    +0.000 OA
ATOM     22  H   UNL     1       4.226   4.387  18.134  0.00  0.00    +0.000 HD
BRANCH  19  29
ATOM     23  C   UNL     1       5.212   3.659  12.984  0.00  0.00    +0.000 C 
ATOM     24  C   UNL     1       5.776   4.241  14.246  0.00  0.00    +0.000 A 
ATOM     25  C   UNL     1       7.109   4.652  14.311  0.00  0.00    +0.000 A 
ATOM     26  C   UNL     1       7.609   5.232  15.478  0.00  0.00    +0.000 A 
ATOM     27  C   UNL     1       6.785   5.430  16.598  0.00  0.00    +0.000 A 
ATOM     28  C   UNL     1       7.387   6.013  17.846  0.00  0.00    +0.000 C 
ATOM     29  C   UNL     1       5.452   4.992  16.545  0.00  0.00    +0.000 A 
ATOM     30  C   UNL     1       4.959   4.396  15.375  0.00  0.00    +0.000 A 
ENDBRANCH  19  29
ENDBRANCH   1  20
TORSDOF 4
ENDMDL
MODEL 9
REMARK VINA RESULT:      -8.2      1.900      3.186
REMARK  Name = 
REMARK  6 active torsions:
REMARK  status: ('A' for Active; 'I' for Inactive)
REMARK    1  A    between atoms: C_1  and  C_2
REMARK    2  A    between atoms: C_5  and  C_6
REMARK    3  A    between atoms: C_7  and  N_8
REMARK    4  A    between atoms: C_9  and  C_11
REMARK    5  A    between atoms: C_13  and  C_14
REMARK    6  A    between atoms: C_17  and  N_18
REMARK                            x       y       z     vdW  Elec       q    Type
REMARK                         _______ _______ _______ _____ _____    ______ ____
ROOT
ATOM      1  C   UNL     1       1.973   7.448  19.660  0.00  0.00    +0.000 A 
ATOM      2  C   UNL     1       2.828   7.276  18.593  0.00  0.00    +0.000 A 
ATOM      3  C   UNL     1       3.430   6.043  18.491  0.00  0.00    +0.000 A 
ATOM      4  N   UNL     1       3.169   5.062  19.389  0.00  0.00    +0.000 NA
ATOM      5  C   UNL     1       2.314   5.326  20.382  0.00  0.00    +0.000 A 
ATOM      6  N   UNL     1       2.044   4.316  21.277  0.00  0.00    +0.000 N 
ATOM      7  N   UNL     1       1.715   6.496  20.584  0.00  0.00    +0.000 NA
ATOM      8  H   UNL     1       2.791   3.636  21.298  0.00  0.00    +0.000 HD
ATOM      9  H   UNL     1       1.713   4.679  22.158  0.00  0.00    +0.000 HD
ENDROOT
BRANCH   3  10
ATOM     10  C   UNL     1       4.350   5.694  17.380  0.00  0.00    +0.000 A 
ATOM     11  C   UNL     1       4.800   6.667  16.462  0.00  0.00    +0.000 A 
ATOM     12  C   UNL     1       5.600   6.330  15.363  0.00  0.00    +0.000 A 
ATOM     13  C   UNL     1       5.974   4.997  15.168  0.00  0.00    +0.000 A 
ATOM     14  C   UNL     1       5.576   4.012  16.078  0.00  0.00    +0.000 A 
ATOM     15  C   UNL     1       4.780   4.366  17.176  0.00  0.00    +0.000 A 
BRANCH  13  16
ATOM     16  N   UNL     1       6.778   4.627  13.997  0.00  0.00    +0.000 N 
ATOM     17  O   UNL     1       7.807   5.294  13.770  0.00  0.00    +0.000 OA
ATOM     18  O   UNL     1       6.391   3.677  13.306  0.00  0.00    +0.000 OA
ENDBRANCH  13  16
ENDBRANCH   3  10
BRANCH   1  20
ATOM     19  N   UNL     1       0.373   8.802  20.882  0.00  0.00    +0.000 N 
ATOM     20  C   UNL     1       1.269   8.761  19.825  0.00  0.00    +0.000 C 
ATOM     21  O   UNL     1       1.559   9.700  19.092  0.00  0.00    +0.000 OA
ATOM     22  H   UNL     1       0.462   8.045  21.552  0.00  0.00    +0.000 HD
BRANCH  19  29
ATOM     23  C   UNL     1      -2.244  12.786  19.570  0.00  0.00    +0.000 C 
ATOM     24  C   UNL     1      -1.612  11.940  20.635  0.00  0.00    +0.000 A 
ATOM     25  C   UNL     1      -1.771  12.253  21.986  0.00  0.00    +0.000 A 
ATOM     26  C   UNL     1      -1.214  11.433  22.968  0.00  0.00    +0.000 A 
ATOM     27  C   UNL     1      -0.501  10.273  22.623  0.00  0.00    +0.000 A 
ATOM     28  C   UNL     1       0.121   9.452  23.717  0.00  0.00    +0.000 C 
ATOM     29  C   UNL     1      -0.317   9.970  21.264  0.00  0.00    +0.000 A 
ATOM     30  C   UNL     1      -0.866  10.806  20.281  0.00  0.00    +0.000 A 
ENDBRANCH  19  29
ENDBRANCH   1  20
TORSDOF 4
ENDMDL
