MODEL 1
REMARK VINA RESULT:      -8.2      0.000      0.000
REMARK  Name = 
REMARK  14 active torsions:
REMARK  status: ('A' for Active; 'I' for Inactive)
REMARK    1  A    between atoms: C_1  and  C_2
REMARK    2  A    between atoms: C_2  and  C_3
REMARK    3  A    between atoms: C_3  and  O_4
REMARK    4  A    between atoms: O_4  and  C_5
REMARK    5  A    between atoms: C_5  and  C_6
REMARK    6  A    between atoms: C_10  and  C_11
REMARK    7  A    between atoms: C_11  and  C_12
REMARK    8  A    between atoms: C_18  and  N_19
REMARK    9  A    between atoms: N_19  and  C_20
REMARK   10  A    between atoms: C_20  and  C_21
REMARK   11  A    between atoms: C_25  and  C_26
REMARK   12  A    between atoms: C_26  and  C_27
REMARK   13  A    between atoms: C_26  and  C_28
REMARK   14  A    between atoms: C_30  and  O_31
REMARK                            x       y       z     vdW  Elec       q    Type
REMARK                         _______ _______ _______ _____ _____    ______ ____
ROOT
ATOM      1  C   UNL     1       4.063   3.353  18.521  0.00  0.00    +0.000 C 
ATOM      2  C   UNL     1       2.932   2.622  17.818  0.00  0.00    +0.000 C 
ATOM      3  S   UNL     1       1.295   3.129  18.312  0.00  0.00    +0.000 S 
ATOM      4  O   UNL     1       0.492   1.914  18.334  0.00  0.00    +0.000 OA
ATOM      5  O   UNL     1       0.911   4.233  17.449  0.00  0.00    +0.000 OA
ATOM      6  C   UNL     1       1.320   3.740  19.991  0.00  0.00    +0.000 C 
ATOM      7  C   UNL     1       2.652   4.200  20.601  0.00  0.00    +0.000 C 
ATOM      8  C   UNL     1       3.846   3.373  20.048  0.00  0.00    +0.000 C 
ENDROOT
BRANCH   7   9
ATOM      9  N   UNL     1       2.915   5.671  20.636  0.00  0.00    +0.000 NA
ATOM     10  H   UNL     1       3.446   5.887  21.484  0.00  0.00    +0.000 HD
BRANCH   9  11
ATOM     11  C   UNL     1       1.688   6.519  20.725  0.00  0.00    +0.000 C 
BRANCH  11  12
ATOM     12  C   UNL     1       1.720   7.756  19.813  0.00  0.00    +0.000 A 
ATOM     13  C   UNL     1       2.351   7.681  18.566  0.00  0.00    +0.000 A 
ATOM     14  C   UNL     1       2.354   8.774  17.695  0.00  0.00    +0.000 A 
ATOM     15  C   UNL     1       1.717   9.972  18.033  0.00  0.00    +0.000 A 
ATOM     16  C   UNL     1       1.048  10.104  19.258  0.00  0.00    +0.000 A 
ATOM     17  C   UNL     1       1.062   8.979  20.136  0.00  0.00    +0.000 A 
BRANCH  16  18
ATOM     18  C   UNL     1       0.358  11.421  19.655  0.00  0.00    +0.000 C 
ATOM     19  C   UNL     1      -0.505  12.107  18.574  0.00  0.00    +0.000 C 
ATOM     20  C   UNL     1      -0.521  11.262  20.903  0.00  0.00    +0.000 C 
ENDBRANCH  16  18
ENDBRANCH  11  12
ENDBRANCH   9  11
ENDBRANCH   7   9
BRANCH   8  21
ATOM     21  O   UNL     1       3.753   2.020  20.522  0.00  0.00    +0.000 OA
ATOM     22  H   UNL     1       4.372   1.419  20.050  0.00  0.00    +0.000 HD
ENDBRANCH   8  21
BRANCH   1  23
ATOM     23  C   UNL     1       4.372   4.732  17.888  0.00  0.00    +0.000 C 
BRANCH  23  28
ATOM     24  C   UNL     1       5.606   4.232  14.270  0.00  0.00    +0.000 A 
ATOM     25  C   UNL     1       6.971   4.522  14.424  0.00  0.00    +0.000 A 
ATOM     26  C   UNL     1       7.488   4.870  15.666  0.00  0.00    +0.000 A 
ATOM     27  C   UNL     1       6.644   4.933  16.774  0.00  0.00    +0.000 A 
ATOM     28  C   UNL     1       5.271   4.656  16.658  0.00  0.00    +0.000 A 
ATOM     29  C   UNL     1       4.759   4.315  15.390  0.00  0.00    +0.000 A 
BRANCH  24  30
ATOM     30  C   UNL     1       5.159   3.669  12.945  0.00  0.00    +0.000 C 
BRANCH  30  31
ATOM     31  O   UNL     1       6.203   3.161  12.113  0.00  0.00    +0.000 OA
BRANCH  31  32
ATOM     32  C   UNL     1       5.671   2.073  11.350  0.00  0.00    +0.000 C 
BRANCH  32  34
ATOM     33  C   UNL     1       6.100  -0.371  11.311  0.00  0.00    +0.000 C 
ATOM     34  C   UNL     1       6.716   1.003  11.087  0.00  0.00    +0.000 C 
ENDBRANCH  32  34
ENDBRANCH  31  32
ENDBRANCH  30  31
ENDBRANCH  24  30
ENDBRANCH  23  28
ENDBRANCH   1  23
TORSDOF 11
ENDMDL
MODEL 2
REMARK VINA RESULT:      -8.2      2.706      8.325
REMARK  Name = 
REMARK  14 active torsions:
REMARK  status: ('A' for Active; 'I' for Inactive)
REMARK    1  A    between atoms: C_1  and  C_2
REMARK    2  A    between atoms: C_2  and  C_3
REMARK    3  A    between atoms: C_3  and  O_4
REMARK    4  A    between atoms: O_4  and  C_5
REMARK    5  A    between atoms: C_5  and  C_6
REMARK    6  A    between atoms: C_10  and  C_11
REMARK    7  A    between atoms: C_11  and  C_12
REMARK    8  A    between atoms: C_18  and  N_19
REMARK    9  A    between atoms: N_19  and  C_20
REMARK   10  A    between atoms: C_20  and  C_21
REMARK   11  A    between atoms: C_25  and  C_26
REMARK   12  A    between atoms: C_26  and  C_27
REMARK   13  A    between atoms: C_26  and  C_28
REMARK   14  A    between atoms: C_30  and  O_31
REMARK                            x       y       z     vdW  Elec       q    Type
REMARK                         _______ _______ _______ _____ _____    ______ ____
ROOT
ATOM      1  C   UNL     1       1.925   4.960  20.035  0.00  0.00    +0.000 C 
ATOM      2  C   UNL     1       2.681   4.292  21.171  0.00  0.00    +0.000 C 
ATOM      3  S   UNL     1       3.590   2.829  20.704  0.00  0.00    +0.000 S 
ATOM      4  O   UNL     1       3.451   1.903  21.820  0.00  0.00    +0.000 OA
ATOM      5  O   UNL     1       4.911   3.263  20.285  0.00  0.00    +0.000 OA
ATOM      6  C   UNL     1       2.810   2.042  19.303  0.00  0.00    +0.000 C 
ATOM      7  C   UNL     1       1.859   2.860  18.416  0.00  0.00    +0.000 C 
ATOM      8  C   UNL     1       1.094   3.932  19.241  0.00  0.00    +0.000 C 
ENDROOT
BRANCH   7   9
ATOM      9  N   UNL     1       2.409   3.384  17.128  0.00  0.00    +0.000 NA
ATOM     10  H   UNL     1       1.781   3.107  16.369  0.00  0.00    +0.000 HD
BRANCH   9  11
ATOM     11  C   UNL     1       3.741   2.824  16.748  0.00  0.00    +0.000 C 
BRANCH  11  12
ATOM     12  C   UNL     1       4.797   3.894  16.427  0.00  0.00    +0.000 A 
ATOM     13  C   UNL     1       5.143   4.147  15.095  0.00  0.00    +0.000 A 
ATOM     14  C   UNL     1       6.064   5.147  14.769  0.00  0.00    +0.000 A 
ATOM     15  C   UNL     1       6.659   5.934  15.758  0.00  0.00    +0.000 A 
ATOM     16  C   UNL     1       6.339   5.745  17.111  0.00  0.00    +0.000 A 
ATOM     17  C   UNL     1       5.401   4.715  17.424  0.00  0.00    +0.000 A 
BRANCH  16  18
ATOM     18  C   UNL     1       6.999   6.590  18.215  0.00  0.00    +0.000 C 
ATOM     19  C   UNL     1       7.942   5.849  19.187  0.00  0.00    +0.000 C 
ATOM     20  C   UNL     1       7.780   7.781  17.645  0.00  0.00    +0.000 C 
ENDBRANCH  16  18
ENDBRANCH  11  12
ENDBRANCH   9  11
ENDBRANCH   7   9
BRANCH   8  21
ATOM     21  O   UNL     1       0.179   3.282  20.138  0.00  0.00    +0.000 OA
ATOM     22  H   UNL     1       0.281   3.597  21.064  0.00  0.00    +0.000 HD
ENDBRANCH   8  21
BRANCH   1  23
ATOM     23  C   UNL     1       2.826   5.877  19.171  0.00  0.00    +0.000 C 
BRANCH  23  28
ATOM     24  C   UNL     1       1.162   9.250  20.011  0.00  0.00    +0.000 A 
ATOM     25  C   UNL     1       1.410   9.959  18.826  0.00  0.00    +0.000 A 
ATOM     26  C   UNL     1       2.097   9.366  17.774  0.00  0.00    +0.000 A 
ATOM     27  C   UNL     1       2.546   8.052  17.894  0.00  0.00    +0.000 A 
ATOM     28  C   UNL     1       2.323   7.313  19.069  0.00  0.00    +0.000 A 
ATOM     29  C   UNL     1       1.635   7.931  20.131  0.00  0.00    +0.000 A 
BRANCH  24  30
ATOM     30  C   UNL     1       0.241   9.885  21.023  0.00  0.00    +0.000 C 
BRANCH  30  31
ATOM     31  O   UNL     1      -0.748  10.763  20.482  0.00  0.00    +0.000 OA
BRANCH  31  32
ATOM     32  C   UNL     1      -0.921  11.850  21.397  0.00  0.00    +0.000 C 
BRANCH  32  34
ATOM     33  C   UNL     1      -2.524  11.936  23.290  0.00  0.00    +0.000 C 
ATOM     34  C   UNL     1      -1.198  11.363  22.808  0.00  0.00    +0.000 C 
ENDBRANCH  32  34
ENDBRANCH  31  32
ENDBRANCH  30  31
ENDBRANCH  24  30
ENDBRANCH  23  28
ENDBRANCH   1  23
TORSDOF 11
ENDMDL
MODEL 3
REMARK VINA RESULT:      -8.1      2.123      9.393
REMARK  Name = 
REMARK  14 active torsions:
REMARK  status: ('A' for Active; 'I' for Inactive)
REMARK    1  A    between atoms: C_1  and  C_2
REMARK    2  A    between atoms: C_2  and  C_3
REMARK    3  A    between atoms: C_3  and  O_4
REMARK    4  A    between atoms: O_4  and  C_5
REMARK    5  A    between atoms: C_5  and  C_6
REMARK    6  A    between atoms: C_10  and  C_11
REMARK    7  A    between atoms: C_11  and  C_12
REMARK    8  A    between atoms: C_18  and  N_19
REMARK    9  A    between atoms: N_19  and  C_20
REMARK   10  A    between atoms: C_20  and  C_21
REMARK   11  A    between atoms: C_25  and  C_26
REMARK   12  A    between atoms: C_26  and  C_27
REMARK   13  A    between atoms: C_26  and  C_28
REMARK   14  A    between atoms: C_30  and  O_31
REMARK                            x       y       z     vdW  Elec       q    Type
REMARK                         _______ _______ _______ _____ _____    ______ ____
ROOT
ATOM      1  C   UNL     1       2.286   4.901  19.062  0.00  0.00    +0.000 C 
ATOM      2  C   UNL     1       2.958   4.129  20.185  0.00  0.00    +0.000 C 
ATOM      3  S   UNL     1       4.315   3.092  19.670  0.00  0.00    +0.000 S 
ATOM      4  O   UNL     1       4.223   1.886  20.482  0.00  0.00    +0.000 OA
ATOM      5  O   UNL     1       5.517   3.906  19.719  0.00  0.00    +0.000 OA
ATOM      6  C   UNL     1       4.083   2.572  17.977  0.00  0.00    +0.000 C 
ATOM      7  C   UNL     1       3.138   3.372  17.069  0.00  0.00    +0.000 C 
ATOM      8  C   UNL     1       1.954   3.976  17.875  0.00  0.00    +0.000 C 
ENDROOT
BRANCH   7   9
ATOM      9  N   UNL     1       3.763   4.341  16.117  0.00  0.00    +0.000 NA
ATOM     10  H   UNL     1       3.543   4.046  15.162  0.00  0.00    +0.000 HD
BRANCH   9  11
ATOM     11  C   UNL     1       5.255   4.388  16.171  0.00  0.00    +0.000 C 
BRANCH  11  12
ATOM     12  C   UNL     1       5.927   4.382  14.788  0.00  0.00    +0.000 A 
ATOM     13  C   UNL     1       7.122   5.084  14.597  0.00  0.00    +0.000 A 
ATOM     14  C   UNL     1       7.782   5.058  13.365  0.00  0.00    +0.000 A 
ATOM     15  C   UNL     1       7.281   4.319  12.290  0.00  0.00    +0.000 A 
ATOM     16  C   UNL     1       6.099   3.576  12.424  0.00  0.00    +0.000 A 
ATOM     17  C   UNL     1       5.436   3.621  13.687  0.00  0.00    +0.000 A 
BRANCH  16  18
ATOM     18  C   UNL     1       5.521   2.773  11.245  0.00  0.00    +0.000 C 
ATOM     19  C   UNL     1       5.835   1.261  11.213  0.00  0.00    +0.000 C 
ATOM     20  C   UNL     1       3.998   2.921  11.133  0.00  0.00    +0.000 C 
ENDBRANCH  16  18
ENDBRANCH  11  12
ENDBRANCH   9  11
ENDBRANCH   7   9
BRANCH   8  21
ATOM     21  O   UNL     1       1.099   2.917  18.336  0.00  0.00    +0.000 OA
ATOM     22  H   UNL     1       1.121   2.137  17.739  0.00  0.00    +0.000 HD
ENDBRANCH   8  21
BRANCH   1  23
ATOM     23  C   UNL     1       3.047   6.197  18.686  0.00  0.00    +0.000 C 
BRANCH  23  28
ATOM     24  C   UNL     1       1.105   8.929  20.590  0.00  0.00    +0.000 A 
ATOM     25  C   UNL     1       0.864   9.842  19.551  0.00  0.00    +0.000 A 
ATOM     26  C   UNL     1       1.314   9.586  18.262  0.00  0.00    +0.000 A 
ATOM     27  C   UNL     1       2.014   8.409  17.994  0.00  0.00    +0.000 A 
ATOM     28  C   UNL     1       2.280   7.475  19.010  0.00  0.00    +0.000 A 
ATOM     29  C   UNL     1       1.827   7.753  20.314  0.00  0.00    +0.000 A 
BRANCH  24  30
ATOM     30  C   UNL     1       0.415   9.177  21.908  0.00  0.00    +0.000 C 
BRANCH  30  31
ATOM     31  O   UNL     1      -0.826   9.878  21.826  0.00  0.00    +0.000 OA
BRANCH  31  32
ATOM     32  C   UNL     1      -0.812  10.918  22.810  0.00  0.00    +0.000 C 
BRANCH  32  34
ATOM     33  C   UNL     1      -1.227  13.325  23.248  0.00  0.00    +0.000 C 
ATOM     34  C   UNL     1      -0.892  12.296  22.177  0.00  0.00    +0.000 C 
ENDBRANCH  32  34
ENDBRANCH  31  32
ENDBRANCH  30  31
ENDBRANCH  24  30
ENDBRANCH  23  28
ENDBRANCH   1  23
TORSDOF 11
ENDMDL
MODEL 4
REMARK VINA RESULT:      -8.1      2.206      8.891
REMARK  Name = 
REMARK  14 active torsions:
REMARK  status: ('A' for Active; 'I' for Inactive)
REMARK    1  A    between atoms: C_1  and  C_2
REMARK    2  A    between atoms: C_2  and  C_3
REMARK    3  A    between atoms: C_3  and  O_4
REMARK    4  A    between atoms: O_4  and  C_5
REMARK    5  A    between atoms: C_5  and  C_6
REMARK    6  A    between atoms: C_10  and  C_11
REMARK    7  A    between atoms: C_11  and  C_12
REMARK    8  A    between atoms: C_18  and  N_19
REMARK    9  A    between atoms: N_19  and  C_20
REMARK   10  A    between atoms: C_20  and  C_21
REMARK   11  A    between atoms: C_25  and  C_26
REMARK   12  A    between atoms: C_26  and  C_27
REMARK   13  A    between atoms: C_26  and  C_28
REMARK   14  A    between atoms: C_30  and  O_31
REMARK                            x       y       z     vdW  Elec       q    Type
REMARK                         _______ _______ _______ _____ _____    ______ ____
ROOT
ATOM      1  C   UNL     1       2.430   5.148  18.581  0.00  0.00    +0.000 C 
ATOM      2  C   UNL     1       1.461   4.441  19.513  0.00  0.00    +0.000 C 
ATOM      3  S   UNL     1       2.224   3.321  20.674  0.00  0.00    +0.000 S 
ATOM      4  O   UNL     1       1.319   2.184  20.782  0.00  0.00    +0.000 OA
ATOM      5  O   UNL     1       2.557   4.095  21.857  0.00  0.00    +0.000 OA
ATOM      6  C   UNL     1       3.749   2.681  19.999  0.00  0.00    +0.000 C 
ATOM      7  C   UNL     1       4.442   3.442  18.859  0.00  0.00    +0.000 C 
ATOM      8  C   UNL     1       3.409   4.147  17.936  0.00  0.00    +0.000 C 
ENDROOT
BRANCH   7   9
ATOM      9  N   UNL     1       5.601   4.313  19.225  0.00  0.00    +0.000 NA
ATOM     10  H   UNL     1       5.268   5.277  19.313  0.00  0.00    +0.000 HD
BRANCH   9  11
ATOM     11  C   UNL     1       6.682   4.372  18.197  0.00  0.00    +0.000 C 
BRANCH  11  12
ATOM     12  C   UNL     1       6.200   4.836  16.812  0.00  0.00    +0.000 A 
ATOM     13  C   UNL     1       5.662   6.119  16.661  0.00  0.00    +0.000 A 
ATOM     14  C   UNL     1       5.260   6.587  15.407  0.00  0.00    +0.000 A 
ATOM     15  C   UNL     1       5.393   5.796  14.262  0.00  0.00    +0.000 A 
ATOM     16  C   UNL     1       5.944   4.509  14.343  0.00  0.00    +0.000 A 
ATOM     17  C   UNL     1       6.343   4.047  15.633  0.00  0.00    +0.000 A 
BRANCH  16  18
ATOM     18  C   UNL     1       6.080   3.617  13.096  0.00  0.00    +0.000 C 
ATOM     19  C   UNL     1       4.810   3.419  12.241  0.00  0.00    +0.000 C 
ATOM     20  C   UNL     1       7.189   4.102  12.154  0.00  0.00    +0.000 C 
ENDBRANCH  16  18
ENDBRANCH  11  12
ENDBRANCH   9  11
ENDBRANCH   7   9
BRANCH   8  21
ATOM     21  O   UNL     1       2.655   3.157  17.218  0.00  0.00    +0.000 OA
ATOM     22  H   UNL     1       3.228   2.444  16.858  0.00  0.00    +0.000 HD
ENDBRANCH   8  21
BRANCH   1  23
ATOM     23  C   UNL     1       3.097   6.384  19.233  0.00  0.00    +0.000 C 
BRANCH  23  28
ATOM     24  C   UNL     1       0.775   9.219  20.430  0.00  0.00    +0.000 A 
ATOM     25  C   UNL     1       0.576   9.911  19.225  0.00  0.00    +0.000 A 
ATOM     26  C   UNL     1       1.174   9.476  18.049  0.00  0.00    +0.000 A 
ATOM     27  C   UNL     1       1.982   8.339  18.062  0.00  0.00    +0.000 A 
ATOM     28  C   UNL     1       2.210   7.624  19.250  0.00  0.00    +0.000 A 
ATOM     29  C   UNL     1       1.606   8.083  20.437  0.00  0.00    +0.000 A 
BRANCH  24  30
ATOM     30  C   UNL     1      -0.062   9.628  21.615  0.00  0.00    +0.000 C 
BRANCH  30  31
ATOM     31  O   UNL     1      -0.564  10.965  21.576  0.00  0.00    +0.000 OA
BRANCH  31  32
ATOM     32  C   UNL     1      -1.186  11.241  22.835  0.00  0.00    +0.000 C 
BRANCH  32  34
ATOM     33  C   UNL     1      -0.451  13.548  22.287  0.00  0.00    +0.000 C 
ATOM     34  C   UNL     1      -1.515  12.716  22.991  0.00  0.00    +0.000 C 
ENDBRANCH  32  34
ENDBRANCH  31  32
ENDBRANCH  30  31
ENDBRANCH  24  30
ENDBRANCH  23  28
ENDBRANCH   1  23
TORSDOF 11
ENDMDL
MODEL 5
REMARK VINA RESULT:      -8.0      1.047      1.522
REMARK  Name = 
REMARK  14 active torsions:
REMARK  status: ('A' for Active; 'I' for Inactive)
REMARK    1  A    between atoms: C_1  and  C_2
REMARK    2  A    between atoms: C_2  and  C_3
REMARK    3  A    between atoms: C_3  and  O_4
REMARK    4  A    between atoms: O_4  and  C_5
REMARK    5  A    between atoms: C_5  and  C_6
REMARK    6  A    between atoms: C_10  and  C_11
REMARK    7  A    between atoms: C_11  and  C_12
REMARK    8  A    between atoms: C_18  and  N_19
REMARK    9  A    between atoms: N_19  and  C_20
REMARK   10  A    between atoms: C_20  and  C_21
REMARK   11  A    between atoms: C_25  and  C_26
REMARK   12  A    between atoms: C_26  and  C_27
REMARK   13  A    between atoms: C_26  and  C_28
REMARK   14  A    between atoms: C_30  and  O_31
REMARK                            x       y       z     vdW  Elec       q    Type
REMARK                         _______ _______ _______ _____ _____    ______ ____
ROOT
ATOM      1  C   UNL     1       3.814   3.597  19.605  0.00  0.00    +0.000 C 
ATOM      2  C   UNL     1       2.964   2.809  18.623  0.00  0.00    +0.000 C 
ATOM      3  S   UNL     1       1.259   3.323  18.531  0.00  0.00    +0.000 S 
ATOM      4  O   UNL     1       0.484   2.100  18.370  0.00  0.00    +0.000 OA
ATOM      5  O   UNL     1       1.181   4.367  17.524  0.00  0.00    +0.000 OA
ATOM      6  C   UNL     1       0.746   4.035  20.087  0.00  0.00    +0.000 C 
ATOM      7  C   UNL     1       1.814   4.550  21.064  0.00  0.00    +0.000 C 
ATOM      8  C   UNL     1       3.117   3.708  20.977  0.00  0.00    +0.000 C 
ENDROOT
BRANCH   7   9
ATOM      9  N   UNL     1       2.061   6.025  21.089  0.00  0.00    +0.000 NA
ATOM     10  H   UNL     1       1.268   6.480  21.549  0.00  0.00    +0.000 HD
BRANCH   9  11
ATOM     11  C   UNL     1       2.141   6.663  19.741  0.00  0.00    +0.000 C 
BRANCH  11  12
ATOM     12  C   UNL     1       1.639   8.116  19.711  0.00  0.00    +0.000 A 
ATOM     13  C   UNL     1       1.663   8.831  18.508  0.00  0.00    +0.000 A 
ATOM     14  C   UNL     1       1.168  10.137  18.438  0.00  0.00    +0.000 A 
ATOM     15  C   UNL     1       0.621  10.766  19.560  0.00  0.00    +0.000 A 
ATOM     16  C   UNL     1       0.548  10.095  20.790  0.00  0.00    +0.000 A 
ATOM     17  C   UNL     1       1.064   8.766  20.842  0.00  0.00    +0.000 A 
BRANCH  16  18
ATOM     18  C   UNL     1      -0.033  10.779  22.040  0.00  0.00    +0.000 C 
ATOM     19  C   UNL     1      -1.270  11.678  21.830  0.00  0.00    +0.000 C 
ATOM     20  C   UNL     1      -0.389   9.770  23.140  0.00  0.00    +0.000 C 
ENDBRANCH  16  18
ENDBRANCH  11  12
ENDBRANCH   9  11
ENDBRANCH   7   9
BRANCH   8  21
ATOM     21  O   UNL     1       2.867   2.386  21.479  0.00  0.00    +0.000 OA
ATOM     22  H   UNL     1       3.387   1.703  20.999  0.00  0.00    +0.000 HD
ENDBRANCH   8  21
BRANCH   1  23
ATOM     23  C   UNL     1       4.319   4.939  19.020  0.00  0.00    +0.000 C 
BRANCH  23  28
ATOM     24  C   UNL     1       5.948   4.498  15.555  0.00  0.00    +0.000 A 
ATOM     25  C   UNL     1       7.305   4.468  15.912  0.00  0.00    +0.000 A 
ATOM     26  C   UNL     1       7.692   4.584  17.241  0.00  0.00    +0.000 A 
ATOM     27  C   UNL     1       6.723   4.734  18.234  0.00  0.00    +0.000 A 
ATOM     28  C   UNL     1       5.356   4.776  17.913  0.00  0.00    +0.000 A 
ATOM     29  C   UNL     1       4.979   4.667  16.561  0.00  0.00    +0.000 A 
BRANCH  24  30
ATOM     30  C   UNL     1       5.596   4.164  14.127  0.00  0.00    +0.000 C 
BRANCH  30  31
ATOM     31  O   UNL     1       6.667   3.640  13.340  0.00  0.00    +0.000 OA
BRANCH  31  32
ATOM     32  C   UNL     1       6.234   3.595  11.977  0.00  0.00    +0.000 C 
BRANCH  32  34
ATOM     33  C   UNL     1       6.267   1.250  11.162  0.00  0.00    +0.000 C 
ATOM     34  C   UNL     1       5.382   2.369  11.695  0.00  0.00    +0.000 C 
ENDBRANCH  32  34
ENDBRANCH  31  32
ENDBRANCH  30  31
ENDBRANCH  24  30
ENDBRANCH  23  28
ENDBRANCH   1  23
TORSDOF 11
ENDMDL
MODEL 6
REMARK VINA RESULT:      -8.0      2.739      7.783
REMARK  Name = 
REMARK  14 active torsions:
REMARK  status: ('A' for Active; 'I' for Inactive)
REMARK    1  A    between atoms: C_1  and  C_2
REMARK    2  A    between atoms: C_2  and  C_3
REMARK    3  A    between atoms: C_3  and  O_4
REMARK    4  A    between atoms: O_4  and  C_5
REMARK    5  A    between atoms: C_5  and  C_6
REMARK    6  A    between atoms: C_10  and  C_11
REMARK    7  A    between atoms: C_11  and  C_12
REMARK    8  A    between atoms: C_18  and  N_19
REMARK    9  A    between atoms: N_19  and  C_20
REMARK   10  A    between atoms: C_20  and  C_21
REMARK   11  A    between atoms: C_25  and  C_26
REMARK   12  A    between atoms: C_26  and  C_27
REMARK   13  A    between atoms: C_26  and  C_28
REMARK   14  A    between atoms: C_30  and  O_31
REMARK                            x       y       z     vdW  Elec       q    Type
REMARK                         _______ _______ _______ _____ _____    ______ ____
ROOT
ATOM      1  C   UNL     1       2.025   4.914  20.266  0.00  0.00    +0.000 C 
ATOM      2  C   UNL     1       2.625   4.123  21.415  0.00  0.00    +0.000 C 
ATOM      3  S   UNL     1       3.415   2.596  20.939  0.00  0.00    +0.000 S 
ATOM      4  O   UNL     1       3.103   1.642  21.994  0.00  0.00    +0.000 OA
ATOM      5  O   UNL     1       4.800   2.910  20.634  0.00  0.00    +0.000 OA
ATOM      6  C   UNL     1       2.666   1.955  19.449  0.00  0.00    +0.000 C 
ATOM      7  C   UNL     1       1.869   2.904  18.542  0.00  0.00    +0.000 C 
ATOM      8  C   UNL     1       1.156   4.012  19.366  0.00  0.00    +0.000 C 
ENDROOT
BRANCH   7   9
ATOM      9  N   UNL     1       2.561   3.424  17.323  0.00  0.00    +0.000 NA
ATOM     10  H   UNL     1       2.009   3.167  16.500  0.00  0.00    +0.000 HD
BRANCH   9  11
ATOM     11  C   UNL     1       3.912   2.835  17.078  0.00  0.00    +0.000 C 
BRANCH  11  12
ATOM     12  C   UNL     1       4.957   3.855  16.595  0.00  0.00    +0.000 A 
ATOM     13  C   UNL     1       4.999   4.215  15.244  0.00  0.00    +0.000 A 
ATOM     14  C   UNL     1       5.904   5.175  14.783  0.00  0.00    +0.000 A 
ATOM     15  C   UNL     1       6.787   5.816  15.656  0.00  0.00    +0.000 A 
ATOM     16  C   UNL     1       6.781   5.516  17.026  0.00  0.00    +0.000 A 
ATOM     17  C   UNL     1       5.853   4.529  17.476  0.00  0.00    +0.000 A 
BRANCH  16  18
ATOM     18  C   UNL     1       7.759   6.197  17.999  0.00  0.00    +0.000 C 
ATOM     19  C   UNL     1       7.829   7.739  17.949  0.00  0.00    +0.000 C 
ATOM     20  C   UNL     1       7.494   5.803  19.458  0.00  0.00    +0.000 C 
ENDBRANCH  16  18
ENDBRANCH  11  12
ENDBRANCH   9  11
ENDBRANCH   7   9
BRANCH   8  21
ATOM     21  O   UNL     1       0.117   3.422  20.164  0.00  0.00    +0.000 OA
ATOM     22  H   UNL     1      -0.303   4.075  20.767  0.00  0.00    +0.000 HD
ENDBRANCH   8  21
BRANCH   1  23
ATOM     23  C   UNL     1       3.073   5.770  19.513  0.00  0.00    +0.000 C 
BRANCH  23  28
ATOM     24  C   UNL     1       1.274   9.178  19.559  0.00  0.00    +0.000 A 
ATOM     25  C   UNL     1       1.644   9.679  18.301  0.00  0.00    +0.000 A 
ATOM     26  C   UNL     1       2.455   8.936  17.451  0.00  0.00    +0.000 A 
ATOM     27  C   UNL     1       2.908   7.679  17.850  0.00  0.00    +0.000 A 
ATOM     28  C   UNL     1       2.564   7.148  19.105  0.00  0.00    +0.000 A 
ATOM     29  C   UNL     1       1.751   7.916  19.960  0.00  0.00    +0.000 A 
BRANCH  24  30
ATOM     30  C   UNL     1       0.235   9.947  20.336  0.00  0.00    +0.000 C 
BRANCH  30  31
ATOM     31  O   UNL     1      -1.011  10.139  19.666  0.00  0.00    +0.000 OA
BRANCH  31  32
ATOM     32  C   UNL     1      -1.321  11.535  19.700  0.00  0.00    +0.000 C 
BRANCH  32  34
ATOM     33  C   UNL     1      -2.145  11.363  17.365  0.00  0.00    +0.000 C 
ATOM     34  C   UNL     1      -1.265  12.161  18.318  0.00  0.00    +0.000 C 
ENDBRANCH  32  34
ENDBRANCH  31  32
ENDBRANCH  30  31
ENDBRANCH  24  30
ENDBRANCH  23  28
ENDBRANCH   1  23
TORSDOF 11
ENDMDL
MODEL 7
REMARK VINA RESULT:      -8.0      1.551      2.201
REMARK  Name = 
REMARK  14 active torsions:
REMARK  status: ('A' for Active; 'I' for Inactive)
REMARK    1  A    between atoms: C_1  and  C_2
REMARK    2  A    between atoms: C_2  and  C_3
REMARK    3  A    between atoms: C_3  and  O_4
REMARK    4  A    between atoms: O_4  and  C_5
REMARK    5  A    between atoms: C_5  and  C_6
REMARK    6  A    between atoms: C_10  and  C_11
REMARK    7  A    between atoms: C_11  and  C_12
REMARK    8  A    between atoms: C_18  and  N_19
REMARK    9  A    between atoms: N_19  and  C_20
REMARK   10  A    between atoms: C_20  and  C_21
REMARK   11  A    between atoms: C_25  and  C_26
REMARK   12  A    between atoms: C_26  and  C_27
REMARK   13  A    between atoms: C_26  and  C_28
REMARK   14  A    between atoms: C_30  and  O_31
REMARK                            x       y       z     vdW  Elec       q    Type
REMARK                         _______ _______ _______ _____ _____    ______ ____
ROOT
ATOM      1  C   UNL     1       4.482   3.622  17.792  0.00  0.00    +0.000 C 
ATOM      2  C   UNL     1       3.306   2.709  17.488  0.00  0.00    +0.000 C 
ATOM      3  S   UNL     1       1.765   3.201  18.242  0.00  0.00    +0.000 S 
ATOM      4  O   UNL     1       1.107   1.964  18.642  0.00  0.00    +0.000 OA
ATOM      5  O   UNL     1       1.106   4.105  17.316  0.00  0.00    +0.000 OA
ATOM      6  C   UNL     1       2.080   4.107  19.749  0.00  0.00    +0.000 C 
ATOM      7  C   UNL     1       3.458   4.748  19.965  0.00  0.00    +0.000 C 
ATOM      8  C   UNL     1       4.586   3.907  19.304  0.00  0.00    +0.000 C 
ENDROOT
BRANCH   7   9
ATOM      9  N   UNL     1       3.578   6.214  19.697  0.00  0.00    +0.000 NA
ATOM     10  H   UNL     1       3.609   6.708  20.593  0.00  0.00    +0.000 HD
BRANCH   9  11
ATOM     11  C   UNL     1       2.417   6.809  18.970  0.00  0.00    +0.000 C 
BRANCH  11  12
ATOM     12  C   UNL     1       1.747   7.975  19.717  0.00  0.00    +0.000 A 
ATOM     13  C   UNL     1       1.418   7.832  21.069  0.00  0.00    +0.000 A 
ATOM     14  C   UNL     1       0.853   8.890  21.787  0.00  0.00    +0.000 A 
ATOM     15  C   UNL     1       0.610  10.127  21.184  0.00  0.00    +0.000 A 
ATOM     16  C   UNL     1       0.938  10.342  19.837  0.00  0.00    +0.000 A 
ATOM     17  C   UNL     1       1.508   9.247  19.120  0.00  0.00    +0.000 A 
BRANCH  16  18
ATOM     18  C   UNL     1       0.660  11.691  19.151  0.00  0.00    +0.000 C 
ATOM     19  C   UNL     1       0.135  12.832  20.049  0.00  0.00    +0.000 C 
ATOM     20  C   UNL     1       1.891  12.228  18.409  0.00  0.00    +0.000 C 
ENDBRANCH  16  18
ENDBRANCH  11  12
ENDBRANCH   9  11
ENDBRANCH   7   9
BRANCH   8  21
ATOM     21  O   UNL     1       4.725   2.660  20.004  0.00  0.00    +0.000 OA
ATOM     22  H   UNL     1       5.567   2.203  19.783  0.00  0.00    +0.000 HD
ENDBRANCH   8  21
BRANCH   1  23
ATOM     23  C   UNL     1       4.517   4.878  16.888  0.00  0.00    +0.000 C 
BRANCH  23  28
ATOM     24  C   UNL     1       5.753   3.961  13.354  0.00  0.00    +0.000 A 
ATOM     25  C   UNL     1       7.066   4.452  13.408  0.00  0.00    +0.000 A 
ATOM     26  C   UNL     1       7.549   5.065  14.557  0.00  0.00    +0.000 A 
ATOM     27  C   UNL     1       6.722   5.195  15.672  0.00  0.00    +0.000 A 
ATOM     28  C   UNL     1       5.398   4.722  15.653  0.00  0.00    +0.000 A 
ATOM     29  C   UNL     1       4.919   4.113  14.477  0.00  0.00    +0.000 A 
BRANCH  24  30
ATOM     30  C   UNL     1       5.367   3.133  12.154  0.00  0.00    +0.000 C 
BRANCH  30  31
ATOM     31  O   UNL     1       4.777   3.859  11.075  0.00  0.00    +0.000 OA
BRANCH  31  32
ATOM     32  C   UNL     1       3.465   3.332  10.853  0.00  0.00    +0.000 C 
BRANCH  32  34
ATOM     33  C   UNL     1       2.322   4.840   9.246  0.00  0.00    +0.000 C 
ATOM     34  C   UNL     1       3.026   3.499   9.408  0.00  0.00    +0.000 C 
ENDBRANCH  32  34
ENDBRANCH  31  32
ENDBRANCH  30  31
ENDBRANCH  24  30
ENDBRANCH  23  28
ENDBRANCH   1  23
TORSDOF 11
ENDMDL
MODEL 8
REMARK VINA RESULT:      -7.9      3.357      7.869
REMARK  Name = 
REMARK  14 active torsions:
REMARK  status: ('A' for Active; 'I' for Inactive)
REMARK    1  A    between atoms: C_1  and  C_2
REMARK    2  A    between atoms: C_2  and  C_3
REMARK    3  A    between atoms: C_3  and  O_4
REMARK    4  A    between atoms: O_4  and  C_5
REMARK    5  A    between atoms: C_5  and  C_6
REMARK    6  A    between atoms: C_10  and  C_11
REMARK    7  A    between atoms: C_11  and  C_12
REMARK    8  A    between atoms: C_18  and  N_19
REMARK    9  A    between atoms: N_19  and  C_20
REMARK   10  A    between atoms: C_20  and  C_21
REMARK   11  A    between atoms: C_25  and  C_26
REMARK   12  A    between atoms: C_26  and  C_27
REMARK   13  A    between atoms: C_26  and  C_28
REMARK   14  A    between atoms: C_30  and  O_31
REMARK                            x       y       z     vdW  Elec       q    Type
REMARK                         _______ _______ _______ _____ _____    ______ ____
ROOT
ATOM      1  C   UNL     1       5.103   7.061  16.688  0.00  0.00    +0.000 C 
ATOM      2  C   UNL     1       5.562   6.512  15.348  0.00  0.00    +0.000 C 
ATOM      3  S   UNL     1       6.558   5.036  15.448  0.00  0.00    +0.000 S 
ATOM      4  O   UNL     1       7.573   5.171  14.411  0.00  0.00    +0.000 OA
ATOM      5  O   UNL     1       5.648   3.904  15.425  0.00  0.00    +0.000 OA
ATOM      6  C   UNL     1       7.437   4.991  17.002  0.00  0.00    +0.000 C 
ATOM      7  C   UNL     1       6.931   5.842  18.175  0.00  0.00    +0.000 C 
ATOM      8  C   UNL     1       6.281   7.164  17.679  0.00  0.00    +0.000 C 
ENDROOT
BRANCH   7   9
ATOM      9  N   UNL     1       6.129   5.146  19.228  0.00  0.00    +0.000 NA
ATOM     10  H   UNL     1       6.622   5.230  20.121  0.00  0.00    +0.000 HD
BRANCH   9  11
ATOM     11  C   UNL     1       5.967   3.677  19.015  0.00  0.00    +0.000 C 
BRANCH  11  12
ATOM     12  C   UNL     1       4.517   3.243  18.748  0.00  0.00    +0.000 A 
ATOM     13  C   UNL     1       4.183   2.663  17.520  0.00  0.00    +0.000 A 
ATOM     14  C   UNL     1       2.884   2.213  17.266  0.00  0.00    +0.000 A 
ATOM     15  C   UNL     1       1.880   2.315  18.233  0.00  0.00    +0.000 A 
ATOM     16  C   UNL     1       2.155   2.867  19.493  0.00  0.00    +0.000 A 
ATOM     17  C   UNL     1       3.486   3.326  19.730  0.00  0.00    +0.000 A 
BRANCH  16  18
ATOM     18  C   UNL     1       1.059   3.006  20.563  0.00  0.00    +0.000 C 
ATOM     19  C   UNL     1       1.439   2.606  22.005  0.00  0.00    +0.000 C 
ATOM     20  C   UNL     1       0.484   4.428  20.625  0.00  0.00    +0.000 C 
ENDBRANCH  16  18
ENDBRANCH  11  12
ENDBRANCH   9  11
ENDBRANCH   7   9
BRANCH   8  21
ATOM     21  O   UNL     1       7.292   8.011  17.110  0.00  0.00    +0.000 OA
ATOM     22  H   UNL     1       7.957   8.294  17.778  0.00  0.00    +0.000 HD
ENDBRANCH   8  21
BRANCH   1  23
ATOM     23  C   UNL     1       3.851   6.334  17.238  0.00  0.00    +0.000 C 
BRANCH  23  28
ATOM     24  C   UNL     1       1.669   9.221  18.563  0.00  0.00    +0.000 A 
ATOM     25  C   UNL     1       1.404   8.765  19.864  0.00  0.00    +0.000 A 
ATOM     26  C   UNL     1       1.918   7.554  20.310  0.00  0.00    +0.000 A 
ATOM     27  C   UNL     1       2.706   6.780  19.458  0.00  0.00    +0.000 A 
ATOM     28  C   UNL     1       2.986   7.201  18.146  0.00  0.00    +0.000 A 
ATOM     29  C   UNL     1       2.449   8.426  17.704  0.00  0.00    +0.000 A 
BRANCH  24  30
ATOM     30  C   UNL     1       1.250  10.629  18.220  0.00  0.00    +0.000 C 
BRANCH  30  31
ATOM     31  O   UNL     1       0.368  11.250  19.157  0.00  0.00    +0.000 OA
BRANCH  31  32
ATOM     32  C   UNL     1      -0.843  11.581  18.472  0.00  0.00    +0.000 C 
BRANCH  32  34
ATOM     33  C   UNL     1      -1.977   9.929  17.007  0.00  0.00    +0.000 C 
ATOM     34  C   UNL     1      -1.814  10.413  18.441  0.00  0.00    +0.000 C 
ENDBRANCH  32  34
ENDBRANCH  31  32
ENDBRANCH  30  31
ENDBRANCH  24  30
ENDBRANCH  23  28
ENDBRANCH   1  23
TORSDOF 11
ENDMDL
MODEL 9
REMARK VINA RESULT:      -7.9      2.878      8.150
REMARK  Name = 
REMARK  14 active torsions:
REMARK  status: ('A' for Active; 'I' for Inactive)
REMARK    1  A    between atoms: C_1  and  C_2
REMARK    2  A    between atoms: C_2  and  C_3
REMARK    3  A    between atoms: C_3  and  O_4
REMARK    4  A    between atoms: O_4  and  C_5
REMARK    5  A    between atoms: C_5  and  C_6
REMARK    6  A    between atoms: C_10  and  C_11
REMARK    7  A    between atoms: C_11  and  C_12
REMARK    8  A    between atoms: C_18  and  N_19
REMARK    9  A    between atoms: N_19  and  C_20
REMARK   10  A    between atoms: C_20  and  C_21
REMARK   11  A    between atoms: C_25  and  C_26
REMARK   12  A    between atoms: C_26  and  C_27
REMARK   13  A    between atoms: C_26  and  C_28
REMARK   14  A    between atoms: C_30  and  O_31
REMARK                            x       y       z     vdW  Elec       q    Type
REMARK                         _______ _______ _______ _____ _____    ______ ____
ROOT
ATOM      1  C   UNL     1       1.433   4.326  19.146  0.00  0.00    +0.000 C 
ATOM      2  C   UNL     1       0.914   4.164  20.564  0.00  0.00    +0.000 C 
ATOM      3  S   UNL     1       1.806   2.980  21.556  0.00  0.00    +0.000 S 
ATOM      4  O   UNL     1       0.802   2.304  22.367  0.00  0.00    +0.000 OA
ATOM      5  O   UNL     1       2.893   3.697  22.201  0.00  0.00    +0.000 OA
ATOM      6  C   UNL     1       2.531   1.725  20.512  0.00  0.00    +0.000 C 
ATOM      7  C   UNL     1       2.736   2.019  19.018  0.00  0.00    +0.000 C 
ATOM      8  C   UNL     1       1.625   2.955  18.466  0.00  0.00    +0.000 C 
ENDROOT
BRANCH   7   9
ATOM      9  N   UNL     1       4.112   2.409  18.582  0.00  0.00    +0.000 NA
ATOM     10  H   UNL     1       4.342   3.313  19.002  0.00  0.00    +0.000 HD
BRANCH   9  11
ATOM     11  C   UNL     1       4.259   2.620  17.111  0.00  0.00    +0.000 C 
BRANCH  11  12
ATOM     12  C   UNL     1       4.974   3.930  16.739  0.00  0.00    +0.000 A 
ATOM     13  C   UNL     1       4.842   4.447  15.446  0.00  0.00    +0.000 A 
ATOM     14  C   UNL     1       5.439   5.660  15.092  0.00  0.00    +0.000 A 
ATOM     15  C   UNL     1       6.175   6.403  16.019  0.00  0.00    +0.000 A 
ATOM     16  C   UNL     1       6.327   5.950  17.338  0.00  0.00    +0.000 A 
ATOM     17  C   UNL     1       5.715   4.706  17.677  0.00  0.00    +0.000 A 
BRANCH  16  18
ATOM     18  C   UNL     1       7.150   6.745  18.367  0.00  0.00    +0.000 C 
ATOM     19  C   UNL     1       8.137   5.939  19.239  0.00  0.00    +0.000 C 
ATOM     20  C   UNL     1       7.947   7.884  17.717  0.00  0.00    +0.000 C 
ENDBRANCH  16  18
ENDBRANCH  11  12
ENDBRANCH   9  11
ENDBRANCH   7   9
BRANCH   8  21
ATOM     21  O   UNL     1       0.369   2.259  18.463  0.00  0.00    +0.000 OA
ATOM     22  H   UNL     1      -0.372   2.832  18.166  0.00  0.00    +0.000 HD
ENDBRANCH   8  21
BRANCH   1  23
ATOM     23  C   UNL     1       2.655   5.274  19.059  0.00  0.00    +0.000 C 
BRANCH  23  28
ATOM     24  C   UNL     1       1.462   8.771  20.157  0.00  0.00    +0.000 A 
ATOM     25  C   UNL     1       1.608   9.480  18.955  0.00  0.00    +0.000 A 
ATOM     26  C   UNL     1       2.078   8.848  17.810  0.00  0.00    +0.000 A 
ATOM     27  C   UNL     1       2.410   7.494  17.854  0.00  0.00    +0.000 A 
ATOM     28  C   UNL     1       2.285   6.753  19.042  0.00  0.00    +0.000 A 
ATOM     29  C   UNL     1       1.817   7.410  20.196  0.00  0.00    +0.000 A 
BRANCH  24  30
ATOM     30  C   UNL     1       0.760   9.468  21.295  0.00  0.00    +0.000 C 
BRANCH  30  31
ATOM     31  O   UNL     1       1.096  10.845  21.470  0.00  0.00    +0.000 OA
BRANCH  31  32
ATOM     32  C   UNL     1      -0.122  11.588  21.575  0.00  0.00    +0.000 C 
BRANCH  32  34
ATOM     33  C   UNL     1      -1.954  12.145  23.154  0.00  0.00    +0.000 C 
ATOM     34  C   UNL     1      -1.024  11.042  22.669  0.00  0.00    +0.000 C 
ENDBRANCH  32  34
ENDBRANCH  31  32
ENDBRANCH  30  31
ENDBRANCH  24  30
ENDBRANCH  23  28
ENDBRANCH   1  23
TORSDOF 11
ENDMDL
