MODEL 1
REMARK VINA RESULT:      -9.4      0.000      0.000
REMARK  Name = 
REMARK  4 active torsions:
REMARK  status: ('A' for Active; 'I' for Inactive)
REMARK    1  A    between atoms: N_5  and  C_6
REMARK    2  A    between atoms: C_6  and  C_7
REMARK    3  A    between atoms: C_7  and  C_8
REMARK    4  A    between atoms: C_16  and  C_17
REMARK                            x       y       z     vdW  Elec       q    Type
REMARK                         _______ _______ _______ _____ _____    ______ ____
ROOT
ATOM      1  O   UNL     1       5.482   3.983  15.483  0.00  0.00    +0.000 OA
ATOM      2  C   UNL     1       5.814   4.976  16.096  0.00  0.00    +0.000 C 
ATOM      3  N   UNL     1       6.918   5.751  15.929  0.00  0.00    +0.000 N 
ATOM      4  C   UNL     1       6.956   6.677  16.913  0.00  0.00    +0.000 C 
ATOM      5  N   UNL     1       8.029   7.503  17.009  0.00  0.00    +0.000 N 
ATOM      6  N   UNL     1       5.927   6.667  17.701  0.00  0.00    +0.000 NA
ATOM      7  C   UNL     1       5.130   5.644  17.235  0.00  0.00    +0.000 C 
ATOM      8  C   UNL     1       3.923   5.276  17.683  0.00  0.00    +0.000 C 
ATOM      9  H   UNL     1       7.649   5.538  15.277  0.00  0.00    +0.000 HD
ATOM     10  H   UNL     1       8.399   7.867  16.141  0.00  0.00    +0.000 HD
ENDROOT
BRANCH   8  11
ATOM     11  C   UNL     1       3.166   5.944  18.698  0.00  0.00    +0.000 A 
ATOM     12  C   UNL     1       2.911   5.433  19.959  0.00  0.00    +0.000 A 
ATOM     13  N   UNL     1       2.186   6.362  20.654  0.00  0.00    +0.000 N 
ATOM     14  C   UNL     1       1.980   7.466  19.877  0.00  0.00    +0.000 A 
ATOM     15  N   UNL     1       1.304   8.556  20.282  0.00  0.00    +0.000 NA
ATOM     16  C   UNL     1       1.229   9.510  19.326  0.00  0.00    +0.000 A 
ATOM     17  C   UNL     1       1.772   9.423  18.051  0.00  0.00    +0.000 A 
ATOM     18  C   UNL     1       2.469   8.270  17.685  0.00  0.00    +0.000 A 
ATOM     19  C   UNL     1       2.582   7.243  18.639  0.00  0.00    +0.000 A 
ATOM     20  H   UNL     1       1.844   6.271  21.599  0.00  0.00    +0.000 HD
ENDBRANCH   8  11
BRANCH   5  21
ATOM     21  C   UNL     1       8.230   8.324  18.198  0.00  0.00    +0.000 C 
BRANCH  21  22
ATOM     22  C   UNL     1       8.214   9.812  17.843  0.00  0.00    +0.000 C 
BRANCH  22  23
ATOM     23  C   UNL     1       9.297  10.582  18.556  0.00  0.00    +0.000 A 
ATOM     24  C   UNL     1      10.363  11.140  17.835  0.00  0.00    +0.000 A 
ATOM     25  C   UNL     1      11.372  11.844  18.493  0.00  0.00    +0.000 A 
ATOM     26  C   UNL     1      11.330  11.995  19.878  0.00  0.00    +0.000 A 
ATOM     27  C   UNL     1      10.280  11.437  20.605  0.00  0.00    +0.000 A 
ATOM     28  C   UNL     1       9.269  10.731  19.949  0.00  0.00    +0.000 A 
ENDBRANCH  22  23
ENDBRANCH  21  22
ENDBRANCH   5  21
TORSDOF 4
ENDMDL
MODEL 2
REMARK VINA RESULT:      -9.2      0.413      1.048
REMARK  Name = 
REMARK  4 active torsions:
REMARK  status: ('A' for Active; 'I' for Inactive)
REMARK    1  A    between atoms: N_5  and  C_6
REMARK    2  A    between atoms: C_6  and  C_7
REMARK    3  A    between atoms: C_7  and  C_8
REMARK    4  A    between atoms: C_16  and  C_17
REMARK                            x       y       z     vdW  Elec       q    Type
REMARK                         _______ _______ _______ _____ _____    ______ ____
ROOT
ATOM      1  O   UNL     1       6.151   3.808  15.751  0.00  0.00    +0.000 OA
ATOM      2  C   UNL     1       6.333   4.874  16.301  0.00  0.00    +0.000 C 
ATOM      3  N   UNL     1       7.330   5.777  16.100  0.00  0.00    +0.000 N 
ATOM      4  C   UNL     1       7.222   6.761  17.021  0.00  0.00    +0.000 C 
ATOM      5  N   UNL     1       8.174   7.726  17.078  0.00  0.00    +0.000 N 
ATOM      6  N   UNL     1       6.184   6.665  17.790  0.00  0.00    +0.000 NA
ATOM      7  C   UNL     1       5.540   5.518  17.382  0.00  0.00    +0.000 C 
ATOM      8  C   UNL     1       4.381   5.023  17.834  0.00  0.00    +0.000 C 
ATOM      9  H   UNL     1       8.099   5.620  15.476  0.00  0.00    +0.000 HD
ATOM     10  H   UNL     1       8.515   8.079  16.193  0.00  0.00    +0.000 HD
ENDROOT
BRANCH   8  11
ATOM     11  C   UNL     1       3.518   5.649  18.789  0.00  0.00    +0.000 A 
ATOM     12  C   UNL     1       3.209   5.130  20.035  0.00  0.00    +0.000 A 
ATOM     13  N   UNL     1       2.384   6.017  20.671  0.00  0.00    +0.000 N 
ATOM     14  C   UNL     1       2.164   7.102  19.871  0.00  0.00    +0.000 A 
ATOM     15  N   UNL     1       1.398   8.151  20.219  0.00  0.00    +0.000 NA
ATOM     16  C   UNL     1       1.331   9.093  19.252  0.00  0.00    +0.000 A 
ATOM     17  C   UNL     1       1.963   9.034  18.017  0.00  0.00    +0.000 A 
ATOM     18  C   UNL     1       2.751   7.923  17.710  0.00  0.00    +0.000 A 
ATOM     19  C   UNL     1       2.861   6.909  18.679  0.00  0.00    +0.000 A 
ATOM     20  H   UNL     1       1.985   5.910  21.591  0.00  0.00    +0.000 HD
ENDBRANCH   8  11
BRANCH   5  21
ATOM     21  C   UNL     1       8.237   8.642  18.212  0.00  0.00    +0.000 C 
BRANCH  21  22
ATOM     22  C   UNL     1       8.475  10.078  17.741  0.00  0.00    +0.000 C 
BRANCH  22  23
ATOM     23  C   UNL     1       9.534  10.778  18.557  0.00  0.00    +0.000 A 
ATOM     24  C   UNL     1       9.379  10.925  19.943  0.00  0.00    +0.000 A 
ATOM     25  C   UNL     1      10.352  11.581  20.699  0.00  0.00    +0.000 A 
ATOM     26  C   UNL     1      11.486  12.102  20.078  0.00  0.00    +0.000 A 
ATOM     27  C   UNL     1      11.645  11.970  18.700  0.00  0.00    +0.000 A 
ATOM     28  C   UNL     1      10.673  11.314  17.941  0.00  0.00    +0.000 A 
ENDBRANCH  22  23
ENDBRANCH  21  22
ENDBRANCH   5  21
TORSDOF 4
ENDMDL
MODEL 3
REMARK VINA RESULT:      -8.9      1.457      2.844
REMARK  Name = 
REMARK  4 active torsions:
REMARK  status: ('A' for Active; 'I' for Inactive)
REMARK    1  A    between atoms: N_5  and  C_6
REMARK    2  A    between atoms: C_6  and  C_7
REMARK    3  A    between atoms: C_7  and  C_8
REMARK    4  A    between atoms: C_16  and  C_17
REMARK                            x       y       z     vdW  Elec       q    Type
REMARK                         _______ _______ _______ _____ _____    ______ ____
ROOT
ATOM      1  O   UNL     1       6.392   3.916  14.864  0.00  0.00    +0.000 OA
ATOM      2  C   UNL     1       6.506   4.870  15.605  0.00  0.00    +0.000 C 
ATOM      3  N   UNL     1       7.438   5.860  15.582  0.00  0.00    +0.000 N 
ATOM      4  C   UNL     1       7.270   6.644  16.670  0.00  0.00    +0.000 C 
ATOM      5  N   UNL     1       8.155   7.644  16.912  0.00  0.00    +0.000 N 
ATOM      6  N   UNL     1       6.247   6.335  17.403  0.00  0.00    +0.000 NA
ATOM      7  C   UNL     1       5.679   5.244  16.783  0.00  0.00    +0.000 C 
ATOM      8  C   UNL     1       4.559   4.595  17.128  0.00  0.00    +0.000 C 
ATOM      9  H   UNL     1       8.210   5.876  14.943  0.00  0.00    +0.000 HD
ATOM     10  H   UNL     1       8.464   8.179  16.112  0.00  0.00    +0.000 HD
ENDROOT
BRANCH   8  11
ATOM     11  C   UNL     1       3.663   4.971  18.179  0.00  0.00    +0.000 A 
ATOM     12  C   UNL     1       2.967   6.166  18.235  0.00  0.00    +0.000 A 
ATOM     13  N   UNL     1       2.197   6.156  19.365  0.00  0.00    +0.000 N 
ATOM     14  C   UNL     1       2.368   4.977  20.033  0.00  0.00    +0.000 A 
ATOM     15  N   UNL     1       1.740   4.663  21.180  0.00  0.00    +0.000 NA
ATOM     16  C   UNL     1       2.085   3.443  21.648  0.00  0.00    +0.000 A 
ATOM     17  C   UNL     1       2.984   2.570  21.050  0.00  0.00    +0.000 A 
ATOM     18  C   UNL     1       3.604   2.944  19.856  0.00  0.00    +0.000 A 
ATOM     19  C   UNL     1       3.283   4.204  19.319  0.00  0.00    +0.000 A 
ATOM     20  H   UNL     1       1.585   6.894  19.680  0.00  0.00    +0.000 HD
ENDBRANCH   8  11
BRANCH   5  21
ATOM     21  C   UNL     1       8.164   8.333  18.198  0.00  0.00    +0.000 C 
BRANCH  21  22
ATOM     22  C   UNL     1       8.075   9.848  18.006  0.00  0.00    +0.000 C 
BRANCH  22  23
ATOM     23  C   UNL     1       9.244  10.572  18.629  0.00  0.00    +0.000 A 
ATOM     24  C   UNL     1       9.296  10.774  20.015  0.00  0.00    +0.000 A 
ATOM     25  C   UNL     1      10.370  11.452  20.593  0.00  0.00    +0.000 A 
ATOM     26  C   UNL     1      11.401  11.940  19.791  0.00  0.00    +0.000 A 
ATOM     27  C   UNL     1      11.355  11.752  18.411  0.00  0.00    +0.000 A 
ATOM     28  C   UNL     1      10.281  11.074  17.831  0.00  0.00    +0.000 A 
ENDBRANCH  22  23
ENDBRANCH  21  22
ENDBRANCH   5  21
TORSDOF 4
ENDMDL
MODEL 4
REMARK VINA RESULT:      -8.5      3.940      7.832
REMARK  Name = 
REMARK  4 active torsions:
REMARK  status: ('A' for Active; 'I' for Inactive)
REMARK    1  A    between atoms: N_5  and  C_6
REMARK    2  A    between atoms: C_6  and  C_7
REMARK    3  A    between atoms: C_7  and  C_8
REMARK    4  A    between atoms: C_16  and  C_17
REMARK                            x       y       z     vdW  Elec       q    Type
REMARK                         _______ _______ _______ _____ _____    ______ ____
ROOT
ATOM      1  O   UNL     1       2.350   4.004  21.357  0.00  0.00    +0.000 OA
ATOM      2  C   UNL     1       2.490   5.037  20.736  0.00  0.00    +0.000 C 
ATOM      3  N   UNL     1       1.720   6.158  20.763  0.00  0.00    +0.000 N 
ATOM      4  C   UNL     1       2.164   7.015  19.816  0.00  0.00    +0.000 C 
ATOM      5  N   UNL     1       1.481   8.166  19.589  0.00  0.00    +0.000 N 
ATOM      6  N   UNL     1       3.228   6.623  19.191  0.00  0.00    +0.000 NA
ATOM      7  C   UNL     1       3.530   5.394  19.735  0.00  0.00    +0.000 C 
ATOM      8  C   UNL     1       4.581   4.610  19.460  0.00  0.00    +0.000 C 
ATOM      9  H   UNL     1       0.872   6.233  21.291  0.00  0.00    +0.000 HD
ATOM     10  H   UNL     1       1.137   8.657  20.405  0.00  0.00    +0.000 HD
ENDROOT
BRANCH   8  11
ATOM     11  C   UNL     1       5.670   4.944  18.593  0.00  0.00    +0.000 A 
ATOM     12  C   UNL     1       6.878   5.477  19.010  0.00  0.00    +0.000 A 
ATOM     13  N   UNL     1       7.674   5.636  17.909  0.00  0.00    +0.000 N 
ATOM     14  C   UNL     1       7.014   5.205  16.793  0.00  0.00    +0.000 A 
ATOM     15  N   UNL     1       7.537   5.226  15.554  0.00  0.00    +0.000 NA
ATOM     16  C   UNL     1       6.683   4.755  14.618  0.00  0.00    +0.000 A 
ATOM     17  C   UNL     1       5.397   4.288  14.856  0.00  0.00    +0.000 A 
ATOM     18  C   UNL     1       4.906   4.283  16.163  0.00  0.00    +0.000 A 
ATOM     19  C   UNL     1       5.751   4.761  17.182  0.00  0.00    +0.000 A 
ATOM     20  H   UNL     1       8.610   6.012  17.895  0.00  0.00    +0.000 HD
ENDBRANCH   8  11
BRANCH   5  21
ATOM     21  C   UNL     1       1.768   8.980  18.413  0.00  0.00    +0.000 C 
BRANCH  21  22
ATOM     22  C   UNL     1       1.368  10.438  18.647  0.00  0.00    +0.000 C 
BRANCH  22  23
ATOM     23  C   UNL     1      -0.121  10.649  18.523  0.00  0.00    +0.000 A 
ATOM     24  C   UNL     1      -0.880   9.854  17.652  0.00  0.00    +0.000 A 
ATOM     25  C   UNL     1      -2.256  10.054  17.528  0.00  0.00    +0.000 A 
ATOM     26  C   UNL     1      -2.886  11.053  18.268  0.00  0.00    +0.000 A 
ATOM     27  C   UNL     1      -2.141  11.854  19.129  0.00  0.00    +0.000 A 
ATOM     28  C   UNL     1      -0.764  11.657  19.256  0.00  0.00    +0.000 A 
ENDBRANCH  22  23
ENDBRANCH  21  22
ENDBRANCH   5  21
TORSDOF 4
ENDMDL
MODEL 5
REMARK VINA RESULT:      -8.5      5.635      8.317
REMARK  Name = 
REMARK  4 active torsions:
REMARK  status: ('A' for Active; 'I' for Inactive)
REMARK    1  A    between atoms: N_5  and  C_6
REMARK    2  A    between atoms: C_6  and  C_7
REMARK    3  A    between atoms: C_7  and  C_8
REMARK    4  A    between atoms: C_16  and  C_17
REMARK                            x       y       z     vdW  Elec       q    Type
REMARK                         _______ _______ _______ _____ _____    ______ ____
ROOT
ATOM      1  O   UNL     1       0.728   9.851  23.216  0.00  0.00    +0.000 OA
ATOM      2  C   UNL     1       0.918   9.375  22.116  0.00  0.00    +0.000 C 
ATOM      3  N   UNL     1       1.555   8.219  21.787  0.00  0.00    +0.000 N 
ATOM      4  C   UNL     1       1.654   8.142  20.441  0.00  0.00    +0.000 C 
ATOM      5  N   UNL     1       2.346   7.117  19.882  0.00  0.00    +0.000 N 
ATOM      6  N   UNL     1       1.064   9.103  19.802  0.00  0.00    +0.000 NA
ATOM      7  C   UNL     1       0.536   9.913  20.784  0.00  0.00    +0.000 C 
ATOM      8  C   UNL     1      -0.218  11.009  20.626  0.00  0.00    +0.000 C 
ATOM      9  H   UNL     1       2.012   7.631  22.457  0.00  0.00    +0.000 HD
ATOM     10  H   UNL     1       2.218   6.205  20.299  0.00  0.00    +0.000 HD
ENDROOT
BRANCH   8  11
ATOM     11  C   UNL     1      -0.711  11.514  19.380  0.00  0.00    +0.000 A 
ATOM     12  C   UNL     1      -0.305  12.700  18.791  0.00  0.00    +0.000 A 
ATOM     13  N   UNL     1      -0.970  12.833  17.604  0.00  0.00    +0.000 N 
ATOM     14  C   UNL     1      -1.785  11.755  17.404  0.00  0.00    +0.000 A 
ATOM     15  N   UNL     1      -2.565  11.591  16.321  0.00  0.00    +0.000 NA
ATOM     16  C   UNL     1      -3.284  10.446  16.363  0.00  0.00    +0.000 A 
ATOM     17  C   UNL     1      -3.257   9.510  17.387  0.00  0.00    +0.000 A 
ATOM     18  C   UNL     1      -2.424   9.727  18.487  0.00  0.00    +0.000 A 
ATOM     19  C   UNL     1      -1.649  10.902  18.499  0.00  0.00    +0.000 A 
ATOM     20  H   UNL     1      -0.890  13.601  16.954  0.00  0.00    +0.000 HD
ENDBRANCH   8  11
BRANCH   5  21
ATOM     21  C   UNL     1       2.697   7.143  18.466  0.00  0.00    +0.000 C 
BRANCH  21  22
ATOM     22  C   UNL     1       3.405   5.850  18.056  0.00  0.00    +0.000 C 
BRANCH  22  23
ATOM     23  C   UNL     1       2.746   4.626  18.645  0.00  0.00    +0.000 A 
ATOM     24  C   UNL     1       3.308   3.985  19.759  0.00  0.00    +0.000 A 
ATOM     25  C   UNL     1       2.706   2.848  20.299  0.00  0.00    +0.000 A 
ATOM     26  C   UNL     1       1.541   2.336  19.731  0.00  0.00    +0.000 A 
ATOM     27  C   UNL     1       0.980   2.960  18.618  0.00  0.00    +0.000 A 
ATOM     28  C   UNL     1       1.580   4.099  18.075  0.00  0.00    +0.000 A 
ENDBRANCH  22  23
ENDBRANCH  21  22
ENDBRANCH   5  21
TORSDOF 4
ENDMDL
MODEL 6
REMARK VINA RESULT:      -8.4      0.906      1.279
REMARK  Name = 
REMARK  4 active torsions:
REMARK  status: ('A' for Active; 'I' for Inactive)
REMARK    1  A    between atoms: N_5  and  C_6
REMARK    2  A    between atoms: C_6  and  C_7
REMARK    3  A    between atoms: C_7  and  C_8
REMARK    4  A    between atoms: C_16  and  C_17
REMARK                            x       y       z     vdW  Elec       q    Type
REMARK                         _______ _______ _______ _____ _____    ______ ____
ROOT
ATOM      1  O   UNL     1       6.157   3.845  14.502  0.00  0.00    +0.000 OA
ATOM      2  C   UNL     1       6.327   4.729  15.316  0.00  0.00    +0.000 C 
ATOM      3  N   UNL     1       7.238   5.738  15.300  0.00  0.00    +0.000 N 
ATOM      4  C   UNL     1       7.162   6.415  16.468  0.00  0.00    +0.000 C 
ATOM      5  N   UNL     1       8.051   7.408  16.720  0.00  0.00    +0.000 N 
ATOM      6  N   UNL     1       6.217   6.016  17.260  0.00  0.00    +0.000 NA
ATOM      7  C   UNL     1       5.609   4.974  16.595  0.00  0.00    +0.000 C 
ATOM      8  C   UNL     1       4.536   4.269  16.980  0.00  0.00    +0.000 C 
ATOM      9  H   UNL     1       7.946   5.831  14.597  0.00  0.00    +0.000 HD
ATOM     10  H   UNL     1       8.276   8.022  15.948  0.00  0.00    +0.000 HD
ENDROOT
BRANCH   8  11
ATOM     11  C   UNL     1       3.738   4.526  18.141  0.00  0.00    +0.000 A 
ATOM     12  C   UNL     1       3.455   3.596  19.127  0.00  0.00    +0.000 A 
ATOM     13  N   UNL     1       2.694   4.211  20.082  0.00  0.00    +0.000 N 
ATOM     14  C   UNL     1       2.490   5.518  19.744  0.00  0.00    +0.000 A 
ATOM     15  N   UNL     1       1.783   6.388  20.488  0.00  0.00    +0.000 NA
ATOM     16  C   UNL     1       1.720   7.619  19.934  0.00  0.00    +0.000 A 
ATOM     17  C   UNL     1       2.301   7.998  18.732  0.00  0.00    +0.000 A 
ATOM     18  C   UNL     1       3.029   7.056  18.002  0.00  0.00    +0.000 A 
ATOM     19  C   UNL     1       3.132   5.756  18.529  0.00  0.00    +0.000 A 
ATOM     20  H   UNL     1       2.325   3.786  20.920  0.00  0.00    +0.000 HD
ENDBRANCH   8  11
BRANCH   5  21
ATOM     21  C   UNL     1       8.171   7.976  18.059  0.00  0.00    +0.000 C 
BRANCH  21  22
ATOM     22  C   UNL     1       7.885   9.479  18.042  0.00  0.00    +0.000 C 
BRANCH  22  23
ATOM     23  C   UNL     1       9.037  10.286  18.586  0.00  0.00    +0.000 A 
ATOM     24  C   UNL     1      10.010  10.806  17.721  0.00  0.00    +0.000 A 
ATOM     25  C   UNL     1      11.083  11.545  18.223  0.00  0.00    +0.000 A 
ATOM     26  C   UNL     1      11.196  11.768  19.594  0.00  0.00    +0.000 A 
ATOM     27  C   UNL     1      10.240  11.249  20.463  0.00  0.00    +0.000 A 
ATOM     28  C   UNL     1       9.166  10.509  19.964  0.00  0.00    +0.000 A 
ENDBRANCH  22  23
ENDBRANCH  21  22
ENDBRANCH   5  21
TORSDOF 4
ENDMDL
MODEL 7
REMARK VINA RESULT:      -8.4      3.921      7.862
REMARK  Name = 
REMARK  4 active torsions:
REMARK  status: ('A' for Active; 'I' for Inactive)
REMARK    1  A    between atoms: N_5  and  C_6
REMARK    2  A    between atoms: C_6  and  C_7
REMARK    3  A    between atoms: C_7  and  C_8
REMARK    4  A    between atoms: C_16  and  C_17
REMARK                            x       y       z     vdW  Elec       q    Type
REMARK                         _______ _______ _______ _____ _____    ______ ____
ROOT
ATOM      1  O   UNL     1       2.606   3.260  20.967  0.00  0.00    +0.000 OA
ATOM      2  C   UNL     1       2.693   4.399  20.556  0.00  0.00    +0.000 C 
ATOM      3  N   UNL     1       1.914   5.474  20.852  0.00  0.00    +0.000 N 
ATOM      4  C   UNL     1       2.286   6.512  20.070  0.00  0.00    +0.000 C 
ATOM      5  N   UNL     1       1.577   7.668  20.119  0.00  0.00    +0.000 N 
ATOM      6  N   UNL     1       3.312   6.277  19.316  0.00  0.00    +0.000 NA
ATOM      7  C   UNL     1       3.663   4.972  19.585  0.00  0.00    +0.000 C 
ATOM      8  C   UNL     1       4.703   4.284  19.097  0.00  0.00    +0.000 C 
ATOM      9  H   UNL     1       1.101   5.421  21.435  0.00  0.00    +0.000 HD
ATOM     10  H   UNL     1       1.280   7.979  21.035  0.00  0.00    +0.000 HD
ENDROOT
BRANCH   8  11
ATOM     11  C   UNL     1       5.730   4.809  18.249  0.00  0.00    +0.000 A 
ATOM     12  C   UNL     1       6.832   5.523  18.690  0.00  0.00    +0.000 A 
ATOM     13  N   UNL     1       7.600   5.833  17.602  0.00  0.00    +0.000 N 
ATOM     14  C   UNL     1       7.029   5.324  16.470  0.00  0.00    +0.000 A 
ATOM     15  N   UNL     1       7.551   5.457  15.238  0.00  0.00    +0.000 NA
ATOM     16  C   UNL     1       6.792   4.873  14.283  0.00  0.00    +0.000 A 
ATOM     17  C   UNL     1       5.598   4.199  14.497  0.00  0.00    +0.000 A 
ATOM     18  C   UNL     1       5.104   4.085  15.798  0.00  0.00    +0.000 A 
ATOM     19  C   UNL     1       5.851   4.672  16.835  0.00  0.00    +0.000 A 
ATOM     20  H   UNL     1       8.462   6.356  17.606  0.00  0.00    +0.000 HD
ENDBRANCH   8  11
BRANCH   5  21
ATOM     21  C   UNL     1       1.777   8.705  19.113  0.00  0.00    +0.000 C 
BRANCH  21  22
ATOM     22  C   UNL     1       1.194  10.040  19.582  0.00  0.00    +0.000 C 
BRANCH  22  23
ATOM     23  C   UNL     1      -0.131  10.346  18.928  0.00  0.00    +0.000 A 
ATOM     24  C   UNL     1      -0.988  11.310  19.479  0.00  0.00    +0.000 A 
ATOM     25  C   UNL     1      -2.218  11.588  18.882  0.00  0.00    +0.000 A 
ATOM     26  C   UNL     1      -2.608  10.903  17.732  0.00  0.00    +0.000 A 
ATOM     27  C   UNL     1      -1.768   9.937  17.182  0.00  0.00    +0.000 A 
ATOM     28  C   UNL     1      -0.536   9.657  17.777  0.00  0.00    +0.000 A 
ENDBRANCH  22  23
ENDBRANCH  21  22
ENDBRANCH   5  21
TORSDOF 4
ENDMDL
MODEL 8
REMARK VINA RESULT:      -8.4      4.276      7.666
REMARK  Name = 
REMARK  4 active torsions:
REMARK  status: ('A' for Active; 'I' for Inactive)
REMARK    1  A    between atoms: N_5  and  C_6
REMARK    2  A    between atoms: C_6  and  C_7
REMARK    3  A    between atoms: C_7  and  C_8
REMARK    4  A    between atoms: C_16  and  C_17
REMARK                            x       y       z     vdW  Elec       q    Type
REMARK                         _______ _______ _______ _____ _____    ______ ____
ROOT
ATOM      1  O   UNL     1       1.912   2.280  19.995  0.00  0.00    +0.000 OA
ATOM      2  C   UNL     1       2.160   3.466  20.066  0.00  0.00    +0.000 C 
ATOM      3  N   UNL     1       1.511   4.430  20.772  0.00  0.00    +0.000 N 
ATOM      4  C   UNL     1       2.044   5.633  20.460  0.00  0.00    +0.000 C 
ATOM      5  N   UNL     1       1.485   6.760  20.970  0.00  0.00    +0.000 N 
ATOM      6  N   UNL     1       3.063   5.580  19.662  0.00  0.00    +0.000 NA
ATOM      7  C   UNL     1       3.234   4.240  19.390  0.00  0.00    +0.000 C 
ATOM      8  C   UNL     1       4.199   3.668  18.657  0.00  0.00    +0.000 C 
ATOM      9  H   UNL     1       0.674   4.262  21.297  0.00  0.00    +0.000 HD
ATOM     10  H   UNL     1       1.192   6.722  21.938  0.00  0.00    +0.000 HD
ENDROOT
BRANCH   8  11
ATOM     11  C   UNL     1       5.318   4.343  18.074  0.00  0.00    +0.000 A 
ATOM     12  C   UNL     1       6.283   5.036  18.786  0.00  0.00    +0.000 A 
ATOM     13  N   UNL     1       7.202   5.518  17.896  0.00  0.00    +0.000 N 
ATOM     14  C   UNL     1       6.862   5.143  16.628  0.00  0.00    +0.000 A 
ATOM     15  N   UNL     1       7.575   5.460  15.532  0.00  0.00    +0.000 NA
ATOM     16  C   UNL     1       7.026   4.978  14.394  0.00  0.00    +0.000 A 
ATOM     17  C   UNL     1       5.858   4.233  14.310  0.00  0.00    +0.000 A 
ATOM     18  C   UNL     1       5.160   3.928  15.480  0.00  0.00    +0.000 A 
ATOM     19  C   UNL     1       5.683   4.401  16.697  0.00  0.00    +0.000 A 
ATOM     20  H   UNL     1       8.017   6.071  18.116  0.00  0.00    +0.000 HD
ENDBRANCH   8  11
BRANCH   5  21
ATOM     21  C   UNL     1       1.857   8.073  20.453  0.00  0.00    +0.000 C 
BRANCH  21  22
ATOM     22  C   UNL     1       0.630   8.820  19.927  0.00  0.00    +0.000 C 
BRANCH  22  23
ATOM     23  C   UNL     1       0.034   9.741  20.962  0.00  0.00    +0.000 A 
ATOM     24  C   UNL     1      -0.212  11.087  20.656  0.00  0.00    +0.000 A 
ATOM     25  C   UNL     1      -0.755  11.944  21.615  0.00  0.00    +0.000 A 
ATOM     26  C   UNL     1      -1.053  11.467  22.890  0.00  0.00    +0.000 A 
ATOM     27  C   UNL     1      -0.804  10.133  23.208  0.00  0.00    +0.000 A 
ATOM     28  C   UNL     1      -0.261   9.273  22.250  0.00  0.00    +0.000 A 
ENDBRANCH  22  23
ENDBRANCH  21  22
ENDBRANCH   5  21
TORSDOF 4
ENDMDL
MODEL 9
REMARK VINA RESULT:      -8.3      4.018      7.623
REMARK  Name = 
REMARK  4 active torsions:
REMARK  status: ('A' for Active; 'I' for Inactive)
REMARK    1  A    between atoms: N_5  and  C_6
REMARK    2  A    between atoms: C_6  and  C_7
REMARK    3  A    between atoms: C_7  and  C_8
REMARK    4  A    between atoms: C_16  and  C_17
REMARK                            x       y       z     vdW  Elec       q    Type
REMARK                         _______ _______ _______ _____ _____    ______ ____
ROOT
ATOM      1  O   UNL     1       2.890   2.298  20.577  0.00  0.00    +0.000 OA
ATOM      2  C   UNL     1       2.918   3.504  20.442  0.00  0.00    +0.000 C 
ATOM      3  N   UNL     1       2.138   4.446  21.038  0.00  0.00    +0.000 N 
ATOM      4  C   UNL     1       2.422   5.653  20.500  0.00  0.00    +0.000 C 
ATOM      5  N   UNL     1       1.691   6.735  20.871  0.00  0.00    +0.000 N 
ATOM      6  N   UNL     1       3.392   5.645  19.641  0.00  0.00    +0.000 NA
ATOM      7  C   UNL     1       3.794   4.329  19.569  0.00  0.00    +0.000 C 
ATOM      8  C   UNL     1       4.809   3.819  18.860  0.00  0.00    +0.000 C 
ATOM      9  H   UNL     1       1.374   4.224  21.648  0.00  0.00    +0.000 HD
ATOM     10  H   UNL     1       1.459   6.810  21.852  0.00  0.00    +0.000 HD
ENDROOT
BRANCH   8  11
ATOM     11  C   UNL     1       5.754   4.571  18.090  0.00  0.00    +0.000 A 
ATOM     12  C   UNL     1       6.643   5.495  18.613  0.00  0.00    +0.000 A 
ATOM     13  N   UNL     1       7.398   5.986  17.584  0.00  0.00    +0.000 N 
ATOM     14  C   UNL     1       7.028   5.392  16.411  0.00  0.00    +0.000 A 
ATOM     15  N   UNL     1       7.591   5.661  15.220  0.00  0.00    +0.000 NA
ATOM     16  C   UNL     1       7.042   4.949  14.210  0.00  0.00    +0.000 A 
ATOM     17  C   UNL     1       6.010   4.030  14.334  0.00  0.00    +0.000 A 
ATOM     18  C   UNL     1       5.465   3.784  15.596  0.00  0.00    +0.000 A 
ATOM     19  C   UNL     1       5.996   4.495  16.688  0.00  0.00    +0.000 A 
ATOM     20  H   UNL     1       8.126   6.682  17.653  0.00  0.00    +0.000 HD
ENDBRANCH   8  11
BRANCH   5  21
ATOM     21  C   UNL     1       1.786   7.986  20.127  0.00  0.00    +0.000 C 
BRANCH  21  22
ATOM     22  C   UNL     1       1.289   9.162  20.970  0.00  0.00    +0.000 C 
BRANCH  22  23
ATOM     23  C   UNL     1       0.277  10.005  20.235  0.00  0.00    +0.000 A 
ATOM     24  C   UNL     1       0.097   9.852  18.853  0.00  0.00    +0.000 A 
ATOM     25  C   UNL     1      -0.832  10.638  18.168  0.00  0.00    +0.000 A 
ATOM     26  C   UNL     1      -1.585  11.588  18.856  0.00  0.00    +0.000 A 
ATOM     27  C   UNL     1      -1.407  11.755  20.228  0.00  0.00    +0.000 A 
ATOM     28  C   UNL     1      -0.479  10.969  20.915  0.00  0.00    +0.000 A 
ENDBRANCH  22  23
ENDBRANCH  21  22
ENDBRANCH   5  21
TORSDOF 4
ENDMDL
