MODEL 1
REMARK VINA RESULT:      -7.0      0.000      0.000
REMARK  Name = 
REMARK  8 active torsions:
REMARK  status: ('A' for Active; 'I' for Inactive)
REMARK    1  A    between atoms: C_1  and  C_2
REMARK    2  A    between atoms: C_2  and  O_3
REMARK    3  A    between atoms: C_2  and  C_11
REMARK    4  A    between atoms: O_3  and  C_4
REMARK    5  A    between atoms: N_13  and  C_14
REMARK    6  A    between atoms: C_14  and  C_15
REMARK    7  A    between atoms: C_15  and  C_16
REMARK    8  A    between atoms: C_16  and  N_17
REMARK                            x       y       z     vdW  Elec       q    Type
REMARK                         _______ _______ _______ _____ _____    ______ ____
ROOT
ATOM      1  C   UNL     1       2.649   3.888  18.631  0.00  0.00    +0.000 C 
ATOM      2  O   UNL     1       2.290   2.740  18.351  0.00  0.00    +0.000 OA
ATOM      3  N   UNL     1       3.787   4.434  18.083  0.00  0.00    +0.000 N 
ATOM      4  H   UNL     1       4.123   5.295  18.506  0.00  0.00    +0.000 HD
ENDROOT
BRANCH   1   6
ATOM      5  C   UNL     1       1.365   4.003  20.750  0.00  0.00    +0.000 C 
ATOM      6  C   UNL     1       1.822   4.828  19.541  0.00  0.00    +0.000 C 
BRANCH   6   7
ATOM      7  O   UNL     1       2.625   5.955  19.914  0.00  0.00    +0.000 OA
BRANCH   7   8
ATOM      8  C   UNL     1       2.183   7.219  19.612  0.00  0.00    +0.000 A 
ATOM      9  C   UNL     1       2.242   7.820  18.357  0.00  0.00    +0.000 A 
ATOM     10  C   UNL     1       1.678   9.084  18.138  0.00  0.00    +0.000 A 
ATOM     11  C   UNL     1       1.048   9.752  19.183  0.00  0.00    +0.000 A 
ATOM     12 BR   UNL     1       0.245  11.437  18.866  0.00  0.00    +0.000 Br
ATOM     13  C   UNL     1       0.988   9.177  20.445  0.00  0.00    +0.000 A 
ATOM     14  C   UNL     1       1.555   7.914  20.659  0.00  0.00    +0.000 A 
ENDBRANCH   7   8
ENDBRANCH   6   7
ENDBRANCH   1   6
BRANCH   3  15
ATOM     15  C   UNL     1       4.646   3.623  17.243  0.00  0.00    +0.000 C 
BRANCH  15  16
ATOM     16  C   UNL     1       4.895   4.221  15.860  0.00  0.00    +0.000 C 
BRANCH  16  17
ATOM     17  C   UNL     1       6.365   4.592  15.668  0.00  0.00    +0.000 C 
BRANCH  17  18
ATOM     18  N   UNL     1       6.858   5.529  16.658  0.00  0.00    +0.000 N 
ATOM     19  C   UNL     1       6.355   6.872  16.786  0.00  0.00    +0.000 C 
ATOM     20  C   UNL     1       7.373   7.537  17.693  0.00  0.00    +0.000 C 
ATOM     21  C   UNL     1       7.891   6.399  18.566  0.00  0.00    +0.000 C 
ATOM     22  C   UNL     1       7.738   5.191  17.674  0.00  0.00    +0.000 C 
ATOM     23  O   UNL     1       8.261   4.103  17.853  0.00  0.00    +0.000 OA
ENDBRANCH  17  18
ENDBRANCH  16  17
ENDBRANCH  15  16
ENDBRANCH   3  15
TORSDOF 7
ENDMDL
MODEL 2
REMARK VINA RESULT:      -6.9      0.522      1.151
REMARK  Name = 
REMARK  8 active torsions:
REMARK  status: ('A' for Active; 'I' for Inactive)
REMARK    1  A    between atoms: C_1  and  C_2
REMARK    2  A    between atoms: C_2  and  O_3
REMARK    3  A    between atoms: C_2  and  C_11
REMARK    4  A    between atoms: O_3  and  C_4
REMARK    5  A    between atoms: N_13  and  C_14
REMARK    6  A    between atoms: C_14  and  C_15
REMARK    7  A    between atoms: C_15  and  C_16
REMARK    8  A    between atoms: C_16  and  N_17
REMARK                            x       y       z     vdW  Elec       q    Type
REMARK                         _______ _______ _______ _____ _____    ______ ____
ROOT
ATOM      1  C   UNL     1       3.353   4.097  18.659  0.00  0.00    +0.000 C 
ATOM      2  O   UNL     1       3.823   3.096  19.209  0.00  0.00    +0.000 OA
ATOM      3  N   UNL     1       3.721   4.450  17.382  0.00  0.00    +0.000 N 
ATOM      4  H   UNL     1       3.450   5.380  17.074  0.00  0.00    +0.000 HD
ENDROOT
BRANCH   1   6
ATOM      5  C   UNL     1       1.640   4.164  20.452  0.00  0.00    +0.000 C 
ATOM      6  C   UNL     1       2.263   4.980  19.314  0.00  0.00    +0.000 C 
BRANCH   6   7
ATOM      7  O   UNL     1       2.855   6.202  19.772  0.00  0.00    +0.000 OA
BRANCH   7   8
ATOM      8  C   UNL     1       2.164   7.378  19.619  0.00  0.00    +0.000 A 
ATOM      9  C   UNL     1       1.486   8.057  20.628  0.00  0.00    +0.000 A 
ATOM     10  C   UNL     1       0.888   9.301  20.381  0.00  0.00    +0.000 A 
ATOM     11  C   UNL     1       0.971   9.870  19.114  0.00  0.00    +0.000 A 
ATOM     12 BR   UNL     1       0.203  11.572  18.803  0.00  0.00    +0.000 Br
ATOM     13  C   UNL     1       1.630   9.205  18.090  0.00  0.00    +0.000 A 
ATOM     14  C   UNL     1       2.225   7.961  18.342  0.00  0.00    +0.000 A 
ENDBRANCH   7   8
ENDBRANCH   6   7
ENDBRANCH   1   6
BRANCH   3  15
ATOM     15  C   UNL     1       4.758   3.703  16.696  0.00  0.00    +0.000 C 
BRANCH  15  16
ATOM     16  C   UNL     1       5.204   4.337  15.381  0.00  0.00    +0.000 C 
BRANCH  16  17
ATOM     17  C   UNL     1       6.678   4.739  15.426  0.00  0.00    +0.000 C 
BRANCH  17  18
ATOM     18  N   UNL     1       7.015   5.568  16.567  0.00  0.00    +0.000 N 
ATOM     19  C   UNL     1       6.468   6.885  16.770  0.00  0.00    +0.000 C 
ATOM     20  C   UNL     1       7.343   7.456  17.870  0.00  0.00    +0.000 C 
ATOM     21  C   UNL     1       7.769   6.235  18.677  0.00  0.00    +0.000 C 
ATOM     22  C   UNL     1       7.762   5.129  17.649  0.00  0.00    +0.000 C 
ATOM     23  O   UNL     1       8.283   4.034  17.779  0.00  0.00    +0.000 OA
ENDBRANCH  17  18
ENDBRANCH  16  17
ENDBRANCH  15  16
ENDBRANCH   3  15
TORSDOF 7
ENDMDL
MODEL 3
REMARK VINA RESULT:      -6.8      1.114      1.399
REMARK  Name = 
REMARK  8 active torsions:
REMARK  status: ('A' for Active; 'I' for Inactive)
REMARK    1  A    between atoms: C_1  and  C_2
REMARK    2  A    between atoms: C_2  and  O_3
REMARK    3  A    between atoms: C_2  and  C_11
REMARK    4  A    between atoms: O_3  and  C_4
REMARK    5  A    between atoms: N_13  and  C_14
REMARK    6  A    between atoms: C_14  and  C_15
REMARK    7  A    between atoms: C_15  and  C_16
REMARK    8  A    between atoms: C_16  and  N_17
REMARK                            x       y       z     vdW  Elec       q    Type
REMARK                         _______ _______ _______ _____ _____    ______ ____
ROOT
ATOM      1  C   UNL     1       3.182   4.136  19.114  0.00  0.00    +0.000 C 
ATOM      2  O   UNL     1       4.018   3.609  19.854  0.00  0.00    +0.000 OA
ATOM      3  N   UNL     1       3.301   4.076  17.745  0.00  0.00    +0.000 N 
ATOM      4  H   UNL     1       2.694   4.692  17.211  0.00  0.00    +0.000 HD
ENDROOT
BRANCH   1   6
ATOM      5  C   UNL     1       1.109   3.767  20.425  0.00  0.00    +0.000 C 
ATOM      6  C   UNL     1       1.903   4.824  19.648  0.00  0.00    +0.000 C 
BRANCH   6   7
ATOM      7  O   UNL     1       2.271   5.944  20.462  0.00  0.00    +0.000 OA
BRANCH   7   8
ATOM      8  C   UNL     1       1.970   7.212  20.030  0.00  0.00    +0.000 A 
ATOM      9  C   UNL     1       2.169   7.697  18.740  0.00  0.00    +0.000 A 
ATOM     10  C   UNL     1       1.740   8.982  18.381  0.00  0.00    +0.000 A 
ATOM     11  C   UNL     1       1.105   9.788  19.321  0.00  0.00    +0.000 A 
ATOM     12 BR   UNL     1       0.485  11.503  18.814  0.00  0.00    +0.000 Br
ATOM     13  C   UNL     1       0.907   9.329  20.616  0.00  0.00    +0.000 A 
ATOM     14  C   UNL     1       1.340   8.044  20.970  0.00  0.00    +0.000 A 
ENDBRANCH   7   8
ENDBRANCH   6   7
ENDBRANCH   1   6
BRANCH   3  15
ATOM     15  C   UNL     1       4.480   3.479  17.147  0.00  0.00    +0.000 C 
BRANCH  15  16
ATOM     16  C   UNL     1       4.953   4.189  15.881  0.00  0.00    +0.000 C 
BRANCH  16  17
ATOM     17  C   UNL     1       6.474   4.332  15.854  0.00  0.00    +0.000 C 
BRANCH  17  18
ATOM     18  N   UNL     1       7.000   5.110  16.959  0.00  0.00    +0.000 N 
ATOM     19  C   UNL     1       7.857   4.553  17.973  0.00  0.00    +0.000 C 
ATOM     20  C   UNL     1       7.864   5.627  19.046  0.00  0.00    +0.000 C 
ATOM     21  C   UNL     1       7.667   6.926  18.272  0.00  0.00    +0.000 C 
ATOM     22  C   UNL     1       6.869   6.486  17.068  0.00  0.00    +0.000 C 
ATOM     23  O   UNL     1       6.263   7.223  16.309  0.00  0.00    +0.000 OA
ENDBRANCH  17  18
ENDBRANCH  16  17
ENDBRANCH  15  16
ENDBRANCH   3  15
TORSDOF 7
ENDMDL
MODEL 4
REMARK VINA RESULT:      -6.5      1.556      2.629
REMARK  Name = 
REMARK  8 active torsions:
REMARK  status: ('A' for Active; 'I' for Inactive)
REMARK    1  A    between atoms: C_1  and  C_2
REMARK    2  A    between atoms: C_2  and  O_3
REMARK    3  A    between atoms: C_2  and  C_11
REMARK    4  A    between atoms: O_3  and  C_4
REMARK    5  A    between atoms: N_13  and  C_14
REMARK    6  A    between atoms: C_14  and  C_15
REMARK    7  A    between atoms: C_15  and  C_16
REMARK    8  A    between atoms: C_16  and  N_17
REMARK                            x       y       z     vdW  Elec       q    Type
REMARK                         _______ _______ _______ _____ _____    ______ ____
ROOT
ATOM      1  C   UNL     1       3.587   4.873  19.074  0.00  0.00    +0.000 C 
ATOM      2  O   UNL     1       3.540   3.831  18.414  0.00  0.00    +0.000 OA
ATOM      3  N   UNL     1       4.789   5.449  19.417  0.00  0.00    +0.000 N 
ATOM      4  H   UNL     1       4.754   6.183  20.119  0.00  0.00    +0.000 HD
ENDROOT
BRANCH   1   6
ATOM      5  C   UNL     1       1.624   4.839  20.591  0.00  0.00    +0.000 C 
ATOM      6  C   UNL     1       2.321   5.657  19.497  0.00  0.00    +0.000 C 
BRANCH   6   7
ATOM      7  O   UNL     1       2.699   6.965  19.943  0.00  0.00    +0.000 OA
BRANCH   7   8
ATOM      8  C   UNL     1       1.849   8.019  19.719  0.00  0.00    +0.000 A 
ATOM      9  C   UNL     1       1.051   8.636  20.679  0.00  0.00    +0.000 A 
ATOM     10  C   UNL     1       0.286   9.766  20.360  0.00  0.00    +0.000 A 
ATOM     11  C   UNL     1       0.322  10.285  19.069  0.00  0.00    +0.000 A 
ATOM     12 BR   UNL     1      -0.675  11.841  18.660  0.00  0.00    +0.000 Br
ATOM     13  C   UNL     1       1.101   9.679  18.093  0.00  0.00    +0.000 A 
ATOM     14  C   UNL     1       1.862   8.548  18.417  0.00  0.00    +0.000 A 
ENDBRANCH   7   8
ENDBRANCH   6   7
ENDBRANCH   1   6
BRANCH   3  15
ATOM     15  C   UNL     1       6.031   4.774  19.094  0.00  0.00    +0.000 C 
BRANCH  15  16
ATOM     16  C   UNL     1       7.237   5.707  19.030  0.00  0.00    +0.000 C 
BRANCH  16  17
ATOM     17  C   UNL     1       7.263   6.501  17.724  0.00  0.00    +0.000 C 
BRANCH  17  18
ATOM     18  N   UNL     1       6.737   5.765  16.591  0.00  0.00    +0.000 N 
ATOM     19  C   UNL     1       7.395   4.614  16.029  0.00  0.00    +0.000 C 
ATOM     20  C   UNL     1       6.669   4.411  14.712  0.00  0.00    +0.000 C 
ATOM     21  C   UNL     1       5.261   4.932  14.981  0.00  0.00    +0.000 C 
ATOM     22  C   UNL     1       5.486   5.987  16.037  0.00  0.00    +0.000 C 
ATOM     23  O   UNL     1       4.684   6.844  16.368  0.00  0.00    +0.000 OA
ENDBRANCH  17  18
ENDBRANCH  16  17
ENDBRANCH  15  16
ENDBRANCH   3  15
TORSDOF 7
ENDMDL
MODEL 5
REMARK VINA RESULT:      -6.5      2.236      4.324
REMARK  Name = 
REMARK  8 active torsions:
REMARK  status: ('A' for Active; 'I' for Inactive)
REMARK    1  A    between atoms: C_1  and  C_2
REMARK    2  A    between atoms: C_2  and  O_3
REMARK    3  A    between atoms: C_2  and  C_11
REMARK    4  A    between atoms: O_3  and  C_4
REMARK    5  A    between atoms: N_13  and  C_14
REMARK    6  A    between atoms: C_14  and  C_15
REMARK    7  A    between atoms: C_15  and  C_16
REMARK    8  A    between atoms: C_16  and  N_17
REMARK                            x       y       z     vdW  Elec       q    Type
REMARK                         _______ _______ _______ _____ _____    ______ ____
ROOT
ATOM      1  C   UNL     1       4.358   5.416  18.275  0.00  0.00    +0.000 C 
ATOM      2  O   UNL     1       4.645   5.111  19.437  0.00  0.00    +0.000 OA
ATOM      3  N   UNL     1       4.193   4.456  17.304  0.00  0.00    +0.000 N 
ATOM      4  H   UNL     1       4.155   4.786  16.344  0.00  0.00    +0.000 HD
ENDROOT
BRANCH   1   6
ATOM      5  C   UNL     1       4.766   7.076  16.478  0.00  0.00    +0.000 C 
ATOM      6  C   UNL     1       4.081   6.874  17.834  0.00  0.00    +0.000 C 
BRANCH   6   7
ATOM      7  O   UNL     1       2.665   7.090  17.773  0.00  0.00    +0.000 OA
BRANCH   7   8
ATOM      8  C   UNL     1       2.093   8.006  18.619  0.00  0.00    +0.000 A 
ATOM      9  C   UNL     1       1.570   9.241  18.243  0.00  0.00    +0.000 A 
ATOM     10  C   UNL     1       0.924  10.064  19.177  0.00  0.00    +0.000 A 
ATOM     11  C   UNL     1       0.798   9.645  20.498  0.00  0.00    +0.000 A 
ATOM     12 BR   UNL     1      -0.119  10.740  21.741  0.00  0.00    +0.000 Br
ATOM     13  C   UNL     1       1.323   8.424  20.897  0.00  0.00    +0.000 A 
ATOM     14  C   UNL     1       1.969   7.607  19.960  0.00  0.00    +0.000 A 
ENDBRANCH   7   8
ENDBRANCH   6   7
ENDBRANCH   1   6
BRANCH   3  15
ATOM     15  C   UNL     1       4.460   3.064  17.611  0.00  0.00    +0.000 C 
BRANCH  15  16
ATOM     16  C   UNL     1       3.260   2.146  17.397  0.00  0.00    +0.000 C 
BRANCH  16  17
ATOM     17  C   UNL     1       2.807   1.502  18.707  0.00  0.00    +0.000 C 
BRANCH  17  18
ATOM     18  N   UNL     1       2.297   2.455  19.673  0.00  0.00    +0.000 N 
ATOM     19  C   UNL     1       1.045   3.147  19.506  0.00  0.00    +0.000 C 
ATOM     20  C   UNL     1       1.109   4.236  20.561  0.00  0.00    +0.000 C 
ATOM     21  C   UNL     1       1.967   3.629  21.667  0.00  0.00    +0.000 C 
ATOM     22  C   UNL     1       2.868   2.680  20.915  0.00  0.00    +0.000 C 
ATOM     23  O   UNL     1       3.887   2.171  21.352  0.00  0.00    +0.000 OA
ENDBRANCH  17  18
ENDBRANCH  16  17
ENDBRANCH  15  16
ENDBRANCH   3  15
TORSDOF 7
ENDMDL
MODEL 6
REMARK VINA RESULT:      -6.5      3.481      6.769
REMARK  Name = 
REMARK  8 active torsions:
REMARK  status: ('A' for Active; 'I' for Inactive)
REMARK    1  A    between atoms: C_1  and  C_2
REMARK    2  A    between atoms: C_2  and  O_3
REMARK    3  A    between atoms: C_2  and  C_11
REMARK    4  A    between atoms: O_3  and  C_4
REMARK    5  A    between atoms: N_13  and  C_14
REMARK    6  A    between atoms: C_14  and  C_15
REMARK    7  A    between atoms: C_15  and  C_16
REMARK    8  A    between atoms: C_16  and  N_17
REMARK                            x       y       z     vdW  Elec       q    Type
REMARK                         _______ _______ _______ _____ _____    ______ ____
ROOT
ATOM      1  C   UNL     1       5.829   6.399  17.631  0.00  0.00    +0.000 C 
ATOM      2  O   UNL     1       5.261   7.194  16.876  0.00  0.00    +0.000 OA
ATOM      3  N   UNL     1       5.123   5.663  18.554  0.00  0.00    +0.000 N 
ATOM      4  H   UNL     1       5.670   5.185  19.265  0.00  0.00    +0.000 HD
ENDROOT
BRANCH   1   6
ATOM      5  C   UNL     1       7.924   6.318  18.957  0.00  0.00    +0.000 C 
ATOM      6  C   UNL     1       7.346   6.103  17.553  0.00  0.00    +0.000 C 
BRANCH   6   7
ATOM      7  O   UNL     1       7.545   4.767  17.074  0.00  0.00    +0.000 OA
BRANCH   7   8
ATOM      8  C   UNL     1       6.932   4.377  15.910  0.00  0.00    +0.000 A 
ATOM      9  C   UNL     1       5.788   3.588  15.821  0.00  0.00    +0.000 A 
ATOM     10  C   UNL     1       5.191   3.323  14.581  0.00  0.00    +0.000 A 
ATOM     11  C   UNL     1       5.742   3.855  13.419  0.00  0.00    +0.000 A 
ATOM     12 BR   UNL     1       4.901   3.535  11.754  0.00  0.00    +0.000 Br
ATOM     13  C   UNL     1       6.889   4.634  13.483  0.00  0.00    +0.000 A 
ATOM     14  C   UNL     1       7.483   4.894  14.726  0.00  0.00    +0.000 A 
ENDBRANCH   7   8
ENDBRANCH   6   7
ENDBRANCH   1   6
BRANCH   3  15
ATOM     15  C   UNL     1       3.701   5.890  18.725  0.00  0.00    +0.000 C 
BRANCH  15  16
ATOM     16  C   UNL     1       2.831   5.102  17.750  0.00  0.00    +0.000 C 
BRANCH  16  17
ATOM     17  C   UNL     1       2.930   3.597  18.001  0.00  0.00    +0.000 C 
BRANCH  17  18
ATOM     18  N   UNL     1       2.587   3.215  19.357  0.00  0.00    +0.000 N 
ATOM     19  C   UNL     1       1.228   3.115  19.824  0.00  0.00    +0.000 C 
ATOM     20  C   UNL     1       1.388   3.020  21.331  0.00  0.00    +0.000 C 
ATOM     21  C   UNL     1       2.737   2.334  21.517  0.00  0.00    +0.000 C 
ATOM     22  C   UNL     1       3.505   2.757  20.289  0.00  0.00    +0.000 C 
ATOM     23  O   UNL     1       4.712   2.661  20.136  0.00  0.00    +0.000 OA
ENDBRANCH  17  18
ENDBRANCH  16  17
ENDBRANCH  15  16
ENDBRANCH   3  15
TORSDOF 7
ENDMDL
MODEL 7
REMARK VINA RESULT:      -6.5      1.226      1.808
REMARK  Name = 
REMARK  8 active torsions:
REMARK  status: ('A' for Active; 'I' for Inactive)
REMARK    1  A    between atoms: C_1  and  C_2
REMARK    2  A    between atoms: C_2  and  O_3
REMARK    3  A    between atoms: C_2  and  C_11
REMARK    4  A    between atoms: O_3  and  C_4
REMARK    5  A    between atoms: N_13  and  C_14
REMARK    6  A    between atoms: C_14  and  C_15
REMARK    7  A    between atoms: C_15  and  C_16
REMARK    8  A    between atoms: C_16  and  N_17
REMARK                            x       y       z     vdW  Elec       q    Type
REMARK                         _______ _______ _______ _____ _____    ______ ____
ROOT
ATOM      1  C   UNL     1       3.456   4.118  18.448  0.00  0.00    +0.000 C 
ATOM      2  O   UNL     1       4.134   3.359  19.146  0.00  0.00    +0.000 OA
ATOM      3  N   UNL     1       3.646   4.199  17.088  0.00  0.00    +0.000 N 
ATOM      4  H   UNL     1       3.195   4.977  16.615  0.00  0.00    +0.000 HD
ENDROOT
BRANCH   1   6
ATOM      5  C   UNL     1       1.496   4.068  19.968  0.00  0.00    +0.000 C 
ATOM      6  C   UNL     1       2.294   4.968  19.017  0.00  0.00    +0.000 C 
BRANCH   6   7
ATOM      7  O   UNL     1       2.828   6.125  19.671  0.00  0.00    +0.000 OA
BRANCH   7   8
ATOM      8  C   UNL     1       2.157   7.318  19.572  0.00  0.00    +0.000 A 
ATOM      9  C   UNL     1       1.547   7.995  20.625  0.00  0.00    +0.000 A 
ATOM     10  C   UNL     1       0.966   9.255  20.429  0.00  0.00    +0.000 A 
ATOM     11  C   UNL     1       0.997   9.844  19.169  0.00  0.00    +0.000 A 
ATOM     12 BR   UNL     1       0.254  11.568  18.924  0.00  0.00    +0.000 Br
ATOM     13  C   UNL     1       1.589   9.182  18.103  0.00  0.00    +0.000 A 
ATOM     14  C   UNL     1       2.167   7.921  18.304  0.00  0.00    +0.000 A 
ENDBRANCH   7   8
ENDBRANCH   6   7
ENDBRANCH   1   6
BRANCH   3  15
ATOM     15  C   UNL     1       4.730   3.464  16.465  0.00  0.00    +0.000 C 
BRANCH  15  16
ATOM     16  C   UNL     1       5.750   4.355  15.760  0.00  0.00    +0.000 C 
BRANCH  16  17
ATOM     17  C   UNL     1       5.712   5.785  16.300  0.00  0.00    +0.000 C 
BRANCH  17  18
ATOM     18  N   UNL     1       6.656   6.021  17.375  0.00  0.00    +0.000 N 
ATOM     19  C   UNL     1       7.134   4.976  18.243  0.00  0.00    +0.000 C 
ATOM     20  C   UNL     1       7.806   5.742  19.367  0.00  0.00    +0.000 C 
ATOM     21  C   UNL     1       8.303   7.020  18.699  0.00  0.00    +0.000 C 
ATOM     22  C   UNL     1       7.311   7.225  17.579  0.00  0.00    +0.000 C 
ATOM     23  O   UNL     1       7.159   8.255  16.944  0.00  0.00    +0.000 OA
ENDBRANCH  17  18
ENDBRANCH  16  17
ENDBRANCH  15  16
ENDBRANCH   3  15
TORSDOF 7
ENDMDL
MODEL 8
REMARK VINA RESULT:      -6.4      3.735      5.119
REMARK  Name = 
REMARK  8 active torsions:
REMARK  status: ('A' for Active; 'I' for Inactive)
REMARK    1  A    between atoms: C_1  and  C_2
REMARK    2  A    between atoms: C_2  and  O_3
REMARK    3  A    between atoms: C_2  and  C_11
REMARK    4  A    between atoms: O_3  and  C_4
REMARK    5  A    between atoms: N_13  and  C_14
REMARK    6  A    between atoms: C_14  and  C_15
REMARK    7  A    between atoms: C_15  and  C_16
REMARK    8  A    between atoms: C_16  and  N_17
REMARK                            x       y       z     vdW  Elec       q    Type
REMARK                         _______ _______ _______ _____ _____    ______ ____
ROOT
ATOM      1  C   UNL     1       6.093   6.489  17.577  0.00  0.00    +0.000 C 
ATOM      2  O   UNL     1       6.391   5.911  18.627  0.00  0.00    +0.000 OA
ATOM      3  N   UNL     1       6.869   7.509  17.077  0.00  0.00    +0.000 N 
ATOM      4  H   UNL     1       6.461   8.062  16.329  0.00  0.00    +0.000 HD
ENDROOT
BRANCH   1   6
ATOM      5  C   UNL     1       5.337   4.879  15.848  0.00  0.00    +0.000 C 
ATOM      6  C   UNL     1       4.887   6.070  16.702  0.00  0.00    +0.000 C 
BRANCH   6   7
ATOM      7  O   UNL     1       3.774   5.751  17.548  0.00  0.00    +0.000 OA
BRANCH   7   8
ATOM      8  C   UNL     1       3.087   6.770  18.159  0.00  0.00    +0.000 A 
ATOM      9  C   UNL     1       2.663   7.945  17.544  0.00  0.00    +0.000 A 
ATOM     10  C   UNL     1       1.887   8.882  18.241  0.00  0.00    +0.000 A 
ATOM     11  C   UNL     1       1.531   8.639  19.564  0.00  0.00    +0.000 A 
ATOM     12 BR   UNL     1       0.441   9.886  20.482  0.00  0.00    +0.000 Br
ATOM     13  C   UNL     1       1.953   7.481  20.201  0.00  0.00    +0.000 A 
ATOM     14  C   UNL     1       2.731   6.548  19.500  0.00  0.00    +0.000 A 
ENDBRANCH   7   8
ENDBRANCH   6   7
ENDBRANCH   1   6
BRANCH   3  15
ATOM     15  C   UNL     1       8.003   7.994  17.840  0.00  0.00    +0.000 C 
BRANCH  15  16
ATOM     16  C   UNL     1       8.112   9.516  17.876  0.00  0.00    +0.000 C 
BRANCH  16  17
ATOM     17  C   UNL     1       9.079   9.983  18.964  0.00  0.00    +0.000 C 
BRANCH  17  18
ATOM     18  N   UNL     1       9.611  11.311  18.733  0.00  0.00    +0.000 N 
ATOM     19  C   UNL     1       9.025  12.240  17.801  0.00  0.00    +0.000 C 
ATOM     20  C   UNL     1      10.088  13.315  17.670  0.00  0.00    +0.000 C 
ATOM     21  C   UNL     1      10.789  13.309  19.025  0.00  0.00    +0.000 C 
ATOM     22  C   UNL     1      10.626  11.881  19.485  0.00  0.00    +0.000 C 
ATOM     23  O   UNL     1      11.247  11.350  20.391  0.00  0.00    +0.000 OA
ENDBRANCH  17  18
ENDBRANCH  16  17
ENDBRANCH  15  16
ENDBRANCH   3  15
TORSDOF 7
ENDMDL
MODEL 9
REMARK VINA RESULT:      -6.4      3.248      7.192
REMARK  Name = 
REMARK  8 active torsions:
REMARK  status: ('A' for Active; 'I' for Inactive)
REMARK    1  A    between atoms: C_1  and  C_2
REMARK    2  A    between atoms: C_2  and  O_3
REMARK    3  A    between atoms: C_2  and  C_11
REMARK    4  A    between atoms: O_3  and  C_4
REMARK    5  A    between atoms: N_13  and  C_14
REMARK    6  A    between atoms: C_14  and  C_15
REMARK    7  A    between atoms: C_15  and  C_16
REMARK    8  A    between atoms: C_16  and  N_17
REMARK                            x       y       z     vdW  Elec       q    Type
REMARK                         _______ _______ _______ _____ _____    ______ ____
ROOT
ATOM      1  C   UNL     1       6.120   5.666  18.764  0.00  0.00    +0.000 C 
ATOM      2  O   UNL     1       6.617   5.293  19.832  0.00  0.00    +0.000 OA
ATOM      3  N   UNL     1       4.758   5.668  18.572  0.00  0.00    +0.000 N 
ATOM      4  H   UNL     1       4.438   5.796  17.616  0.00  0.00    +0.000 HD
ENDROOT
BRANCH   1   6
ATOM      5  C   UNL     1       8.013   7.170  18.211  0.00  0.00    +0.000 C 
ATOM      6  C   UNL     1       6.966   6.233  17.598  0.00  0.00    +0.000 C 
BRANCH   6   7
ATOM      7  O   UNL     1       7.556   5.150  16.869  0.00  0.00    +0.000 OA
BRANCH   7   8
ATOM      8  C   UNL     1       7.020   4.792  15.657  0.00  0.00    +0.000 A 
ATOM      9  C   UNL     1       7.557   5.103  14.410  0.00  0.00    +0.000 A 
ATOM     10  C   UNL     1       6.977   4.608  13.233  0.00  0.00    +0.000 A 
ATOM     11  C   UNL     1       5.852   3.793  13.306  0.00  0.00    +0.000 A 
ATOM     12 BR   UNL     1       5.105   3.088  11.716  0.00  0.00    +0.000 Br
ATOM     13  C   UNL     1       5.293   3.480  14.537  0.00  0.00    +0.000 A 
ATOM     14  C   UNL     1       5.876   3.979  15.710  0.00  0.00    +0.000 A 
ENDBRANCH   7   8
ENDBRANCH   6   7
ENDBRANCH   1   6
BRANCH   3  15
ATOM     15  C   UNL     1       3.883   5.126  19.593  0.00  0.00    +0.000 C 
BRANCH  15  16
ATOM     16  C   UNL     1       2.591   5.917  19.777  0.00  0.00    +0.000 C 
BRANCH  16  17
ATOM     17  C   UNL     1       2.581   7.181  18.917  0.00  0.00    +0.000 C 
BRANCH  17  18
ATOM     18  N   UNL     1       1.737   8.234  19.448  0.00  0.00    +0.000 N 
ATOM     19  C   UNL     1       1.337   8.297  20.830  0.00  0.00    +0.000 C 
ATOM     20  C   UNL     1       0.235   9.340  20.823  0.00  0.00    +0.000 C 
ATOM     21  C   UNL     1       0.614  10.271  19.676  0.00  0.00    +0.000 C 
ATOM     22  C   UNL     1       1.363   9.361  18.733  0.00  0.00    +0.000 C 
ATOM     23  O   UNL     1       1.628   9.606  17.568  0.00  0.00    +0.000 OA
ENDBRANCH  17  18
ENDBRANCH  16  17
ENDBRANCH  15  16
ENDBRANCH   3  15
TORSDOF 7
ENDMDL
