MODEL 1
REMARK VINA RESULT:      -7.8      0.000      0.000
REMARK  Name = 
REMARK  13 active torsions:
REMARK  status: ('A' for Active; 'I' for Inactive)
REMARK    1  A    between atoms: C_1  and  C_2
REMARK    2  A    between atoms: C_2  and  N_3
REMARK    3  A    between atoms: C_5  and  C_6
REMARK    4  A    between atoms: N_8  and  C_9
REMARK    5  A    between atoms: C_9  and  C_10
REMARK    6  A    between atoms: C_9  and  C_18
REMARK    7  A    between atoms: N_12  and  C_13
REMARK    8  A    between atoms: C_13  and  C_14
REMARK    9  A    between atoms: C_13  and  C_15
REMARK   10  A    between atoms: C_13  and  C_16
REMARK   11  A    between atoms: C_16  and  O_17
REMARK   12  A    between atoms: C_18  and  C_19
REMARK   13  A    between atoms: C_18  and  C_20
REMARK                            x       y       z     vdW  Elec       q    Type
REMARK                         _______ _______ _______ _____ _____    ______ ____
ROOT
ATOM      1  C   UNL     1       1.427   8.756  19.873  0.00  0.00    +0.000 C 
ATOM      2  O   UNL     1       1.291   8.804  21.094  0.00  0.00    +0.000 OA
ATOM      3  N   UNL     1       0.851   9.692  19.050  0.00  0.00    +0.000 N 
ATOM      4  H   UNL     1       0.973   9.574  18.043  0.00  0.00    +0.000 HD
ENDROOT
BRANCH   1   7
ATOM      5  N   UNL     1       2.908   5.321  19.338  0.00  0.00    +0.000 N 
ATOM      6  C   UNL     1       2.251   6.457  19.800  0.00  0.00    +0.000 A 
ATOM      7  C   UNL     1       2.200   7.662  19.208  0.00  0.00    +0.000 A 
ATOM      8  C   UNL     1       2.949   7.807  17.938  0.00  0.00    +0.000 A 
ATOM      9  O   UNL     1       2.925   8.860  17.305  0.00  0.00    +0.000 OA
ATOM     10  C   UNL     1       3.741   6.642  17.452  0.00  0.00    +0.000 A 
ATOM     11  C   UNL     1       4.578   6.817  16.335  0.00  0.00    +0.000 A 
ATOM     12  C   UNL     1       5.319   5.735  15.921  0.00  0.00    +0.000 A 
ATOM     13  C   UNL     1       5.192   4.508  16.520  0.00  0.00    +0.000 A 
ATOM     14  C   UNL     1       4.351   4.301  17.596  0.00  0.00    +0.000 A 
ATOM     15  C   UNL     1       3.651   5.395  18.137  0.00  0.00    +0.000 A 
ATOM     16  O   UNL     1       6.005   3.570  15.963  0.00  0.00    +0.000 OA
ATOM     17  C   UNL     1       6.772   4.389  15.057  0.00  0.00    +0.000 C 
ATOM     18  O   UNL     1       6.243   5.726  14.923  0.00  0.00    +0.000 OA
BRANCH   5  20
ATOM     19  C   UNL     1       1.538   3.532  20.341  0.00  0.00    +0.000 C 
ATOM     20  C   UNL     1       2.939   4.086  20.147  0.00  0.00    +0.000 C 
ENDBRANCH   5  20
ENDBRANCH   1   7
BRANCH   3  21
ATOM     21  C   UNL     1       0.219  10.929  19.542  0.00  0.00    +0.000 C 
BRANCH  21  22
ATOM     22  C   UNL     1      -1.253  11.092  19.059  0.00  0.00    +0.000 C 
ATOM     23  O   UNL     1      -2.122  11.660  19.713  0.00  0.00    +0.000 OA
ATOM     24  N   UNL     1      -1.535  10.418  17.888  0.00  0.00    +0.000 N 
ATOM     25  H   UNL     1      -0.777   9.850  17.508  0.00  0.00    +0.000 HD
BRANCH  24  26
ATOM     26  C   UNL     1      -2.865  10.294  17.264  0.00  0.00    +0.000 C 
ATOM     27  C   UNL     1      -2.645   9.760  15.832  0.00  0.00    +0.000 C 
ATOM     28  C   UNL     1      -3.747   9.287  18.019  0.00  0.00    +0.000 C 
BRANCH  26  29
ATOM     29  C   UNL     1      -3.591  11.660  17.200  0.00  0.00    +0.000 C 
BRANCH  29  30
ATOM     30  O   UNL     1      -4.633  11.742  18.173  0.00  0.00    +0.000 OA
ATOM     31  H   UNL     1      -4.321  11.206  18.924  0.00  0.00    +0.000 HD
ENDBRANCH  29  30
ENDBRANCH  26  29
ENDBRANCH  24  26
ENDBRANCH  21  22
BRANCH  21  32
ATOM     32  C   UNL     1       1.081  12.191  19.275  0.00  0.00    +0.000 C 
ATOM     33  C   UNL     1       1.661  12.745  20.583  0.00  0.00    +0.000 C 
ATOM     34  C   UNL     1       2.214  11.988  18.263  0.00  0.00    +0.000 C 
ENDBRANCH  21  32
ENDBRANCH   3  21
TORSDOF 8
ENDMDL
MODEL 2
REMARK VINA RESULT:      -7.7      0.710      1.149
REMARK  Name = 
REMARK  13 active torsions:
REMARK  status: ('A' for Active; 'I' for Inactive)
REMARK    1  A    between atoms: C_1  and  C_2
REMARK    2  A    between atoms: C_2  and  N_3
REMARK    3  A    between atoms: C_5  and  C_6
REMARK    4  A    between atoms: N_8  and  C_9
REMARK    5  A    between atoms: C_9  and  C_10
REMARK    6  A    between atoms: C_9  and  C_18
REMARK    7  A    between atoms: N_12  and  C_13
REMARK    8  A    between atoms: C_13  and  C_14
REMARK    9  A    between atoms: C_13  and  C_15
REMARK   10  A    between atoms: C_13  and  C_16
REMARK   11  A    between atoms: C_16  and  O_17
REMARK   12  A    between atoms: C_18  and  C_19
REMARK   13  A    between atoms: C_18  and  C_20
REMARK                            x       y       z     vdW  Elec       q    Type
REMARK                         _______ _______ _______ _____ _____    ______ ____
ROOT
ATOM      1  C   UNL     1       1.473   8.657  19.924  0.00  0.00    +0.000 C 
ATOM      2  O   UNL     1       1.248   8.612  21.132  0.00  0.00    +0.000 OA
ATOM      3  N   UNL     1       1.006   9.686  19.145  0.00  0.00    +0.000 N 
ATOM      4  H   UNL     1       1.197   9.645  18.143  0.00  0.00    +0.000 HD
ENDROOT
BRANCH   1   7
ATOM      5  N   UNL     1       2.949   5.237  19.287  0.00  0.00    +0.000 N 
ATOM      6  C   UNL     1       2.296   6.361  19.784  0.00  0.00    +0.000 A 
ATOM      7  C   UNL     1       2.241   7.581  19.225  0.00  0.00    +0.000 A 
ATOM      8  C   UNL     1       2.981   7.759  17.954  0.00  0.00    +0.000 A 
ATOM      9  O   UNL     1       2.952   8.829  17.349  0.00  0.00    +0.000 OA
ATOM     10  C   UNL     1       3.769   6.608  17.431  0.00  0.00    +0.000 A 
ATOM     11  C   UNL     1       4.599   6.813  16.313  0.00  0.00    +0.000 A 
ATOM     12  C   UNL     1       5.337   5.742  15.865  0.00  0.00    +0.000 A 
ATOM     13  C   UNL     1       5.213   4.500  16.433  0.00  0.00    +0.000 A 
ATOM     14  C   UNL     1       4.379   4.264  17.508  0.00  0.00    +0.000 A 
ATOM     15  C   UNL     1       3.684   5.343  18.083  0.00  0.00    +0.000 A 
ATOM     16  O   UNL     1       6.022   3.577  15.845  0.00  0.00    +0.000 OA
ATOM     17  C   UNL     1       6.783   4.420  14.956  0.00  0.00    +0.000 C 
ATOM     18  O   UNL     1       6.254   5.760  14.862  0.00  0.00    +0.000 OA
BRANCH   5  20
ATOM     19  C   UNL     1       1.976   4.017  21.197  0.00  0.00    +0.000 C 
ATOM     20  C   UNL     1       2.985   3.981  20.062  0.00  0.00    +0.000 C 
ENDBRANCH   5  20
ENDBRANCH   1   7
BRANCH   3  21
ATOM     21  C   UNL     1       0.398  10.911  19.695  0.00  0.00    +0.000 C 
BRANCH  21  22
ATOM     22  C   UNL     1      -1.087  11.098  19.264  0.00  0.00    +0.000 C 
ATOM     23  O   UNL     1      -1.965  11.510  20.016  0.00  0.00    +0.000 OA
ATOM     24  N   UNL     1      -1.365  10.626  17.997  0.00  0.00    +0.000 N 
ATOM     25  H   UNL     1      -0.594  10.161  17.516  0.00  0.00    +0.000 HD
BRANCH  24  26
ATOM     26  C   UNL     1      -2.701  10.559  17.376  0.00  0.00    +0.000 C 
ATOM     27  C   UNL     1      -3.398   9.301  17.937  0.00  0.00    +0.000 C 
ATOM     28  C   UNL     1      -3.553  11.783  17.748  0.00  0.00    +0.000 C 
BRANCH  26  29
ATOM     29  C   UNL     1      -2.606  10.454  15.835  0.00  0.00    +0.000 C 
BRANCH  29  30
ATOM     30  O   UNL     1      -3.259  11.551  15.195  0.00  0.00    +0.000 OA
ATOM     31  H   UNL     1      -3.897  11.143  14.582  0.00  0.00    +0.000 HD
ENDBRANCH  29  30
ENDBRANCH  26  29
ENDBRANCH  24  26
ENDBRANCH  21  22
BRANCH  21  32
ATOM     32  C   UNL     1       1.260  12.176  19.440  0.00  0.00    +0.000 C 
ATOM     33  C   UNL     1       2.223  11.955  18.267  0.00  0.00    +0.000 C 
ATOM     34  C   UNL     1       0.456  13.459  19.203  0.00  0.00    +0.000 C 
ENDBRANCH  21  32
ENDBRANCH   3  21
TORSDOF 8
ENDMDL
MODEL 3
REMARK VINA RESULT:      -7.4      2.576      8.546
REMARK  Name = 
REMARK  13 active torsions:
REMARK  status: ('A' for Active; 'I' for Inactive)
REMARK    1  A    between atoms: C_1  and  C_2
REMARK    2  A    between atoms: C_2  and  N_3
REMARK    3  A    between atoms: C_5  and  C_6
REMARK    4  A    between atoms: N_8  and  C_9
REMARK    5  A    between atoms: C_9  and  C_10
REMARK    6  A    between atoms: C_9  and  C_18
REMARK    7  A    between atoms: N_12  and  C_13
REMARK    8  A    between atoms: C_13  and  C_14
REMARK    9  A    between atoms: C_13  and  C_15
REMARK   10  A    between atoms: C_13  and  C_16
REMARK   11  A    between atoms: C_16  and  O_17
REMARK   12  A    between atoms: C_18  and  C_19
REMARK   13  A    between atoms: C_18  and  C_20
REMARK                            x       y       z     vdW  Elec       q    Type
REMARK                         _______ _______ _______ _____ _____    ______ ____
ROOT
ATOM      1  C   UNL     1       2.451   6.557  19.069  0.00  0.00    +0.000 C 
ATOM      2  O   UNL     1       2.275   6.147  17.923  0.00  0.00    +0.000 OA
ATOM      3  N   UNL     1       3.079   5.789  20.017  0.00  0.00    +0.000 N 
ATOM      4  H   UNL     1       3.162   6.174  20.959  0.00  0.00    +0.000 HD
ENDROOT
BRANCH   1   7
ATOM      5  N   UNL     1       1.195   9.254  21.399  0.00  0.00    +0.000 N 
ATOM      6  C   UNL     1       1.654   8.084  20.802  0.00  0.00    +0.000 A 
ATOM      7  C   UNL     1       1.965   7.901  19.508  0.00  0.00    +0.000 A 
ATOM      8  C   UNL     1       1.768   9.064  18.611  0.00  0.00    +0.000 A 
ATOM      9  O   UNL     1       2.066   9.002  17.420  0.00  0.00    +0.000 OA
ATOM     10  C   UNL     1       1.193  10.310  19.190  0.00  0.00    +0.000 A 
ATOM     11  C   UNL     1       0.858  11.364  18.320  0.00  0.00    +0.000 A 
ATOM     12  C   UNL     1       0.304  12.494  18.875  0.00  0.00    +0.000 A 
ATOM     13  C   UNL     1       0.155  12.626  20.232  0.00  0.00    +0.000 A 
ATOM     14  C   UNL     1       0.508  11.621  21.110  0.00  0.00    +0.000 A 
ATOM     15  C   UNL     1       0.976  10.397  20.596  0.00  0.00    +0.000 A 
ATOM     16  O   UNL     1      -0.407  13.816  20.580  0.00  0.00    +0.000 OA
ATOM     17  C   UNL     1      -0.741  14.341  19.279  0.00  0.00    +0.000 C 
ATOM     18  O   UNL     1      -0.163  13.577  18.198  0.00  0.00    +0.000 OA
BRANCH   5  20
ATOM     19  C   UNL     1      -0.693   9.260  22.987  0.00  0.00    +0.000 C 
ATOM     20  C   UNL     1       0.818   9.275  22.826  0.00  0.00    +0.000 C 
ENDBRANCH   5  20
ENDBRANCH   1   7
BRANCH   3  21
ATOM     21  C   UNL     1       3.779   4.529  19.709  0.00  0.00    +0.000 C 
BRANCH  21  22
ATOM     22  C   UNL     1       5.117   4.750  18.943  0.00  0.00    +0.000 C 
ATOM     23  O   UNL     1       6.220   4.705  19.479  0.00  0.00    +0.000 OA
ATOM     24  N   UNL     1       4.952   5.141  17.630  0.00  0.00    +0.000 N 
ATOM     25  H   UNL     1       3.988   5.296  17.330  0.00  0.00    +0.000 HD
BRANCH  24  26
ATOM     26  C   UNL     1       6.031   5.536  16.706  0.00  0.00    +0.000 C 
ATOM     27  C   UNL     1       5.356   6.137  15.454  0.00  0.00    +0.000 C 
ATOM     28  C   UNL     1       6.933   6.614  17.326  0.00  0.00    +0.000 C 
BRANCH  26  29
ATOM     29  C   UNL     1       6.898   4.322  16.293  0.00  0.00    +0.000 C 
BRANCH  29  30
ATOM     30  O   UNL     1       8.029   4.173  17.152  0.00  0.00    +0.000 OA
ATOM     31  H   UNL     1       8.759   4.625  16.690  0.00  0.00    +0.000 HD
ENDBRANCH  29  30
ENDBRANCH  26  29
ENDBRANCH  24  26
ENDBRANCH  21  22
BRANCH  21  32
ATOM     32  C   UNL     1       2.860   3.484  19.022  0.00  0.00    +0.000 C 
ATOM     33  C   UNL     1       3.613   2.171  18.776  0.00  0.00    +0.000 C 
ATOM     34  C   UNL     1       1.556   3.190  19.771  0.00  0.00    +0.000 C 
ENDBRANCH  21  32
ENDBRANCH   3  21
TORSDOF 8
ENDMDL
MODEL 4
REMARK VINA RESULT:      -7.4      1.066      1.235
REMARK  Name = 
REMARK  13 active torsions:
REMARK  status: ('A' for Active; 'I' for Inactive)
REMARK    1  A    between atoms: C_1  and  C_2
REMARK    2  A    between atoms: C_2  and  N_3
REMARK    3  A    between atoms: C_5  and  C_6
REMARK    4  A    between atoms: N_8  and  C_9
REMARK    5  A    between atoms: C_9  and  C_10
REMARK    6  A    between atoms: C_9  and  C_18
REMARK    7  A    between atoms: N_12  and  C_13
REMARK    8  A    between atoms: C_13  and  C_14
REMARK    9  A    between atoms: C_13  and  C_15
REMARK   10  A    between atoms: C_13  and  C_16
REMARK   11  A    between atoms: C_16  and  O_17
REMARK   12  A    between atoms: C_18  and  C_19
REMARK   13  A    between atoms: C_18  and  C_20
REMARK                            x       y       z     vdW  Elec       q    Type
REMARK                         _______ _______ _______ _____ _____    ______ ____
ROOT
ATOM      1  C   UNL     1       1.057   9.437  19.905  0.00  0.00    +0.000 C 
ATOM      2  O   UNL     1       0.855   9.583  21.110  0.00  0.00    +0.000 OA
ATOM      3  N   UNL     1       0.556  10.321  18.983  0.00  0.00    +0.000 N 
ATOM      4  H   UNL     1       0.729  10.123  17.996  0.00  0.00    +0.000 HD
ENDROOT
BRANCH   1   7
ATOM      5  N   UNL     1       2.504   5.950  19.749  0.00  0.00    +0.000 N 
ATOM      6  C   UNL     1       1.852   7.133  20.081  0.00  0.00    +0.000 A 
ATOM      7  C   UNL     1       1.829   8.273  19.371  0.00  0.00    +0.000 A 
ATOM      8  C   UNL     1       2.607   8.282  18.109  0.00  0.00    +0.000 A 
ATOM      9  O   UNL     1       2.609   9.267  17.374  0.00  0.00    +0.000 OA
ATOM     10  C   UNL     1       3.394   7.067  17.760  0.00  0.00    +0.000 A 
ATOM     11  C   UNL     1       4.257   7.121  16.650  0.00  0.00    +0.000 A 
ATOM     12  C   UNL     1       4.993   5.994  16.363  0.00  0.00    +0.000 A 
ATOM     13  C   UNL     1       4.837   4.836  17.079  0.00  0.00    +0.000 A 
ATOM     14  C   UNL     1       3.971   4.745  18.150  0.00  0.00    +0.000 A 
ATOM     15  C   UNL     1       3.274   5.895  18.564  0.00  0.00    +0.000 A 
ATOM     16  O   UNL     1       5.650   3.838  16.636  0.00  0.00    +0.000 OA
ATOM     17  C   UNL     1       6.447   4.554  15.670  0.00  0.00    +0.000 C 
ATOM     18  O   UNL     1       5.937   5.877  15.392  0.00  0.00    +0.000 OA
BRANCH   5  20
ATOM     19  C   UNL     1       1.220   3.999  20.542  0.00  0.00    +0.000 C 
ATOM     20  C   UNL     1       2.503   4.802  20.678  0.00  0.00    +0.000 C 
ENDBRANCH   5  20
ENDBRANCH   1   7
BRANCH   3  21
ATOM     21  C   UNL     1      -0.062  11.609  19.343  0.00  0.00    +0.000 C 
BRANCH  21  22
ATOM     22  C   UNL     1      -1.610  11.609  19.170  0.00  0.00    +0.000 C 
ATOM     23  O   UNL     1      -2.392  11.916  20.065  0.00  0.00    +0.000 OA
ATOM     24  N   UNL     1      -2.038  11.097  17.962  0.00  0.00    +0.000 N 
ATOM     25  H   UNL     1      -1.308  10.728  17.352  0.00  0.00    +0.000 HD
BRANCH  24  26
ATOM     26  C   UNL     1      -3.441  10.862  17.574  0.00  0.00    +0.000 C 
ATOM     27  C   UNL     1      -3.791   9.418  17.995  0.00  0.00    +0.000 C 
ATOM     28  C   UNL     1      -4.393  11.818  18.311  0.00  0.00    +0.000 C 
BRANCH  26  29
ATOM     29  C   UNL     1      -3.642  11.019  16.048  0.00  0.00    +0.000 C 
BRANCH  29  30
ATOM     30  O   UNL     1      -2.412  11.323  15.389  0.00  0.00    +0.000 OA
ATOM     31  H   UNL     1      -2.660  11.521  14.468  0.00  0.00    +0.000 HD
ENDBRANCH  29  30
ENDBRANCH  26  29
ENDBRANCH  24  26
ENDBRANCH  21  22
BRANCH  21  32
ATOM     32  C   UNL     1       0.618  12.817  18.646  0.00  0.00    +0.000 C 
ATOM     33  C   UNL     1       0.293  14.126  19.378  0.00  0.00    +0.000 C 
ATOM     34  C   UNL     1       2.137  12.690  18.485  0.00  0.00    +0.000 C 
ENDBRANCH  21  32
ENDBRANCH   3  21
TORSDOF 8
ENDMDL
MODEL 5
REMARK VINA RESULT:      -7.4      2.331      4.682
REMARK  Name = 
REMARK  13 active torsions:
REMARK  status: ('A' for Active; 'I' for Inactive)
REMARK    1  A    between atoms: C_1  and  C_2
REMARK    2  A    between atoms: C_2  and  N_3
REMARK    3  A    between atoms: C_5  and  C_6
REMARK    4  A    between atoms: N_8  and  C_9
REMARK    5  A    between atoms: C_9  and  C_10
REMARK    6  A    between atoms: C_9  and  C_18
REMARK    7  A    between atoms: N_12  and  C_13
REMARK    8  A    between atoms: C_13  and  C_14
REMARK    9  A    between atoms: C_13  and  C_15
REMARK   10  A    between atoms: C_13  and  C_16
REMARK   11  A    between atoms: C_16  and  O_17
REMARK   12  A    between atoms: C_18  and  C_19
REMARK   13  A    between atoms: C_18  and  C_20
REMARK                            x       y       z     vdW  Elec       q    Type
REMARK                         _______ _______ _______ _____ _____    ______ ____
ROOT
ATOM      1  C   UNL     1       1.340  10.139  18.526  0.00  0.00    +0.000 C 
ATOM      2  O   UNL     1       2.036  11.072  18.128  0.00  0.00    +0.000 OA
ATOM      3  N   UNL     1       0.002  10.304  18.787  0.00  0.00    +0.000 N 
ATOM      4  H   UNL     1      -0.511   9.499  19.149  0.00  0.00    +0.000 HD
ENDROOT
BRANCH   1   7
ATOM      5  N   UNL     1       3.405   7.028  17.949  0.00  0.00    +0.000 N 
ATOM      6  C   UNL     1       2.768   8.263  17.886  0.00  0.00    +0.000 A 
ATOM      7  C   UNL     1       1.912   8.782  18.782  0.00  0.00    +0.000 A 
ATOM      8  C   UNL     1       1.587   7.933  19.953  0.00  0.00    +0.000 A 
ATOM      9  O   UNL     1       0.847   8.343  20.845  0.00  0.00    +0.000 OA
ATOM     10  C   UNL     1       2.176   6.567  20.016  0.00  0.00    +0.000 A 
ATOM     11  C   UNL     1       1.752   5.699  21.039  0.00  0.00    +0.000 A 
ATOM     12  C   UNL     1       2.291   4.433  21.062  0.00  0.00    +0.000 A 
ATOM     13  C   UNL     1       3.262   4.053  20.172  0.00  0.00    +0.000 A 
ATOM     14  C   UNL     1       3.721   4.897  19.180  0.00  0.00    +0.000 A 
ATOM     15  C   UNL     1       3.129   6.165  19.035  0.00  0.00    +0.000 A 
ATOM     16  O   UNL     1       3.667   2.767  20.362  0.00  0.00    +0.000 OA
ATOM     17  C   UNL     1       2.722   2.338  21.364  0.00  0.00    +0.000 C 
ATOM     18  O   UNL     1       1.948   3.428  21.911  0.00  0.00    +0.000 OA
BRANCH   5  20
ATOM     19  C   UNL     1       5.705   6.976  17.060  0.00  0.00    +0.000 C 
ATOM     20  C   UNL     1       4.260   6.562  16.839  0.00  0.00    +0.000 C 
ENDBRANCH   5  20
ENDBRANCH   1   7
BRANCH   3  21
ATOM     21  C   UNL     1      -0.756  11.512  18.417  0.00  0.00    +0.000 C 
BRANCH  21  22
ATOM     22  C   UNL     1      -1.192  12.356  19.652  0.00  0.00    +0.000 C 
ATOM     23  O   UNL     1      -1.321  13.576  19.628  0.00  0.00    +0.000 OA
ATOM     24  N   UNL     1      -1.287  11.629  20.822  0.00  0.00    +0.000 N 
ATOM     25  H   UNL     1      -1.008  10.648  20.759  0.00  0.00    +0.000 HD
BRANCH  24  26
ATOM     26  C   UNL     1      -1.559  12.182  22.161  0.00  0.00    +0.000 C 
ATOM     27  C   UNL     1      -0.556  13.334  22.386  0.00  0.00    +0.000 C 
ATOM     28  C   UNL     1      -2.980  12.761  22.250  0.00  0.00    +0.000 C 
BRANCH  26  29
ATOM     29  C   UNL     1      -1.373  11.113  23.265  0.00  0.00    +0.000 C 
BRANCH  29  30
ATOM     30  O   UNL     1      -0.124  10.434  23.129  0.00  0.00    +0.000 OA
ATOM     31  H   UNL     1       0.071  10.451  22.174  0.00  0.00    +0.000 HD
ENDBRANCH  29  30
ENDBRANCH  26  29
ENDBRANCH  24  26
ENDBRANCH  21  22
BRANCH  21  32
ATOM     32  C   UNL     1      -1.932  11.212  17.452  0.00  0.00    +0.000 C 
ATOM     33  C   UNL     1      -1.864   9.768  16.938  0.00  0.00    +0.000 C 
ATOM     34  C   UNL     1      -3.323  11.478  18.037  0.00  0.00    +0.000 C 
ENDBRANCH  21  32
ENDBRANCH   3  21
TORSDOF 8
ENDMDL
MODEL 6
REMARK VINA RESULT:      -7.3      2.450      3.594
REMARK  Name = 
REMARK  13 active torsions:
REMARK  status: ('A' for Active; 'I' for Inactive)
REMARK    1  A    between atoms: C_1  and  C_2
REMARK    2  A    between atoms: C_2  and  N_3
REMARK    3  A    between atoms: C_5  and  C_6
REMARK    4  A    between atoms: N_8  and  C_9
REMARK    5  A    between atoms: C_9  and  C_10
REMARK    6  A    between atoms: C_9  and  C_18
REMARK    7  A    between atoms: N_12  and  C_13
REMARK    8  A    between atoms: C_13  and  C_14
REMARK    9  A    between atoms: C_13  and  C_15
REMARK   10  A    between atoms: C_13  and  C_16
REMARK   11  A    between atoms: C_16  and  O_17
REMARK   12  A    between atoms: C_18  and  C_19
REMARK   13  A    between atoms: C_18  and  C_20
REMARK                            x       y       z     vdW  Elec       q    Type
REMARK                         _______ _______ _______ _____ _____    ______ ____
ROOT
ATOM      1  C   UNL     1       0.743   9.596  19.477  0.00  0.00    +0.000 C 
ATOM      2  O   UNL     1      -0.071  10.045  18.672  0.00  0.00    +0.000 OA
ATOM      3  N   UNL     1       0.900  10.152  20.723  0.00  0.00    +0.000 N 
ATOM      4  H   UNL     1       1.619   9.755  21.330  0.00  0.00    +0.000 HD
ENDROOT
BRANCH   1   7
ATOM      5  N   UNL     1       2.373   6.202  19.792  0.00  0.00    +0.000 N 
ATOM      6  C   UNL     1       1.627   7.367  19.942  0.00  0.00    +0.000 A 
ATOM      7  C   UNL     1       1.633   8.443  19.139  0.00  0.00    +0.000 A 
ATOM      8  C   UNL     1       2.558   8.400  17.982  0.00  0.00    +0.000 A 
ATOM      9  O   UNL     1       2.600   9.321  17.170  0.00  0.00    +0.000 OA
ATOM     10  C   UNL     1       3.442   7.210  17.833  0.00  0.00    +0.000 A 
ATOM     11  C   UNL     1       4.430   7.228  16.832  0.00  0.00    +0.000 A 
ATOM     12  C   UNL     1       5.252   6.129  16.730  0.00  0.00    +0.000 A 
ATOM     13  C   UNL     1       5.068   5.023  17.520  0.00  0.00    +0.000 A 
ATOM     14  C   UNL     1       4.083   4.966  18.486  0.00  0.00    +0.000 A 
ATOM     15  C   UNL     1       3.284   6.101  18.714  0.00  0.00    +0.000 A 
ATOM     16  O   UNL     1       5.978   4.044  17.263  0.00  0.00    +0.000 OA
ATOM     17  C   UNL     1       6.850   4.729  16.340  0.00  0.00    +0.000 C 
ATOM     18  O   UNL     1       6.312   5.992  15.891  0.00  0.00    +0.000 OA
BRANCH   5  20
ATOM     19  C   UNL     1       1.146   4.201  20.548  0.00  0.00    +0.000 C 
ATOM     20  C   UNL     1       2.317   5.133  20.809  0.00  0.00    +0.000 C 
ENDBRANCH   5  20
ENDBRANCH   1   7
BRANCH   3  21
ATOM     21  C   UNL     1      -0.013  11.164  21.283  0.00  0.00    +0.000 C 
BRANCH  21  22
ATOM     22  C   UNL     1       0.469  12.623  21.026  0.00  0.00    +0.000 C 
ATOM     23  O   UNL     1       0.117  13.583  21.706  0.00  0.00    +0.000 OA
ATOM     24  N   UNL     1       1.218  12.771  19.877  0.00  0.00    +0.000 N 
ATOM     25  H   UNL     1       1.322  11.933  19.302  0.00  0.00    +0.000 HD
BRANCH  24  26
ATOM     26  C   UNL     1       1.701  14.049  19.321  0.00  0.00    +0.000 C 
ATOM     27  C   UNL     1       0.455  14.863  18.911  0.00  0.00    +0.000 C 
ATOM     28  C   UNL     1       2.477  14.859  20.372  0.00  0.00    +0.000 C 
BRANCH  26  29
ATOM     29  C   UNL     1       2.603  13.824  18.083  0.00  0.00    +0.000 C 
BRANCH  29  30
ATOM     30  O   UNL     1       2.481  12.491  17.584  0.00  0.00    +0.000 OA
ATOM     31  H   UNL     1       1.593  12.449  17.187  0.00  0.00    +0.000 HD
ENDBRANCH  29  30
ENDBRANCH  26  29
ENDBRANCH  24  26
ENDBRANCH  21  22
BRANCH  21  32
ATOM     32  C   UNL     1      -0.360  10.901  22.772  0.00  0.00    +0.000 C 
ATOM     33  C   UNL     1      -1.804  11.317  23.078  0.00  0.00    +0.000 C 
ATOM     34  C   UNL     1      -0.138   9.457  23.234  0.00  0.00    +0.000 C 
ENDBRANCH  21  32
ENDBRANCH   3  21
TORSDOF 8
ENDMDL
MODEL 7
REMARK VINA RESULT:      -7.2      0.797      1.112
REMARK  Name = 
REMARK  13 active torsions:
REMARK  status: ('A' for Active; 'I' for Inactive)
REMARK    1  A    between atoms: C_1  and  C_2
REMARK    2  A    between atoms: C_2  and  N_3
REMARK    3  A    between atoms: C_5  and  C_6
REMARK    4  A    between atoms: N_8  and  C_9
REMARK    5  A    between atoms: C_9  and  C_10
REMARK    6  A    between atoms: C_9  and  C_18
REMARK    7  A    between atoms: N_12  and  C_13
REMARK    8  A    between atoms: C_13  and  C_14
REMARK    9  A    between atoms: C_13  and  C_15
REMARK   10  A    between atoms: C_13  and  C_16
REMARK   11  A    between atoms: C_16  and  O_17
REMARK   12  A    between atoms: C_18  and  C_19
REMARK   13  A    between atoms: C_18  and  C_20
REMARK                            x       y       z     vdW  Elec       q    Type
REMARK                         _______ _______ _______ _____ _____    ______ ____
ROOT
ATOM      1  C   UNL     1       1.062   9.274  19.624  0.00  0.00    +0.000 C 
ATOM      2  O   UNL     1       0.763   9.424  20.808  0.00  0.00    +0.000 OA
ATOM      3  N   UNL     1       0.589  10.120  18.652  0.00  0.00    +0.000 N 
ATOM      4  H   UNL     1       0.846   9.919  17.685  0.00  0.00    +0.000 HD
ENDROOT
BRANCH   1   7
ATOM      5  N   UNL     1       2.730   5.884  19.661  0.00  0.00    +0.000 N 
ATOM      6  C   UNL     1       1.991   7.034  19.919  0.00  0.00    +0.000 A 
ATOM      7  C   UNL     1       1.929   8.145  19.167  0.00  0.00    +0.000 A 
ATOM      8  C   UNL     1       2.763   8.161  17.943  0.00  0.00    +0.000 A 
ATOM      9  O   UNL     1       2.738   9.118  17.172  0.00  0.00    +0.000 OA
ATOM     10  C   UNL     1       3.640   6.988  17.673  0.00  0.00    +0.000 A 
ATOM     11  C   UNL     1       4.549   7.059  16.602  0.00  0.00    +0.000 A 
ATOM     12  C   UNL     1       5.367   5.973  16.389  0.00  0.00    +0.000 A 
ATOM     13  C   UNL     1       5.250   4.832  17.140  0.00  0.00    +0.000 A 
ATOM     14  C   UNL     1       4.343   4.723  18.175  0.00  0.00    +0.000 A 
ATOM     15  C   UNL     1       3.556   5.839  18.514  0.00  0.00    +0.000 A 
ATOM     16  O   UNL     1       6.144   3.873  16.771  0.00  0.00    +0.000 OA
ATOM     17  C   UNL     1       6.939   4.606  15.816  0.00  0.00    +0.000 C 
ATOM     18  O   UNL     1       6.361   5.883  15.467  0.00  0.00    +0.000 OA
BRANCH   5  20
ATOM     19  C   UNL     1       1.437   4.019  20.627  0.00  0.00    +0.000 C 
ATOM     20  C   UNL     1       2.758   4.771  20.630  0.00  0.00    +0.000 C 
ENDBRANCH   5  20
ENDBRANCH   1   7
BRANCH   3  21
ATOM     21  C   UNL     1      -0.118  11.380  18.944  0.00  0.00    +0.000 C 
BRANCH  21  22
ATOM     22  C   UNL     1      -1.613  11.352  18.506  0.00  0.00    +0.000 C 
ATOM     23  O   UNL     1      -2.532  11.771  19.203  0.00  0.00    +0.000 OA
ATOM     24  N   UNL     1      -1.835  10.686  17.317  0.00  0.00    +0.000 N 
ATOM     25  H   UNL     1      -1.017  10.243  16.896  0.00  0.00    +0.000 HD
BRANCH  24  26
ATOM     26  C   UNL     1      -3.154  10.399  16.724  0.00  0.00    +0.000 C 
ATOM     27  C   UNL     1      -3.847  11.758  16.485  0.00  0.00    +0.000 C 
ATOM     28  C   UNL     1      -3.015   9.688  15.368  0.00  0.00    +0.000 C 
BRANCH  26  29
ATOM     29  C   UNL     1      -4.024   9.533  17.667  0.00  0.00    +0.000 C 
BRANCH  29  30
ATOM     30  O   UNL     1      -5.011  10.320  18.334  0.00  0.00    +0.000 OA
ATOM     31  H   UNL     1      -4.530  11.099  18.669  0.00  0.00    +0.000 HD
ENDBRANCH  29  30
ENDBRANCH  26  29
ENDBRANCH  24  26
ENDBRANCH  21  22
BRANCH  21  32
ATOM     32  C   UNL     1       0.638  12.629  18.419  0.00  0.00    +0.000 C 
ATOM     33  C   UNL     1       0.139  13.902  19.113  0.00  0.00    +0.000 C 
ATOM     34  C   UNL     1       2.163  12.549  18.538  0.00  0.00    +0.000 C 
ENDBRANCH  21  32
ENDBRANCH   3  21
TORSDOF 8
ENDMDL
MODEL 8
REMARK VINA RESULT:      -7.2      2.650      8.986
REMARK  Name = 
REMARK  13 active torsions:
REMARK  status: ('A' for Active; 'I' for Inactive)
REMARK    1  A    between atoms: C_1  and  C_2
REMARK    2  A    between atoms: C_2  and  N_3
REMARK    3  A    between atoms: C_5  and  C_6
REMARK    4  A    between atoms: N_8  and  C_9
REMARK    5  A    between atoms: C_9  and  C_10
REMARK    6  A    between atoms: C_9  and  C_18
REMARK    7  A    between atoms: N_12  and  C_13
REMARK    8  A    between atoms: C_13  and  C_14
REMARK    9  A    between atoms: C_13  and  C_15
REMARK   10  A    between atoms: C_13  and  C_16
REMARK   11  A    between atoms: C_16  and  O_17
REMARK   12  A    between atoms: C_18  and  C_19
REMARK   13  A    between atoms: C_18  and  C_20
REMARK                            x       y       z     vdW  Elec       q    Type
REMARK                         _______ _______ _______ _____ _____    ______ ____
ROOT
ATOM      1  C   UNL     1       2.873   6.995  18.531  0.00  0.00    +0.000 C 
ATOM      2  O   UNL     1       3.552   7.029  17.506  0.00  0.00    +0.000 OA
ATOM      3  N   UNL     1       2.766   5.850  19.281  0.00  0.00    +0.000 N 
ATOM      4  H   UNL     1       2.158   5.878  20.101  0.00  0.00    +0.000 HD
ENDROOT
BRANCH   1   7
ATOM      5  N   UNL     1       1.473  10.505  18.538  0.00  0.00    +0.000 N 
ATOM      6  C   UNL     1       2.127   9.306  18.268  0.00  0.00    +0.000 A 
ATOM      7  C   UNL     1       2.100   8.183  19.005  0.00  0.00    +0.000 A 
ATOM      8  C   UNL     1       1.310   8.234  20.258  0.00  0.00    +0.000 A 
ATOM      9  O   UNL     1       1.194   7.241  20.973  0.00  0.00    +0.000 OA
ATOM     10  C   UNL     1       0.667   9.524  20.632  0.00  0.00    +0.000 A 
ATOM     11  C   UNL     1       0.049   9.627  21.892  0.00  0.00    +0.000 A 
ATOM     12  C   UNL     1      -0.515  10.836  22.225  0.00  0.00    +0.000 A 
ATOM     13  C   UNL     1      -0.547  11.881  21.338  0.00  0.00    +0.000 A 
ATOM     14  C   UNL     1       0.021  11.795  20.082  0.00  0.00    +0.000 A 
ATOM     15  C   UNL     1       0.712  10.622  19.724  0.00  0.00    +0.000 A 
ATOM     16  O   UNL     1      -1.152  12.985  21.855  0.00  0.00    +0.000 OA
ATOM     17  C   UNL     1      -1.347  12.564  23.221  0.00  0.00    +0.000 C 
ATOM     18  O   UNL     1      -1.079  11.159  23.420  0.00  0.00    +0.000 OA
BRANCH   5  20
ATOM     19  C   UNL     1       2.815  12.542  18.173  0.00  0.00    +0.000 C 
ATOM     20  C   UNL     1       1.667  11.682  17.669  0.00  0.00    +0.000 C 
ENDBRANCH   5  20
ENDBRANCH   1   7
BRANCH   3  21
ATOM     21  C   UNL     1       3.600   4.655  19.064  0.00  0.00    +0.000 C 
BRANCH  21  22
ATOM     22  C   UNL     1       5.100   4.998  18.819  0.00  0.00    +0.000 C 
ATOM     23  O   UNL     1       5.855   5.401  19.698  0.00  0.00    +0.000 OA
ATOM     24  N   UNL     1       5.476   4.945  17.492  0.00  0.00    +0.000 N 
ATOM     25  H   UNL     1       4.729   4.747  16.825  0.00  0.00    +0.000 HD
BRANCH  24  26
ATOM     26  C   UNL     1       6.792   5.335  16.953  0.00  0.00    +0.000 C 
ATOM     27  C   UNL     1       7.848   4.461  17.663  0.00  0.00    +0.000 C 
ATOM     28  C   UNL     1       6.882   5.062  15.443  0.00  0.00    +0.000 C 
BRANCH  26  29
ATOM     29  C   UNL     1       7.094   6.830  17.220  0.00  0.00    +0.000 C 
BRANCH  29  30
ATOM     30  O   UNL     1       7.989   6.992  18.321  0.00  0.00    +0.000 OA
ATOM     31  H   UNL     1       8.347   7.893  18.225  0.00  0.00    +0.000 HD
ENDBRANCH  29  30
ENDBRANCH  26  29
ENDBRANCH  24  26
ENDBRANCH  21  22
BRANCH  21  32
ATOM     32  C   UNL     1       3.019   3.704  17.985  0.00  0.00    +0.000 C 
ATOM     33  C   UNL     1       3.340   2.241  18.313  0.00  0.00    +0.000 C 
ATOM     34  C   UNL     1       1.512   3.853  17.747  0.00  0.00    +0.000 C 
ENDBRANCH  21  32
ENDBRANCH   3  21
TORSDOF 8
ENDMDL
MODEL 9
REMARK VINA RESULT:      -7.2      2.348      4.579
REMARK  Name = 
REMARK  13 active torsions:
REMARK  status: ('A' for Active; 'I' for Inactive)
REMARK    1  A    between atoms: C_1  and  C_2
REMARK    2  A    between atoms: C_2  and  N_3
REMARK    3  A    between atoms: C_5  and  C_6
REMARK    4  A    between atoms: N_8  and  C_9
REMARK    5  A    between atoms: C_9  and  C_10
REMARK    6  A    between atoms: C_9  and  C_18
REMARK    7  A    between atoms: N_12  and  C_13
REMARK    8  A    between atoms: C_13  and  C_14
REMARK    9  A    between atoms: C_13  and  C_15
REMARK   10  A    between atoms: C_13  and  C_16
REMARK   11  A    between atoms: C_16  and  O_17
REMARK   12  A    between atoms: C_18  and  C_19
REMARK   13  A    between atoms: C_18  and  C_20
REMARK                            x       y       z     vdW  Elec       q    Type
REMARK                         _______ _______ _______ _____ _____    ______ ____
ROOT
ATOM      1  C   UNL     1       1.277  10.237  18.566  0.00  0.00    +0.000 C 
ATOM      2  O   UNL     1       1.974  11.205  18.268  0.00  0.00    +0.000 OA
ATOM      3  N   UNL     1      -0.079  10.357  18.741  0.00  0.00    +0.000 N 
ATOM      4  H   UNL     1      -0.595   9.522  19.023  0.00  0.00    +0.000 HD
ENDROOT
BRANCH   1   7
ATOM      5  N   UNL     1       3.380   7.167  17.910  0.00  0.00    +0.000 N 
ATOM      6  C   UNL     1       2.728   8.396  17.879  0.00  0.00    +0.000 A 
ATOM      7  C   UNL     1       1.865   8.880  18.786  0.00  0.00    +0.000 A 
ATOM      8  C   UNL     1       1.548   7.997  19.934  0.00  0.00    +0.000 A 
ATOM      9  O   UNL     1       0.801   8.373  20.834  0.00  0.00    +0.000 OA
ATOM     10  C   UNL     1       2.153   6.636  19.962  0.00  0.00    +0.000 A 
ATOM     11  C   UNL     1       1.738   5.736  20.960  0.00  0.00    +0.000 A 
ATOM     12  C   UNL     1       2.292   4.477  20.950  0.00  0.00    +0.000 A 
ATOM     13  C   UNL     1       3.269   4.132  20.053  0.00  0.00    +0.000 A 
ATOM     14  C   UNL     1       3.720   5.008  19.085  0.00  0.00    +0.000 A 
ATOM     15  C   UNL     1       3.113   6.272  18.973  0.00  0.00    +0.000 A 
ATOM     16  O   UNL     1       3.689   2.847  20.210  0.00  0.00    +0.000 OA
ATOM     17  C   UNL     1       2.747   2.380  21.198  0.00  0.00    +0.000 C 
ATOM     18  O   UNL     1       1.960   3.445  21.772  0.00  0.00    +0.000 OA
BRANCH   5  20
ATOM     19  C   UNL     1       5.703   7.042  17.088  0.00  0.00    +0.000 C 
ATOM     20  C   UNL     1       4.243   6.741  16.791  0.00  0.00    +0.000 C 
ENDBRANCH   5  20
ENDBRANCH   1   7
BRANCH   3  21
ATOM     21  C   UNL     1      -0.841  11.568  18.386  0.00  0.00    +0.000 C 
BRANCH  21  22
ATOM     22  C   UNL     1      -1.249  12.413  19.629  0.00  0.00    +0.000 C 
ATOM     23  O   UNL     1      -1.350  13.637  19.613  0.00  0.00    +0.000 OA
ATOM     24  N   UNL     1      -1.355  11.681  20.794  0.00  0.00    +0.000 N 
ATOM     25  H   UNL     1      -1.100  10.695  20.724  0.00  0.00    +0.000 HD
BRANCH  24  26
ATOM     26  C   UNL     1      -1.605  12.232  22.139  0.00  0.00    +0.000 C 
ATOM     27  C   UNL     1      -1.360  11.089  23.148  0.00  0.00    +0.000 C 
ATOM     28  C   UNL     1      -0.633  13.376  22.466  0.00  0.00    +0.000 C 
BRANCH  26  29
ATOM     29  C   UNL     1      -3.060  12.743  22.280  0.00  0.00    +0.000 C 
BRANCH  29  30
ATOM     30  O   UNL     1      -3.149  14.143  22.014  0.00  0.00    +0.000 OA
ATOM     31  H   UNL     1      -3.971  14.432  22.450  0.00  0.00    +0.000 HD
ENDBRANCH  29  30
ENDBRANCH  26  29
ENDBRANCH  24  26
ENDBRANCH  21  22
BRANCH  21  32
ATOM     32  C   UNL     1      -2.037  11.270  17.444  0.00  0.00    +0.000 C 
ATOM     33  C   UNL     1      -1.957   9.842  16.892  0.00  0.00    +0.000 C 
ATOM     34  C   UNL     1      -3.416  11.495  18.073  0.00  0.00    +0.000 C 
ENDBRANCH  21  32
ENDBRANCH   3  21
TORSDOF 8
ENDMDL
