MODEL 1
REMARK VINA RESULT:      -8.0      0.000      0.000
REMARK  Name = 
REMARK  9 active torsions:
REMARK  status: ('A' for Active; 'I' for Inactive)
REMARK    1  A    between atoms: C_1  and  O_2
REMARK    2  A    between atoms: O_2  and  C_3
REMARK    3  A    between atoms: C_3  and  C_4
REMARK    4  A    between atoms: C_4  and  N_5
REMARK    5  A    between atoms: C_8  and  C_9
REMARK    6  A    between atoms: C_13  and  C_14
REMARK    7  A    between atoms: N_16  and  C_17
REMARK    8  A    between atoms: N_19  and  C_20
REMARK    9  A    between atoms: C_22  and  C_23
REMARK                            x       y       z     vdW  Elec       q    Type
REMARK                         _______ _______ _______ _____ _____    ______ ____
ROOT
ATOM      1  C   UNL     1       4.425   4.087  18.877  0.00  0.00    +0.000 A 
ATOM      2  C   UNL     1       4.406   2.837  19.511  0.00  0.00    +0.000 A 
ATOM      3  C   UNL     1       3.484   2.601  20.519  0.00  0.00    +0.000 A 
ATOM      4  C   UNL     1       2.593   3.605  20.873  0.00  0.00    +0.000 A 
ATOM      5  C   UNL     1       2.662   4.832  20.195  0.00  0.00    +0.000 A 
ATOM      6  N   UNL     1       3.559   5.081  19.209  0.00  0.00    +0.000 NA
ENDROOT
BRANCH   1  10
ATOM      7  N   UNL     1       5.393   4.298  14.061  0.00  0.00    +0.000 N 
ATOM      8  C   UNL     1       5.832   4.400  15.387  0.00  0.00    +0.000 A 
ATOM      9  C   UNL     1       4.915   4.306  16.429  0.00  0.00    +0.000 A 
ATOM     10  C   UNL     1       5.350   4.354  17.761  0.00  0.00    +0.000 A 
ATOM     11  C   UNL     1       6.714   4.584  17.976  0.00  0.00    +0.000 A 
ATOM     12  C   UNL     1       7.549   4.719  16.888  0.00  0.00    +0.000 A 
ATOM     13  N   UNL     1       7.132   4.627  15.625  0.00  0.00    +0.000 NA
ATOM     14  H   UNL     1       4.578   3.682  14.025  0.00  0.00    +0.000 HD
BRANCH   7  15
ATOM     15  C   UNL     1       6.432   3.794  13.143  0.00  0.00    +0.000 C 
BRANCH  15  16
ATOM     16  C   UNL     1       5.796   3.122  11.918  0.00  0.00    +0.000 C 
BRANCH  16  18
ATOM     17  C   UNL     1       3.742   3.357  10.785  0.00  0.00    +0.000 C 
ATOM     18  O   UNL     1       4.367   3.147  12.045  0.00  0.00    +0.000 OA
ENDBRANCH  16  18
ENDBRANCH  15  16
ENDBRANCH   7  15
ENDBRANCH   1  10
BRANCH   5  19
ATOM     19  C   UNL     1       1.690   5.934  20.522  0.00  0.00    +0.000 C 
ATOM     20  O   UNL     1       0.494   5.650  20.664  0.00  0.00    +0.000 OA
ATOM     21  N   UNL     1       2.213   7.223  20.583  0.00  0.00    +0.000 N 
ATOM     22  H   UNL     1       3.163   7.374  20.236  0.00  0.00    +0.000 HD
BRANCH  21  23
ATOM     23  C   UNL     1       1.450   8.357  20.835  0.00  0.00    +0.000 A 
ATOM     24  C   UNL     1       0.934   8.770  22.041  0.00  0.00    +0.000 A 
ATOM     25  N   UNL     1       0.186   9.876  21.783  0.00  0.00    +0.000 N 
ATOM     26  C   UNL     1      -0.634  10.582  22.739  0.00  0.00    +0.000 C 
ATOM     27  N   UNL     1       0.230  10.277  20.495  0.00  0.00    +0.000 NA
ATOM     28  C   UNL     1       1.019   9.354  19.902  0.00  0.00    +0.000 A 
BRANCH  28  29
ATOM     29  C   UNL     1       1.304   9.354  18.462  0.00  0.00    +0.000 C 
ATOM     30  N   UNL     1       0.325   9.896  17.667  0.00  0.00    +0.000 N 
ATOM     31  O   UNL     1       2.319   8.884  17.976  0.00  0.00    +0.000 OA
ATOM     32  H   UNL     1      -0.530  10.230  18.096  0.00  0.00    +0.000 HD
ATOM     33  H   UNL     1       0.432   9.863  16.670  0.00  0.00    +0.000 HD
ENDBRANCH  28  29
ENDBRANCH  21  23
ENDBRANCH   5  19
TORSDOF 7
ENDMDL
MODEL 2
REMARK VINA RESULT:      -7.9      2.489      9.233
REMARK  Name = 
REMARK  9 active torsions:
REMARK  status: ('A' for Active; 'I' for Inactive)
REMARK    1  A    between atoms: C_1  and  O_2
REMARK    2  A    between atoms: O_2  and  C_3
REMARK    3  A    between atoms: C_3  and  C_4
REMARK    4  A    between atoms: C_4  and  N_5
REMARK    5  A    between atoms: C_8  and  C_9
REMARK    6  A    between atoms: C_13  and  C_14
REMARK    7  A    between atoms: N_16  and  C_17
REMARK    8  A    between atoms: N_19  and  C_20
REMARK    9  A    between atoms: C_22  and  C_23
REMARK                            x       y       z     vdW  Elec       q    Type
REMARK                         _______ _______ _______ _____ _____    ______ ____
ROOT
ATOM      1  C   UNL     1       2.016   6.621  20.023  0.00  0.00    +0.000 A 
ATOM      2  C   UNL     1       1.488   5.704  20.942  0.00  0.00    +0.000 A 
ATOM      3  C   UNL     1       1.936   4.392  20.926  0.00  0.00    +0.000 A 
ATOM      4  C   UNL     1       2.905   4.017  20.006  0.00  0.00    +0.000 A 
ATOM      5  C   UNL     1       3.396   4.986  19.116  0.00  0.00    +0.000 A 
ATOM      6  N   UNL     1       2.967   6.272  19.116  0.00  0.00    +0.000 NA
ENDROOT
BRANCH   1  10
ATOM      7  N   UNL     1      -0.058  10.448  22.310  0.00  0.00    +0.000 N 
ATOM      8  C   UNL     1       0.534   9.901  21.165  0.00  0.00    +0.000 A 
ATOM      9  C   UNL     1       1.060   8.614  21.205  0.00  0.00    +0.000 A 
ATOM     10  C   UNL     1       1.608   8.037  20.050  0.00  0.00    +0.000 A 
ATOM     11  C   UNL     1       1.671   8.842  18.906  0.00  0.00    +0.000 A 
ATOM     12  C   UNL     1       1.175  10.127  18.964  0.00  0.00    +0.000 A 
ATOM     13  N   UNL     1       0.615  10.651  20.056  0.00  0.00    +0.000 NA
ATOM     14  H   UNL     1      -0.479   9.695  22.860  0.00  0.00    +0.000 HD
BRANCH   7  15
ATOM     15  C   UNL     1      -1.080  11.467  22.006  0.00  0.00    +0.000 C 
BRANCH  15  16
ATOM     16  C   UNL     1      -1.831  11.881  23.279  0.00  0.00    +0.000 C 
BRANCH  16  18
ATOM     17  C   UNL     1      -3.869  12.940  23.812  0.00  0.00    +0.000 C 
ATOM     18  O   UNL     1      -3.237  11.953  23.006  0.00  0.00    +0.000 OA
ENDBRANCH  16  18
ENDBRANCH  15  16
ENDBRANCH   7  15
ENDBRANCH   1  10
BRANCH   5  19
ATOM     19  C   UNL     1       4.474   4.631  18.128  0.00  0.00    +0.000 C 
ATOM     20  O   UNL     1       5.321   3.787  18.448  0.00  0.00    +0.000 OA
ATOM     21  N   UNL     1       4.468   5.335  16.926  0.00  0.00    +0.000 N 
ATOM     22  H   UNL     1       3.864   6.157  16.852  0.00  0.00    +0.000 HD
BRANCH  21  23
ATOM     23  C   UNL     1       5.413   5.159  15.921  0.00  0.00    +0.000 A 
ATOM     24  C   UNL     1       5.246   4.517  14.716  0.00  0.00    +0.000 A 
ATOM     25  N   UNL     1       6.462   4.516  14.107  0.00  0.00    +0.000 N 
ATOM     26  C   UNL     1       6.783   3.850  12.866  0.00  0.00    +0.000 C 
ATOM     27  N   UNL     1       7.416   5.182  14.791  0.00  0.00    +0.000 NA
ATOM     28  C   UNL     1       6.776   5.596  15.907  0.00  0.00    +0.000 A 
BRANCH  28  29
ATOM     29  C   UNL     1       7.449   6.323  16.990  0.00  0.00    +0.000 C 
ATOM     30  N   UNL     1       7.852   5.554  18.054  0.00  0.00    +0.000 N 
ATOM     31  O   UNL     1       7.626   7.530  16.985  0.00  0.00    +0.000 OA
ATOM     32  H   UNL     1       7.644   4.563  18.054  0.00  0.00    +0.000 HD
ATOM     33  H   UNL     1       8.256   6.004  18.855  0.00  0.00    +0.000 HD
ENDBRANCH  28  29
ENDBRANCH  21  23
ENDBRANCH   5  19
TORSDOF 7
ENDMDL
MODEL 3
REMARK VINA RESULT:      -7.7      2.444      8.325
REMARK  Name = 
REMARK  9 active torsions:
REMARK  status: ('A' for Active; 'I' for Inactive)
REMARK    1  A    between atoms: C_1  and  O_2
REMARK    2  A    between atoms: O_2  and  C_3
REMARK    3  A    between atoms: C_3  and  C_4
REMARK    4  A    between atoms: C_4  and  N_5
REMARK    5  A    between atoms: C_8  and  C_9
REMARK    6  A    between atoms: C_13  and  C_14
REMARK    7  A    between atoms: N_16  and  C_17
REMARK    8  A    between atoms: N_19  and  C_20
REMARK    9  A    between atoms: C_22  and  C_23
REMARK                            x       y       z     vdW  Elec       q    Type
REMARK                         _______ _______ _______ _____ _____    ______ ____
ROOT
ATOM      1  C   UNL     1       1.995   6.461  20.263  0.00  0.00    +0.000 A 
ATOM      2  C   UNL     1       1.446   5.454  21.069  0.00  0.00    +0.000 A 
ATOM      3  C   UNL     1       1.930   4.159  20.961  0.00  0.00    +0.000 A 
ATOM      4  C   UNL     1       2.956   3.891  20.065  0.00  0.00    +0.000 A 
ATOM      5  C   UNL     1       3.464   4.946  19.292  0.00  0.00    +0.000 A 
ATOM      6  N   UNL     1       3.001   6.217  19.382  0.00  0.00    +0.000 NA
ENDROOT
BRANCH   1  10
ATOM      7  N   UNL     1       1.258  10.929  18.346  0.00  0.00    +0.000 N 
ATOM      8  C   UNL     1       1.241  10.072  19.454  0.00  0.00    +0.000 A 
ATOM      9  C   UNL     1       1.511   8.717  19.284  0.00  0.00    +0.000 A 
ATOM     10  C   UNL     1       1.548   7.859  20.394  0.00  0.00    +0.000 A 
ATOM     11  C   UNL     1       1.220   8.413  21.637  0.00  0.00    +0.000 A 
ATOM     12  C   UNL     1       0.913   9.755  21.711  0.00  0.00    +0.000 A 
ATOM     13  N   UNL     1       0.924  10.572  20.657  0.00  0.00    +0.000 NA
ATOM     14  H   UNL     1       1.938  10.581  17.665  0.00  0.00    +0.000 HD
BRANCH   7  15
ATOM     15  C   UNL     1       1.583  12.325  18.698  0.00  0.00    +0.000 C 
BRANCH  15  16
ATOM     16  C   UNL     1       0.395  13.250  18.398  0.00  0.00    +0.000 C 
BRANCH  16  18
ATOM     17  C   UNL     1      -1.701  12.552  19.221  0.00  0.00    +0.000 C 
ATOM     18  O   UNL     1      -0.502  13.257  19.518  0.00  0.00    +0.000 OA
ENDBRANCH  16  18
ENDBRANCH  15  16
ENDBRANCH   7  15
ENDBRANCH   1  10
BRANCH   5  19
ATOM     19  C   UNL     1       4.602   4.705  18.335  0.00  0.00    +0.000 C 
ATOM     20  O   UNL     1       5.526   3.961  18.685  0.00  0.00    +0.000 OA
ATOM     21  N   UNL     1       4.553   5.398  17.129  0.00  0.00    +0.000 N 
ATOM     22  H   UNL     1       3.865   6.149  17.032  0.00  0.00    +0.000 HD
BRANCH  21  23
ATOM     23  C   UNL     1       5.537   5.321  16.151  0.00  0.00    +0.000 A 
ATOM     24  C   UNL     1       5.484   4.637  14.958  0.00  0.00    +0.000 A 
ATOM     25  N   UNL     1       6.706   4.777  14.378  0.00  0.00    +0.000 N 
ATOM     26  C   UNL     1       7.141   4.130  13.162  0.00  0.00    +0.000 C 
ATOM     27  N   UNL     1       7.550   5.573  15.067  0.00  0.00    +0.000 NA
ATOM     28  C   UNL     1       6.835   5.927  16.157  0.00  0.00    +0.000 A 
BRANCH  28  29
ATOM     29  C   UNL     1       7.383   6.756  17.237  0.00  0.00    +0.000 C 
ATOM     30  N   UNL     1       7.744   6.078  18.375  0.00  0.00    +0.000 N 
ATOM     31  O   UNL     1       7.492   7.969  17.167  0.00  0.00    +0.000 OA
ATOM     32  H   UNL     1       7.592   5.078  18.424  0.00  0.00    +0.000 HD
ATOM     33  H   UNL     1       8.061   6.598  19.173  0.00  0.00    +0.000 HD
ENDBRANCH  28  29
ENDBRANCH  21  23
ENDBRANCH   5  19
TORSDOF 7
ENDMDL
MODEL 4
REMARK VINA RESULT:      -7.7      2.574      8.228
REMARK  Name = 
REMARK  9 active torsions:
REMARK  status: ('A' for Active; 'I' for Inactive)
REMARK    1  A    between atoms: C_1  and  O_2
REMARK    2  A    between atoms: O_2  and  C_3
REMARK    3  A    between atoms: C_3  and  C_4
REMARK    4  A    between atoms: C_4  and  N_5
REMARK    5  A    between atoms: C_8  and  C_9
REMARK    6  A    between atoms: C_13  and  C_14
REMARK    7  A    between atoms: N_16  and  C_17
REMARK    8  A    between atoms: N_19  and  C_20
REMARK    9  A    between atoms: C_22  and  C_23
REMARK                            x       y       z     vdW  Elec       q    Type
REMARK                         _______ _______ _______ _____ _____    ______ ____
ROOT
ATOM      1  C   UNL     1       1.991   6.453  20.268  0.00  0.00    +0.000 A 
ATOM      2  C   UNL     1       1.453   5.443  21.077  0.00  0.00    +0.000 A 
ATOM      3  C   UNL     1       1.954   4.154  20.978  0.00  0.00    +0.000 A 
ATOM      4  C   UNL     1       2.986   3.894  20.085  0.00  0.00    +0.000 A 
ATOM      5  C   UNL     1       3.482   4.952  19.308  0.00  0.00    +0.000 A 
ATOM      6  N   UNL     1       3.002   6.217  19.390  0.00  0.00    +0.000 NA
ENDROOT
BRANCH   1  10
ATOM      7  N   UNL     1       1.216  10.905  18.330  0.00  0.00    +0.000 N 
ATOM      8  C   UNL     1       1.199  10.052  19.440  0.00  0.00    +0.000 A 
ATOM      9  C   UNL     1       1.487   8.700  19.277  0.00  0.00    +0.000 A 
ATOM     10  C   UNL     1       1.525   7.846  20.390  0.00  0.00    +0.000 A 
ATOM     11  C   UNL     1       1.180   8.400  21.628  0.00  0.00    +0.000 A 
ATOM     12  C   UNL     1       0.855   9.738  21.696  0.00  0.00    +0.000 A 
ATOM     13  N   UNL     1       0.866  10.552  20.639  0.00  0.00    +0.000 NA
ATOM     14  H   UNL     1       1.905  10.564  17.656  0.00  0.00    +0.000 HD
BRANCH   7  15
ATOM     15  C   UNL     1       1.519  12.306  18.680  0.00  0.00    +0.000 C 
BRANCH  15  16
ATOM     16  C   UNL     1       2.781  12.787  17.949  0.00  0.00    +0.000 C 
BRANCH  16  18
ATOM     17  C   UNL     1       2.534  14.308  19.734  0.00  0.00    +0.000 C 
ATOM     18  O   UNL     1       3.387  13.856  18.689  0.00  0.00    +0.000 OA
ENDBRANCH  16  18
ENDBRANCH  15  16
ENDBRANCH   7  15
ENDBRANCH   1  10
BRANCH   5  19
ATOM     19  C   UNL     1       4.625   4.721  18.355  0.00  0.00    +0.000 C 
ATOM     20  O   UNL     1       5.535   3.955  18.692  0.00  0.00    +0.000 OA
ATOM     21  N   UNL     1       4.597   5.448  17.168  0.00  0.00    +0.000 N 
ATOM     22  H   UNL     1       3.921   6.211  17.085  0.00  0.00    +0.000 HD
BRANCH  21  23
ATOM     23  C   UNL     1       5.589   5.383  16.197  0.00  0.00    +0.000 A 
ATOM     24  C   UNL     1       5.523   4.767  14.969  0.00  0.00    +0.000 A 
ATOM     25  N   UNL     1       6.757   4.887  14.409  0.00  0.00    +0.000 N 
ATOM     26  C   UNL     1       7.181   4.289  13.164  0.00  0.00    +0.000 C 
ATOM     27  N   UNL     1       7.624   5.611  15.148  0.00  0.00    +0.000 NA
ATOM     28  C   UNL     1       6.910   5.935  16.249  0.00  0.00    +0.000 A 
BRANCH  28  29
ATOM     29  C   UNL     1       7.477   6.683  17.377  0.00  0.00    +0.000 C 
ATOM     30  N   UNL     1       7.543   8.044  17.208  0.00  0.00    +0.000 N 
ATOM     31  O   UNL     1       7.896   6.155  18.394  0.00  0.00    +0.000 OA
ATOM     32  H   UNL     1       7.237   8.448  16.331  0.00  0.00    +0.000 HD
ATOM     33  H   UNL     1       7.983   8.602  17.916  0.00  0.00    +0.000 HD
ENDBRANCH  28  29
ENDBRANCH  21  23
ENDBRANCH   5  19
TORSDOF 7
ENDMDL
MODEL 5
REMARK VINA RESULT:      -7.4      1.784      2.164
REMARK  Name = 
REMARK  9 active torsions:
REMARK  status: ('A' for Active; 'I' for Inactive)
REMARK    1  A    between atoms: C_1  and  O_2
REMARK    2  A    between atoms: O_2  and  C_3
REMARK    3  A    between atoms: C_3  and  C_4
REMARK    4  A    between atoms: C_4  and  N_5
REMARK    5  A    between atoms: C_8  and  C_9
REMARK    6  A    between atoms: C_13  and  C_14
REMARK    7  A    between atoms: N_16  and  C_17
REMARK    8  A    between atoms: N_19  and  C_20
REMARK    9  A    between atoms: C_22  and  C_23
REMARK                            x       y       z     vdW  Elec       q    Type
REMARK                         _______ _______ _______ _____ _____    ______ ____
ROOT
ATOM      1  C   UNL     1       3.751   5.482  19.302  0.00  0.00    +0.000 A 
ATOM      2  C   UNL     1       3.125   4.292  19.697  0.00  0.00    +0.000 A 
ATOM      3  C   UNL     1       1.952   4.353  20.434  0.00  0.00    +0.000 A 
ATOM      4  C   UNL     1       1.418   5.593  20.758  0.00  0.00    +0.000 A 
ATOM      5  C   UNL     1       2.093   6.747  20.327  0.00  0.00    +0.000 A 
ATOM      6  N   UNL     1       3.241   6.705  19.608  0.00  0.00    +0.000 NA
ENDROOT
BRANCH   1  10
ATOM      7  N   UNL     1       5.951   5.798  14.916  0.00  0.00    +0.000 N 
ATOM      8  C   UNL     1       6.032   5.557  16.294  0.00  0.00    +0.000 A 
ATOM      9  C   UNL     1       4.910   5.744  17.095  0.00  0.00    +0.000 A 
ATOM     10  C   UNL     1       4.964   5.455  18.467  0.00  0.00    +0.000 A 
ATOM     11  C   UNL     1       6.204   5.063  18.985  0.00  0.00    +0.000 A 
ATOM     12  C   UNL     1       7.281   4.953  18.132  0.00  0.00    +0.000 A 
ATOM     13  N   UNL     1       7.208   5.186  16.820  0.00  0.00    +0.000 NA
ATOM     14  H   UNL     1       5.003   5.591  14.596  0.00  0.00    +0.000 HD
BRANCH   7  15
ATOM     15  C   UNL     1       6.919   5.008  14.132  0.00  0.00    +0.000 C 
BRANCH  15  16
ATOM     16  C   UNL     1       6.305   3.670  13.699  0.00  0.00    +0.000 C 
BRANCH  16  18
ATOM     17  C   UNL     1       5.305   2.888  11.712  0.00  0.00    +0.000 C 
ATOM     18  O   UNL     1       6.450   3.511  12.280  0.00  0.00    +0.000 OA
ENDBRANCH  16  18
ENDBRANCH  15  16
ENDBRANCH   7  15
ENDBRANCH   1  10
BRANCH   5  19
ATOM     19  C   UNL     1       1.528   8.110  20.624  0.00  0.00    +0.000 C 
ATOM     20  O   UNL     1       1.397   8.456  21.805  0.00  0.00    +0.000 OA
ATOM     21  N   UNL     1       1.135   8.870  19.525  0.00  0.00    +0.000 N 
ATOM     22  H   UNL     1       1.082   8.408  18.614  0.00  0.00    +0.000 HD
BRANCH  21  23
ATOM     23  C   UNL     1       0.560  10.132  19.622  0.00  0.00    +0.000 A 
ATOM     24  C   UNL     1      -0.530  10.502  20.375  0.00  0.00    +0.000 A 
ATOM     25  N   UNL     1      -0.778  11.806  20.081  0.00  0.00    +0.000 N 
ATOM     26  C   UNL     1      -1.900  12.580  20.558  0.00  0.00    +0.000 C 
ATOM     27  N   UNL     1       0.121  12.356  19.238  0.00  0.00    +0.000 NA
ATOM     28  C   UNL     1       0.960  11.336  18.957  0.00  0.00    +0.000 A 
BRANCH  28  29
ATOM     29  C   UNL     1       2.079  11.457  18.015  0.00  0.00    +0.000 C 
ATOM     30  N   UNL     1       2.439  12.742  17.690  0.00  0.00    +0.000 N 
ATOM     31  O   UNL     1       2.649  10.500  17.518  0.00  0.00    +0.000 OA
ATOM     32  H   UNL     1       1.912  13.515  18.078  0.00  0.00    +0.000 HD
ATOM     33  H   UNL     1       3.152  12.888  16.999  0.00  0.00    +0.000 HD
ENDBRANCH  28  29
ENDBRANCH  21  23
ENDBRANCH   5  19
TORSDOF 7
ENDMDL
MODEL 6
REMARK VINA RESULT:      -7.4      2.418      8.967
REMARK  Name = 
REMARK  9 active torsions:
REMARK  status: ('A' for Active; 'I' for Inactive)
REMARK    1  A    between atoms: C_1  and  O_2
REMARK    2  A    between atoms: O_2  and  C_3
REMARK    3  A    between atoms: C_3  and  C_4
REMARK    4  A    between atoms: C_4  and  N_5
REMARK    5  A    between atoms: C_8  and  C_9
REMARK    6  A    between atoms: C_13  and  C_14
REMARK    7  A    between atoms: N_16  and  C_17
REMARK    8  A    between atoms: N_19  and  C_20
REMARK    9  A    between atoms: C_22  and  C_23
REMARK                            x       y       z     vdW  Elec       q    Type
REMARK                         _______ _______ _______ _____ _____    ______ ____
ROOT
ATOM      1  C   UNL     1       2.022   6.553  19.675  0.00  0.00    +0.000 A 
ATOM      2  C   UNL     1       1.586   5.779  20.759  0.00  0.00    +0.000 A 
ATOM      3  C   UNL     1       1.923   4.435  20.813  0.00  0.00    +0.000 A 
ATOM      4  C   UNL     1       2.695   3.887  19.798  0.00  0.00    +0.000 A 
ATOM      5  C   UNL     1       3.104   4.719  18.743  0.00  0.00    +0.000 A 
ATOM      6  N   UNL     1       2.780   6.034  18.673  0.00  0.00    +0.000 NA
ENDROOT
BRANCH   1  10
ATOM      7  N   UNL     1       0.216  10.658  21.691  0.00  0.00    +0.000 N 
ATOM      8  C   UNL     1       0.790  10.002  20.595  0.00  0.00    +0.000 A 
ATOM      9  C   UNL     1       1.206   8.680  20.720  0.00  0.00    +0.000 A 
ATOM     10  C   UNL     1       1.734   7.997  19.615  0.00  0.00    +0.000 A 
ATOM     11  C   UNL     1       1.896   8.729  18.433  0.00  0.00    +0.000 A 
ATOM     12  C   UNL     1       1.507  10.052  18.407  0.00  0.00    +0.000 A 
ATOM     13  N   UNL     1       0.964  10.679  19.451  0.00  0.00    +0.000 NA
ATOM     14  H   UNL     1      -0.282   9.974  22.266  0.00  0.00    +0.000 HD
BRANCH   7  15
ATOM     15  C   UNL     1      -0.709  11.739  21.301  0.00  0.00    +0.000 C 
BRANCH  15  16
ATOM     16  C   UNL     1      -0.387  13.032  22.064  0.00  0.00    +0.000 C 
BRANCH  16  18
ATOM     17  C   UNL     1       0.930  14.612  20.913  0.00  0.00    +0.000 C 
ATOM     18  O   UNL     1       0.945  13.459  21.745  0.00  0.00    +0.000 OA
ENDBRANCH  16  18
ENDBRANCH  15  16
ENDBRANCH   7  15
ENDBRANCH   1  10
BRANCH   5  19
ATOM     19  C   UNL     1       3.973   4.175  17.642  0.00  0.00    +0.000 C 
ATOM     20  O   UNL     1       4.311   2.986  17.683  0.00  0.00    +0.000 OA
ATOM     21  N   UNL     1       4.384   5.085  16.671  0.00  0.00    +0.000 N 
ATOM     22  H   UNL     1       4.232   6.081  16.848  0.00  0.00    +0.000 HD
BRANCH  21  23
ATOM     23  C   UNL     1       5.218   4.759  15.608  0.00  0.00    +0.000 A 
ATOM     24  C   UNL     1       4.855   4.248  14.383  0.00  0.00    +0.000 A 
ATOM     25  N   UNL     1       6.011   4.005  13.709  0.00  0.00    +0.000 N 
ATOM     26  C   UNL     1       6.116   3.361  12.420  0.00  0.00    +0.000 C 
ATOM     27  N   UNL     1       7.122   4.392  14.371  0.00  0.00    +0.000 NA
ATOM     28  C   UNL     1       6.644   4.871  15.539  0.00  0.00    +0.000 A 
BRANCH  28  29
ATOM     29  C   UNL     1       7.513   5.357  16.619  0.00  0.00    +0.000 C 
ATOM     30  N   UNL     1       8.016   4.388  17.451  0.00  0.00    +0.000 N 
ATOM     31  O   UNL     1       7.763   6.536  16.804  0.00  0.00    +0.000 OA
ATOM     32  H   UNL     1       7.747   3.422  17.304  0.00  0.00    +0.000 HD
ATOM     33  H   UNL     1       8.561   4.664  18.247  0.00  0.00    +0.000 HD
ENDBRANCH  28  29
ENDBRANCH  21  23
ENDBRANCH   5  19
TORSDOF 7
ENDMDL
MODEL 7
REMARK VINA RESULT:      -7.4      2.642      9.038
REMARK  Name = 
REMARK  9 active torsions:
REMARK  status: ('A' for Active; 'I' for Inactive)
REMARK    1  A    between atoms: C_1  and  O_2
REMARK    2  A    between atoms: O_2  and  C_3
REMARK    3  A    between atoms: C_3  and  C_4
REMARK    4  A    between atoms: C_4  and  N_5
REMARK    5  A    between atoms: C_8  and  C_9
REMARK    6  A    between atoms: C_13  and  C_14
REMARK    7  A    between atoms: N_16  and  C_17
REMARK    8  A    between atoms: N_19  and  C_20
REMARK    9  A    between atoms: C_22  and  C_23
REMARK                            x       y       z     vdW  Elec       q    Type
REMARK                         _______ _______ _______ _____ _____    ______ ____
ROOT
ATOM      1  C   UNL     1       1.701   7.252  20.259  0.00  0.00    +0.000 A 
ATOM      2  C   UNL     1       1.320   6.080  20.927  0.00  0.00    +0.000 A 
ATOM      3  C   UNL     1       1.856   4.866  20.527  0.00  0.00    +0.000 A 
ATOM      4  C   UNL     1       2.767   4.838  19.480  0.00  0.00    +0.000 A 
ATOM      5  C   UNL     1       3.109   6.048  18.857  0.00  0.00    +0.000 A 
ATOM      6  N   UNL     1       2.593   7.243  19.233  0.00  0.00    +0.000 NA
ENDROOT
BRANCH   1  10
ATOM      7  N   UNL     1       0.709  11.983  19.357  0.00  0.00    +0.000 N 
ATOM      8  C   UNL     1       0.765  10.910  20.256  0.00  0.00    +0.000 A 
ATOM      9  C   UNL     1       1.087   9.638  19.795  0.00  0.00    +0.000 A 
ATOM     10  C   UNL     1       1.198   8.567  20.695  0.00  0.00    +0.000 A 
ATOM     11  C   UNL     1       0.889   8.828  22.035  0.00  0.00    +0.000 A 
ATOM     12  C   UNL     1       0.527  10.107  22.401  0.00  0.00    +0.000 A 
ATOM     13  N   UNL     1       0.468  11.128  21.545  0.00  0.00    +0.000 NA
ATOM     14  H   UNL     1       1.379  11.821  18.602  0.00  0.00    +0.000 HD
BRANCH   7  15
ATOM     15  C   UNL     1       0.984  13.286  19.990  0.00  0.00    +0.000 C 
BRANCH  15  16
ATOM     16  C   UNL     1       2.439  13.712  19.747  0.00  0.00    +0.000 C 
BRANCH  16  18
ATOM     17  C   UNL     1       1.821  14.822  21.733  0.00  0.00    +0.000 C 
ATOM     18  O   UNL     1       2.879  14.554  20.821  0.00  0.00    +0.000 OA
ENDBRANCH  16  18
ENDBRANCH  15  16
ENDBRANCH   7  15
ENDBRANCH   1  10
BRANCH   5  19
ATOM     19  C   UNL     1       4.122   6.066  17.743  0.00  0.00    +0.000 C 
ATOM     20  O   UNL     1       4.513   7.158  17.312  0.00  0.00    +0.000 OA
ATOM     21  N   UNL     1       4.504   4.828  17.234  0.00  0.00    +0.000 N 
ATOM     22  H   UNL     1       3.961   4.005  17.508  0.00  0.00    +0.000 HD
BRANCH  21  23
ATOM     23  C   UNL     1       5.397   4.665  16.181  0.00  0.00    +0.000 A 
ATOM     24  C   UNL     1       5.102   4.416  14.861  0.00  0.00    +0.000 A 
ATOM     25  N   UNL     1       6.292   4.244  14.225  0.00  0.00    +0.000 N 
ATOM     26  C   UNL     1       6.463   3.852  12.846  0.00  0.00    +0.000 C 
ATOM     27  N   UNL     1       7.368   4.437  15.017  0.00  0.00    +0.000 NA
ATOM     28  C   UNL     1       6.828   4.712  16.225  0.00  0.00    +0.000 A 
BRANCH  28  29
ATOM     29  C   UNL     1       7.637   4.935  17.429  0.00  0.00    +0.000 C 
ATOM     30  N   UNL     1       7.508   6.176  18.004  0.00  0.00    +0.000 N 
ATOM     31  O   UNL     1       8.401   4.106  17.893  0.00  0.00    +0.000 OA
ATOM     32  H   UNL     1       6.906   6.862  17.565  0.00  0.00    +0.000 HD
ATOM     33  H   UNL     1       8.086   6.412  18.789  0.00  0.00    +0.000 HD
ENDBRANCH  28  29
ENDBRANCH  21  23
ENDBRANCH   5  19
TORSDOF 7
ENDMDL
MODEL 8
REMARK VINA RESULT:      -7.3      2.623      9.206
REMARK  Name = 
REMARK  9 active torsions:
REMARK  status: ('A' for Active; 'I' for Inactive)
REMARK    1  A    between atoms: C_1  and  O_2
REMARK    2  A    between atoms: O_2  and  C_3
REMARK    3  A    between atoms: C_3  and  C_4
REMARK    4  A    between atoms: C_4  and  N_5
REMARK    5  A    between atoms: C_8  and  C_9
REMARK    6  A    between atoms: C_13  and  C_14
REMARK    7  A    between atoms: N_16  and  C_17
REMARK    8  A    between atoms: N_19  and  C_20
REMARK    9  A    between atoms: C_22  and  C_23
REMARK                            x       y       z     vdW  Elec       q    Type
REMARK                         _______ _______ _______ _____ _____    ______ ____
ROOT
ATOM      1  C   UNL     1       1.809   6.890  19.974  0.00  0.00    +0.000 A 
ATOM      2  C   UNL     1       1.320   6.065  20.996  0.00  0.00    +0.000 A 
ATOM      3  C   UNL     1       1.723   4.739  21.048  0.00  0.00    +0.000 A 
ATOM      4  C   UNL     1       2.610   4.261  20.094  0.00  0.00    +0.000 A 
ATOM      5  C   UNL     1       3.065   5.142  19.100  0.00  0.00    +0.000 A 
ATOM      6  N   UNL     1       2.679   6.439  19.032  0.00  0.00    +0.000 NA
ENDROOT
BRANCH   1  10
ATOM      7  N   UNL     1      -0.108  10.914  22.050  0.00  0.00    +0.000 N 
ATOM      8  C   UNL     1       0.452  10.281  20.933  0.00  0.00    +0.000 A 
ATOM      9  C   UNL     1       0.935   8.981  21.045  0.00  0.00    +0.000 A 
ATOM     10  C   UNL     1       1.450   8.319  19.921  0.00  0.00    +0.000 A 
ATOM     11  C   UNL     1       1.529   9.053  18.732  0.00  0.00    +0.000 A 
ATOM     12  C   UNL     1       1.077  10.355  18.718  0.00  0.00    +0.000 A 
ATOM     13  N   UNL     1       0.548  10.961  19.782  0.00  0.00    +0.000 NA
ATOM     14  H   UNL     1      -0.549  10.210  22.647  0.00  0.00    +0.000 HD
BRANCH   7  15
ATOM     15  C   UNL     1      -1.098  11.948  21.695  0.00  0.00    +0.000 C 
BRANCH  15  16
ATOM     16  C   UNL     1      -0.603  13.341  22.112  0.00  0.00    +0.000 C 
BRANCH  16  18
ATOM     17  C   UNL     1      -1.400  14.484  24.013  0.00  0.00    +0.000 C 
ATOM     18  O   UNL     1      -0.569  13.430  23.543  0.00  0.00    +0.000 OA
ENDBRANCH  16  18
ENDBRANCH  15  16
ENDBRANCH   7  15
ENDBRANCH   1  10
BRANCH   5  19
ATOM     19  C   UNL     1       4.057   4.674  18.069  0.00  0.00    +0.000 C 
ATOM     20  O   UNL     1       4.461   3.506  18.118  0.00  0.00    +0.000 OA
ATOM     21  N   UNL     1       4.495   5.628  17.154  0.00  0.00    +0.000 N 
ATOM     22  H   UNL     1       4.269   6.609  17.335  0.00  0.00    +0.000 HD
BRANCH  21  23
ATOM     23  C   UNL     1       5.435   5.375  16.162  0.00  0.00    +0.000 A 
ATOM     24  C   UNL     1       5.237   4.729  14.964  0.00  0.00    +0.000 A 
ATOM     25  N   UNL     1       6.456   4.638  14.368  0.00  0.00    +0.000 N 
ATOM     26  C   UNL     1       6.744   3.935  13.139  0.00  0.00    +0.000 C 
ATOM     27  N   UNL     1       7.446   5.249  15.053  0.00  0.00    +0.000 NA
ATOM     28  C   UNL     1       6.825   5.720  16.156  0.00  0.00    +0.000 A 
BRANCH  28  29
ATOM     29  C   UNL     1       7.535   6.415  17.237  0.00  0.00    +0.000 C 
ATOM     30  N   UNL     1       7.744   7.757  17.035  0.00  0.00    +0.000 N 
ATOM     31  O   UNL     1       7.947   5.859  18.240  0.00  0.00    +0.000 OA
ATOM     32  H   UNL     1       7.438   8.180  16.168  0.00  0.00    +0.000 HD
ATOM     33  H   UNL     1       8.283   8.272  17.707  0.00  0.00    +0.000 HD
ENDBRANCH  28  29
ENDBRANCH  21  23
ENDBRANCH   5  19
TORSDOF 7
ENDMDL
MODEL 9
REMARK VINA RESULT:      -7.3      2.545      9.062
REMARK  Name = 
REMARK  9 active torsions:
REMARK  status: ('A' for Active; 'I' for Inactive)
REMARK    1  A    between atoms: C_1  and  O_2
REMARK    2  A    between atoms: O_2  and  C_3
REMARK    3  A    between atoms: C_3  and  C_4
REMARK    4  A    between atoms: C_4  and  N_5
REMARK    5  A    between atoms: C_8  and  C_9
REMARK    6  A    between atoms: C_13  and  C_14
REMARK    7  A    between atoms: N_16  and  C_17
REMARK    8  A    between atoms: N_19  and  C_20
REMARK    9  A    between atoms: C_22  and  C_23
REMARK                            x       y       z     vdW  Elec       q    Type
REMARK                         _______ _______ _______ _____ _____    ______ ____
ROOT
ATOM      1  C   UNL     1       1.785   6.996  20.209  0.00  0.00    +0.000 A 
ATOM      2  C   UNL     1       1.402   5.798  20.827  0.00  0.00    +0.000 A 
ATOM      3  C   UNL     1       1.931   4.599  20.374  0.00  0.00    +0.000 A 
ATOM      4  C   UNL     1       2.838   4.613  19.323  0.00  0.00    +0.000 A 
ATOM      5  C   UNL     1       3.183   5.847  18.751  0.00  0.00    +0.000 A 
ATOM      6  N   UNL     1       2.673   7.027  19.180  0.00  0.00    +0.000 NA
ENDROOT
BRANCH   1  10
ATOM      7  N   UNL     1       0.455  11.664  19.424  0.00  0.00    +0.000 N 
ATOM      8  C   UNL     1       0.690  10.608  20.313  0.00  0.00    +0.000 A 
ATOM      9  C   UNL     1       1.001   9.345  19.820  0.00  0.00    +0.000 A 
ATOM     10  C   UNL     1       1.289   8.292  20.702  0.00  0.00    +0.000 A 
ATOM     11  C   UNL     1       1.163   8.558  22.071  0.00  0.00    +0.000 A 
ATOM     12  C   UNL     1       0.798   9.824  22.476  0.00  0.00    +0.000 A 
ATOM     13  N   UNL     1       0.570  10.830  21.630  0.00  0.00    +0.000 NA
ATOM     14  H   UNL     1       1.018  11.522  18.581  0.00  0.00    +0.000 HD
BRANCH   7  15
ATOM     15  C   UNL     1       0.758  12.987  20.001  0.00  0.00    +0.000 C 
BRANCH  15  16
ATOM     16  C   UNL     1      -0.493  13.877  20.005  0.00  0.00    +0.000 C 
BRANCH  16  18
ATOM     17  C   UNL     1      -2.722  13.232  20.420  0.00  0.00    +0.000 C 
ATOM     18  O   UNL     1      -1.426  13.391  20.981  0.00  0.00    +0.000 OA
ENDBRANCH  16  18
ENDBRANCH  15  16
ENDBRANCH   7  15
ENDBRANCH   1  10
BRANCH   5  19
ATOM     19  C   UNL     1       4.191   5.910  17.634  0.00  0.00    +0.000 C 
ATOM     20  O   UNL     1       4.613   7.015  17.274  0.00  0.00    +0.000 OA
ATOM     21  N   UNL     1       4.535   4.697  17.043  0.00  0.00    +0.000 N 
ATOM     22  H   UNL     1       3.970   3.874  17.266  0.00  0.00    +0.000 HD
BRANCH  21  23
ATOM     23  C   UNL     1       5.419   4.578  15.977  0.00  0.00    +0.000 A 
ATOM     24  C   UNL     1       5.118   4.301  14.664  0.00  0.00    +0.000 A 
ATOM     25  N   UNL     1       6.306   4.194  14.009  0.00  0.00    +0.000 N 
ATOM     26  C   UNL     1       6.476   3.800  12.630  0.00  0.00    +0.000 C 
ATOM     27  N   UNL     1       7.381   4.457  14.782  0.00  0.00    +0.000 NA
ATOM     28  C   UNL     1       6.845   4.709  15.996  0.00  0.00    +0.000 A 
BRANCH  28  29
ATOM     29  C   UNL     1       7.659   4.990  17.185  0.00  0.00    +0.000 C 
ATOM     30  N   UNL     1       7.680   6.303  17.587  0.00  0.00    +0.000 N 
ATOM     31  O   UNL     1       8.305   4.142  17.777  0.00  0.00    +0.000 OA
ATOM     32  H   UNL     1       7.177   6.994  17.044  0.00  0.00    +0.000 HD
ATOM     33  H   UNL     1       8.273   6.569  18.352  0.00  0.00    +0.000 HD
ENDBRANCH  28  29
ENDBRANCH  21  23
ENDBRANCH   5  19
TORSDOF 7
ENDMDL
