MODEL 1
REMARK VINA RESULT:      -6.8      0.000      0.000
REMARK  Name = 
REMARK  7 active torsions:
REMARK  status: ('A' for Active; 'I' for Inactive)
REMARK    1  A    between atoms: C_1  and  C_2
REMARK    2  A    between atoms: C_2  and  C_3
REMARK    3  A    between atoms: C_3  and  C_4
REMARK    4  A    between atoms: C_3  and  C_5
REMARK    5  A    between atoms: C_3  and  N_6
REMARK    6  A    between atoms: C_10  and  C_11
REMARK    7  A    between atoms: C_11  and  N_12
REMARK                            x       y       z     vdW  Elec       q    Type
REMARK                         _______ _______ _______ _____ _____    ______ ____
ROOT
ATOM      1  N   UNL     1       6.388   5.128  17.547  0.00  0.00    +0.000 N 
ATOM      2  N   UNL     1       7.696   4.790  17.647  0.00  0.00    +0.000 NA
ATOM      3  N   UNL     1       7.998   4.819  18.926  0.00  0.00    +0.000 NA
ATOM      4  N   UNL     1       6.918   5.177  19.661  0.00  0.00    +0.000 NA
ATOM      5  C   UNL     1       5.922   5.423  18.819  0.00  0.00    +0.000 A 
ENDROOT
BRANCH   1   6
ATOM      6  C   UNL     1       5.803   5.049  16.198  0.00  0.00    +0.000 C 
ATOM      7  C   UNL     1       5.112   6.328  15.704  0.00  0.00    +0.000 C 
ATOM      8  C   UNL     1       4.703   3.946  16.203  0.00  0.00    +0.000 C 
BRANCH   6  10
ATOM      9  C   UNL     1       6.343   4.037  13.846  0.00  0.00    +0.000 C 
ATOM     10  C   UNL     1       6.879   4.591  15.160  0.00  0.00    +0.000 C 
ENDBRANCH   6  10
ENDBRANCH   1   6
BRANCH   5  11
ATOM     11  C   UNL     1       4.564   5.901  19.267  0.00  0.00    +0.000 C 
BRANCH  11  12
ATOM     12  N   UNL     1       3.488   4.871  19.357  0.00  0.00    +0.000 NA
ATOM     13  C   UNL     1       2.350   5.358  20.158  0.00  0.00    +0.000 C 
ATOM     14  C   UNL     1       1.215   4.378  20.493  0.00  0.00    +0.000 C 
ATOM     15  S   UNL     1       1.795   2.832  21.235  0.00  0.00    +0.000 S 
ATOM     16  C   UNL     1       2.999   2.421  19.944  0.00  0.00    +0.000 C 
ATOM     17  C   UNL     1       4.014   3.552  19.745  0.00  0.00    +0.000 C 
ENDBRANCH  11  12
ENDBRANCH   5  11
TORSDOF 4
ENDMDL
MODEL 2
REMARK VINA RESULT:      -6.6      0.613      1.334
REMARK  Name = 
REMARK  7 active torsions:
REMARK  status: ('A' for Active; 'I' for Inactive)
REMARK    1  A    between atoms: C_1  and  C_2
REMARK    2  A    between atoms: C_2  and  C_3
REMARK    3  A    between atoms: C_3  and  C_4
REMARK    4  A    between atoms: C_3  and  C_5
REMARK    5  A    between atoms: C_3  and  N_6
REMARK    6  A    between atoms: C_10  and  C_11
REMARK    7  A    between atoms: C_11  and  N_12
REMARK                            x       y       z     vdW  Elec       q    Type
REMARK                         _______ _______ _______ _____ _____    ______ ____
ROOT
ATOM      1  N   UNL     1       6.370   5.258  17.554  0.00  0.00    +0.000 N 
ATOM      2  N   UNL     1       7.700   5.020  17.666  0.00  0.00    +0.000 NA
ATOM      3  N   UNL     1       7.958   4.912  18.950  0.00  0.00    +0.000 NA
ATOM      4  N   UNL     1       6.828   5.084  19.679  0.00  0.00    +0.000 NA
ATOM      5  C   UNL     1       5.841   5.351  18.832  0.00  0.00    +0.000 A 
ENDROOT
BRANCH   1   6
ATOM      6  C   UNL     1       5.836   5.301  16.182  0.00  0.00    +0.000 C 
ATOM      7  C   UNL     1       5.148   6.615  15.785  0.00  0.00    +0.000 C 
ATOM      8  C   UNL     1       4.752   4.192  16.041  0.00  0.00    +0.000 C 
BRANCH   6  10
ATOM      9  C   UNL     1       6.509   4.169  13.922  0.00  0.00    +0.000 C 
ATOM     10  C   UNL     1       6.957   4.954  15.148  0.00  0.00    +0.000 C 
ENDBRANCH   6  10
ENDBRANCH   1   6
BRANCH   5  11
ATOM     11  C   UNL     1       4.433   5.653  19.279  0.00  0.00    +0.000 C 
BRANCH  11  12
ATOM     12  N   UNL     1       3.653   4.517  19.850  0.00  0.00    +0.000 NA
ATOM     13  C   UNL     1       3.581   3.390  18.904  0.00  0.00    +0.000 C 
ATOM     14  C   UNL     1       2.685   2.192  19.253  0.00  0.00    +0.000 C 
ATOM     15  S   UNL     1       0.991   2.662  19.685  0.00  0.00    +0.000 S 
ATOM     16  C   UNL     1       1.431   3.872  20.961  0.00  0.00    +0.000 C 
ATOM     17  C   UNL     1       2.362   4.955  20.407  0.00  0.00    +0.000 C 
ENDBRANCH  11  12
ENDBRANCH   5  11
TORSDOF 4
ENDMDL
MODEL 3
REMARK VINA RESULT:      -6.1      2.552      5.462
REMARK  Name = 
REMARK  7 active torsions:
REMARK  status: ('A' for Active; 'I' for Inactive)
REMARK    1  A    between atoms: C_1  and  C_2
REMARK    2  A    between atoms: C_2  and  C_3
REMARK    3  A    between atoms: C_3  and  C_4
REMARK    4  A    between atoms: C_3  and  C_5
REMARK    5  A    between atoms: C_3  and  N_6
REMARK    6  A    between atoms: C_10  and  C_11
REMARK    7  A    between atoms: C_11  and  N_12
REMARK                            x       y       z     vdW  Elec       q    Type
REMARK                         _______ _______ _______ _____ _____    ______ ____
ROOT
ATOM      1  N   UNL     1       2.032   4.592  19.894  0.00  0.00    +0.000 N 
ATOM      2  N   UNL     1       1.598   5.242  21.002  0.00  0.00    +0.000 NA
ATOM      3  N   UNL     1       1.714   6.528  20.756  0.00  0.00    +0.000 NA
ATOM      4  N   UNL     1       2.222   6.731  19.516  0.00  0.00    +0.000 NA
ATOM      5  C   UNL     1       2.474   5.541  18.985  0.00  0.00    +0.000 A 
ENDROOT
BRANCH   1   6
ATOM      6  C   UNL     1       1.882   3.127  19.906  0.00  0.00    +0.000 C 
ATOM      7  C   UNL     1       0.877   2.561  18.893  0.00  0.00    +0.000 C 
ATOM      8  C   UNL     1       1.361   2.697  21.310  0.00  0.00    +0.000 C 
BRANCH   6  10
ATOM      9  C   UNL     1       3.477   1.695  18.406  0.00  0.00    +0.000 C 
ATOM     10  C   UNL     1       3.272   2.433  19.722  0.00  0.00    +0.000 C 
ENDBRANCH   6  10
ENDBRANCH   1   6
BRANCH   5  11
ATOM     11  C   UNL     1       3.098   5.363  17.625  0.00  0.00    +0.000 C 
BRANCH  11  12
ATOM     12  N   UNL     1       4.554   5.672  17.510  0.00  0.00    +0.000 NA
ATOM     13  C   UNL     1       5.141   5.037  16.317  0.00  0.00    +0.000 C 
ATOM     14  C   UNL     1       6.663   5.111  16.118  0.00  0.00    +0.000 C 
ATOM     15  S   UNL     1       7.604   4.558  17.561  0.00  0.00    +0.000 S 
ATOM     16  C   UNL     1       6.791   5.638  18.767  0.00  0.00    +0.000 C 
ATOM     17  C   UNL     1       5.273   5.429  18.772  0.00  0.00    +0.000 C 
ENDBRANCH  11  12
ENDBRANCH   5  11
TORSDOF 4
ENDMDL
MODEL 4
REMARK VINA RESULT:      -6.0      2.703      5.585
REMARK  Name = 
REMARK  7 active torsions:
REMARK  status: ('A' for Active; 'I' for Inactive)
REMARK    1  A    between atoms: C_1  and  C_2
REMARK    2  A    between atoms: C_2  and  C_3
REMARK    3  A    between atoms: C_3  and  C_4
REMARK    4  A    between atoms: C_3  and  C_5
REMARK    5  A    between atoms: C_3  and  N_6
REMARK    6  A    between atoms: C_10  and  C_11
REMARK    7  A    between atoms: C_11  and  N_12
REMARK                            x       y       z     vdW  Elec       q    Type
REMARK                         _______ _______ _______ _____ _____    ______ ____
ROOT
ATOM      1  N   UNL     1       3.051   2.838  19.709  0.00  0.00    +0.000 N 
ATOM      2  N   UNL     1       3.730   2.353  20.778  0.00  0.00    +0.000 NA
ATOM      3  N   UNL     1       4.983   2.227  20.405  0.00  0.00    +0.000 NA
ATOM      4  N   UNL     1       5.136   2.610  19.114  0.00  0.00    +0.000 NA
ATOM      5  C   UNL     1       3.938   2.945  18.649  0.00  0.00    +0.000 A 
ENDROOT
BRANCH   1   6
ATOM      6  C   UNL     1       1.634   3.167  19.941  0.00  0.00    +0.000 C 
ATOM      7  C   UNL     1       1.105   2.842  21.346  0.00  0.00    +0.000 C 
ATOM      8  C   UNL     1       0.767   2.329  18.955  0.00  0.00    +0.000 C 
BRANCH   6  10
ATOM      9  C   UNL     1       1.921   5.686  20.586  0.00  0.00    +0.000 C 
ATOM     10  C   UNL     1       1.358   4.668  19.603  0.00  0.00    +0.000 C 
ENDBRANCH   6  10
ENDBRANCH   1   6
BRANCH   5  11
ATOM     11  C   UNL     1       3.699   3.377  17.225  0.00  0.00    +0.000 C 
BRANCH  11  12
ATOM     12  N   UNL     1       4.498   4.538  16.734  0.00  0.00    +0.000 NA
ATOM     13  C   UNL     1       5.823   4.107  16.253  0.00  0.00    +0.000 C 
ATOM     14  C   UNL     1       6.846   5.182  15.857  0.00  0.00    +0.000 C 
ATOM     15  S   UNL     1       7.101   6.439  17.135  0.00  0.00    +0.000 S 
ATOM     16  C   UNL     1       5.356   6.878  17.345  0.00  0.00    +0.000 C 
ATOM     17  C   UNL     1       4.508   5.651  17.698  0.00  0.00    +0.000 C 
ENDBRANCH  11  12
ENDBRANCH   5  11
TORSDOF 4
ENDMDL
MODEL 5
REMARK VINA RESULT:      -5.9      1.792      3.333
REMARK  Name = 
REMARK  7 active torsions:
REMARK  status: ('A' for Active; 'I' for Inactive)
REMARK    1  A    between atoms: C_1  and  C_2
REMARK    2  A    between atoms: C_2  and  C_3
REMARK    3  A    between atoms: C_3  and  C_4
REMARK    4  A    between atoms: C_3  and  C_5
REMARK    5  A    between atoms: C_3  and  N_6
REMARK    6  A    between atoms: C_10  and  C_11
REMARK    7  A    between atoms: C_11  and  N_12
REMARK                            x       y       z     vdW  Elec       q    Type
REMARK                         _______ _______ _______ _____ _____    ______ ____
ROOT
ATOM      1  N   UNL     1       6.331   5.388  16.497  0.00  0.00    +0.000 N 
ATOM      2  N   UNL     1       7.445   5.459  15.727  0.00  0.00    +0.000 NA
ATOM      3  N   UNL     1       7.306   4.564  14.776  0.00  0.00    +0.000 NA
ATOM      4  N   UNL     1       6.129   3.904  14.912  0.00  0.00    +0.000 NA
ATOM      5  C   UNL     1       5.533   4.366  16.004  0.00  0.00    +0.000 A 
ENDROOT
BRANCH   1   6
ATOM      6  C   UNL     1       6.222   6.393  17.568  0.00  0.00    +0.000 C 
ATOM      7  C   UNL     1       4.925   7.216  17.569  0.00  0.00    +0.000 C 
ATOM      8  C   UNL     1       7.379   7.421  17.397  0.00  0.00    +0.000 C 
BRANCH   6  10
ATOM      9  C   UNL     1       7.866   5.675  19.472  0.00  0.00    +0.000 C 
ATOM     10  C   UNL     1       6.430   5.726  18.967  0.00  0.00    +0.000 C 
ENDBRANCH   6  10
ENDBRANCH   1   6
BRANCH   5  11
ATOM     11  C   UNL     1       4.219   3.833  16.512  0.00  0.00    +0.000 C 
BRANCH  11  12
ATOM     12  N   UNL     1       3.986   3.916  17.984  0.00  0.00    +0.000 NA
ATOM     13  C   UNL     1       4.255   2.624  18.640  0.00  0.00    +0.000 C 
ATOM     14  C   UNL     1       3.917   2.472  20.131  0.00  0.00    +0.000 C 
ATOM     15  S   UNL     1       2.222   2.960  20.539  0.00  0.00    +0.000 S 
ATOM     16  C   UNL     1       2.293   4.606  19.785  0.00  0.00    +0.000 C 
ATOM     17  C   UNL     1       2.686   4.529  18.306  0.00  0.00    +0.000 C 
ENDBRANCH  11  12
ENDBRANCH   5  11
TORSDOF 4
ENDMDL
MODEL 6
REMARK VINA RESULT:      -5.9      1.047      1.842
REMARK  Name = 
REMARK  7 active torsions:
REMARK  status: ('A' for Active; 'I' for Inactive)
REMARK    1  A    between atoms: C_1  and  C_2
REMARK    2  A    between atoms: C_2  and  C_3
REMARK    3  A    between atoms: C_3  and  C_4
REMARK    4  A    between atoms: C_3  and  C_5
REMARK    5  A    between atoms: C_3  and  N_6
REMARK    6  A    between atoms: C_10  and  C_11
REMARK    7  A    between atoms: C_11  and  N_12
REMARK                            x       y       z     vdW  Elec       q    Type
REMARK                         _______ _______ _______ _____ _____    ______ ____
ROOT
ATOM      1  N   UNL     1       6.457   4.813  16.771  0.00  0.00    +0.000 N 
ATOM      2  N   UNL     1       7.731   4.936  17.215  0.00  0.00    +0.000 NA
ATOM      3  N   UNL     1       7.718   4.627  18.493  0.00  0.00    +0.000 NA
ATOM      4  N   UNL     1       6.462   4.314  18.893  0.00  0.00    +0.000 NA
ATOM      5  C   UNL     1       5.656   4.473  17.850  0.00  0.00    +0.000 A 
ENDROOT
BRANCH   1   6
ATOM      6  C   UNL     1       6.258   5.003  15.324  0.00  0.00    +0.000 C 
ATOM      7  C   UNL     1       7.522   5.356  14.527  0.00  0.00    +0.000 C 
ATOM      8  C   UNL     1       5.276   6.194  15.114  0.00  0.00    +0.000 C 
BRANCH   6  10
ATOM      9  C   UNL     1       5.759   3.564  13.196  0.00  0.00    +0.000 C 
ATOM     10  C   UNL     1       5.567   3.748  14.696  0.00  0.00    +0.000 C 
ENDBRANCH   6  10
ENDBRANCH   1   6
BRANCH   5  11
ATOM     11  C   UNL     1       4.165   4.266  17.924  0.00  0.00    +0.000 C 
BRANCH  11  12
ATOM     12  N   UNL     1       3.566   4.183  19.289  0.00  0.00    +0.000 NA
ATOM     13  C   UNL     1       3.708   2.829  19.851  0.00  0.00    +0.000 C 
ATOM     14  C   UNL     1       3.012   2.509  21.183  0.00  0.00    +0.000 C 
ATOM     15  S   UNL     1       1.252   2.935  21.195  0.00  0.00    +0.000 S 
ATOM     16  C   UNL     1       1.451   4.655  20.663  0.00  0.00    +0.000 C 
ATOM     17  C   UNL     1       2.206   4.746  19.333  0.00  0.00    +0.000 C 
ENDBRANCH  11  12
ENDBRANCH   5  11
TORSDOF 4
ENDMDL
MODEL 7
REMARK VINA RESULT:      -5.9      2.668      5.404
REMARK  Name = 
REMARK  7 active torsions:
REMARK  status: ('A' for Active; 'I' for Inactive)
REMARK    1  A    between atoms: C_1  and  C_2
REMARK    2  A    between atoms: C_2  and  C_3
REMARK    3  A    between atoms: C_3  and  C_4
REMARK    4  A    between atoms: C_3  and  C_5
REMARK    5  A    between atoms: C_3  and  N_6
REMARK    6  A    between atoms: C_10  and  C_11
REMARK    7  A    between atoms: C_11  and  N_12
REMARK                            x       y       z     vdW  Elec       q    Type
REMARK                         _______ _______ _______ _____ _____    ______ ____
ROOT
ATOM      1  N   UNL     1       3.089   3.222  19.382  0.00  0.00    +0.000 N 
ATOM      2  N   UNL     1       3.433   1.940  19.657  0.00  0.00    +0.000 NA
ATOM      3  N   UNL     1       4.725   1.937  19.894  0.00  0.00    +0.000 NA
ATOM      4  N   UNL     1       5.234   3.187  19.772  0.00  0.00    +0.000 NA
ATOM      5  C   UNL     1       4.243   3.990  19.403  0.00  0.00    +0.000 A 
ENDROOT
BRANCH   1   6
ATOM      6  C   UNL     1       1.651   3.478  19.195  0.00  0.00    +0.000 C 
ATOM      7  C   UNL     1       0.810   2.252  18.807  0.00  0.00    +0.000 C 
ATOM      8  C   UNL     1       1.479   4.497  18.030  0.00  0.00    +0.000 C 
BRANCH   6  10
ATOM      9  C   UNL     1       1.347   5.641  20.634  0.00  0.00    +0.000 C 
ATOM     10  C   UNL     1       1.045   4.157  20.466  0.00  0.00    +0.000 C 
ENDBRANCH   6  10
ENDBRANCH   1   6
BRANCH   5  11
ATOM     11  C   UNL     1       4.436   5.457  19.117  0.00  0.00    +0.000 C 
BRANCH  11  12
ATOM     12  N   UNL     1       5.099   5.806  17.826  0.00  0.00    +0.000 NA
ATOM     13  C   UNL     1       4.659   4.910  16.742  0.00  0.00    +0.000 C 
ATOM     14  C   UNL     1       5.353   5.015  15.375  0.00  0.00    +0.000 C 
ATOM     15  S   UNL     1       7.158   4.921  15.475  0.00  0.00    +0.000 S 
ATOM     16  C   UNL     1       7.366   6.236  16.703  0.00  0.00    +0.000 C 
ATOM     17  C   UNL     1       6.557   5.950  17.973  0.00  0.00    +0.000 C 
ENDBRANCH  11  12
ENDBRANCH   5  11
TORSDOF 4
ENDMDL
MODEL 8
REMARK VINA RESULT:      -5.9      0.891      2.018
REMARK  Name = 
REMARK  7 active torsions:
REMARK  status: ('A' for Active; 'I' for Inactive)
REMARK    1  A    between atoms: C_1  and  C_2
REMARK    2  A    between atoms: C_2  and  C_3
REMARK    3  A    between atoms: C_3  and  C_4
REMARK    4  A    between atoms: C_3  and  C_5
REMARK    5  A    between atoms: C_3  and  N_6
REMARK    6  A    between atoms: C_10  and  C_11
REMARK    7  A    between atoms: C_11  and  N_12
REMARK                            x       y       z     vdW  Elec       q    Type
REMARK                         _______ _______ _______ _____ _____    ______ ____
ROOT
ATOM      1  N   UNL     1       6.532   4.899  17.690  0.00  0.00    +0.000 N 
ATOM      2  N   UNL     1       7.865   4.762  17.890  0.00  0.00    +0.000 NA
ATOM      3  N   UNL     1       8.078   4.954  19.172  0.00  0.00    +0.000 NA
ATOM      4  N   UNL     1       6.914   5.223  19.812  0.00  0.00    +0.000 NA
ATOM      5  C   UNL     1       5.949   5.244  18.901  0.00  0.00    +0.000 A 
ENDROOT
BRANCH   1   6
ATOM      6  C   UNL     1       6.050   4.609  16.329  0.00  0.00    +0.000 C 
ATOM      7  C   UNL     1       5.727   3.135  16.046  0.00  0.00    +0.000 C 
ATOM      8  C   UNL     1       7.168   5.003  15.318  0.00  0.00    +0.000 C 
BRANCH   6  10
ATOM      9  C   UNL     1       5.092   6.988  15.813  0.00  0.00    +0.000 C 
ATOM     10  C   UNL     1       4.813   5.501  15.984  0.00  0.00    +0.000 C 
ENDBRANCH   6  10
ENDBRANCH   1   6
BRANCH   5  11
ATOM     11  C   UNL     1       4.514   5.563  19.229  0.00  0.00    +0.000 C 
BRANCH  11  12
ATOM     12  N   UNL     1       3.688   4.448  19.780  0.00  0.00    +0.000 NA
ATOM     13  C   UNL     1       3.550   3.354  18.802  0.00  0.00    +0.000 C 
ATOM     14  C   UNL     1       2.603   2.190  19.130  0.00  0.00    +0.000 C 
ATOM     15  S   UNL     1       0.940   2.726  19.603  0.00  0.00    +0.000 S 
ATOM     16  C   UNL     1       1.454   3.875  20.906  0.00  0.00    +0.000 C 
ATOM     17  C   UNL     1       2.428   4.930  20.370  0.00  0.00    +0.000 C 
ENDBRANCH  11  12
ENDBRANCH   5  11
TORSDOF 4
ENDMDL
MODEL 9
REMARK VINA RESULT:      -5.9      2.125      3.396
REMARK  Name = 
REMARK  7 active torsions:
REMARK  status: ('A' for Active; 'I' for Inactive)
REMARK    1  A    between atoms: C_1  and  C_2
REMARK    2  A    between atoms: C_2  and  C_3
REMARK    3  A    between atoms: C_3  and  C_4
REMARK    4  A    between atoms: C_3  and  C_5
REMARK    5  A    between atoms: C_3  and  N_6
REMARK    6  A    between atoms: C_10  and  C_11
REMARK    7  A    between atoms: C_11  and  N_12
REMARK                            x       y       z     vdW  Elec       q    Type
REMARK                         _______ _______ _______ _____ _____    ______ ____
ROOT
ATOM      1  N   UNL     1       6.525   5.340  16.448  0.00  0.00    +0.000 N 
ATOM      2  N   UNL     1       7.230   5.789  15.381  0.00  0.00    +0.000 NA
ATOM      3  N   UNL     1       7.063   4.910  14.419  0.00  0.00    +0.000 NA
ATOM      4  N   UNL     1       6.270   3.893  14.837  0.00  0.00    +0.000 NA
ATOM      5  C   UNL     1       5.968   4.116  16.110  0.00  0.00    +0.000 A 
ENDROOT
BRANCH   1   6
ATOM      6  C   UNL     1       6.479   6.237  17.614  0.00  0.00    +0.000 C 
ATOM      7  C   UNL     1       6.911   5.607  18.947  0.00  0.00    +0.000 C 
ATOM      8  C   UNL     1       5.006   6.701  17.821  0.00  0.00    +0.000 C 
BRANCH   6  10
ATOM      9  C   UNL     1       8.328   7.906  18.415  0.00  0.00    +0.000 C 
ATOM     10  C   UNL     1       7.313   7.532  17.343  0.00  0.00    +0.000 C 
ENDBRANCH   6  10
ENDBRANCH   1   6
BRANCH   5  11
ATOM     11  C   UNL     1       5.140   3.166  16.937  0.00  0.00    +0.000 C 
BRANCH  11  12
ATOM     12  N   UNL     1       4.045   3.769  17.754  0.00  0.00    +0.000 NA
ATOM     13  C   UNL     1       4.106   3.306  19.151  0.00  0.00    +0.000 C 
ATOM     14  C   UNL     1       2.966   3.696  20.105  0.00  0.00    +0.000 C 
ATOM     15  S   UNL     1       1.322   3.301  19.460  0.00  0.00    +0.000 S 
ATOM     16  C   UNL     1       1.511   4.153  17.873  0.00  0.00    +0.000 C 
ATOM     17  C   UNL     1       2.731   3.639  17.102  0.00  0.00    +0.000 C 
ENDBRANCH  11  12
ENDBRANCH   5  11
TORSDOF 4
ENDMDL
