MODEL 1
REMARK VINA RESULT:      -7.3      0.000      0.000
REMARK  Name = 
REMARK  3 active torsions:
REMARK  status: ('A' for Active; 'I' for Inactive)
REMARK    1  A    between atoms: C_4  and  N_5
REMARK    2  A    between atoms: N_8  and  C_9
REMARK    3  A    between atoms: C_9  and  C_10
REMARK                            x       y       z     vdW  Elec       q    Type
REMARK                         _______ _______ _______ _____ _____    ______ ____
ROOT
ATOM      1  N   UNL     1       6.129   4.287  15.926  0.00  0.00    +0.000 N 
ATOM      2  C   UNL     1       7.037   4.661  17.022  0.00  0.00    +0.000 C 
ATOM      3  C   UNL     1       6.449   5.793  17.899  0.00  0.00    +0.000 C 
ATOM      4  N   UNL     1       5.045   5.587  18.343  0.00  0.00    +0.000 NA
ATOM      5  C   UNL     1       4.241   5.372  17.114  0.00  0.00    +0.000 C 
ATOM      6  C   UNL     1       4.696   4.176  16.245  0.00  0.00    +0.000 C 
ENDROOT
BRANCH   1  10
ATOM      7  C   UNL     1       7.328   4.493  11.894  0.00  0.00    +0.000 A 
ATOM      8  C   UNL     1       6.324   3.614  12.287  0.00  0.00    +0.000 A 
ATOM      9  C   UNL     1       5.925   3.559  13.625  0.00  0.00    +0.000 A 
ATOM     10  C   UNL     1       6.521   4.374  14.603  0.00  0.00    +0.000 A 
ATOM     11  C   UNL     1       7.527   5.250  14.176  0.00  0.00    +0.000 A 
ATOM     12  C   UNL     1       7.930   5.316  12.841  0.00  0.00    +0.000 A 
ENDBRANCH   1  10
BRANCH   4  13
ATOM     13  C   UNL     1       4.976   4.449  19.284  0.00  0.00    +0.000 C 
BRANCH  13  14
ATOM     14  C   UNL     1       3.584   4.010  19.660  0.00  0.00    +0.000 A 
ATOM     15  C   UNL     1       2.692   4.857  20.323  0.00  0.00    +0.000 A 
ATOM     16  C   UNL     1       1.441   4.379  20.700  0.00  0.00    +0.000 A 
ATOM     17  C   UNL     1       1.112   3.069  20.392  0.00  0.00    +0.000 A 
ATOM     18  N   UNL     1       1.939   2.222  19.742  0.00  0.00    +0.000 NA
ATOM     19  C   UNL     1       3.153   2.714  19.400  0.00  0.00    +0.000 A 
ENDBRANCH  13  14
ENDBRANCH   4  13
TORSDOF 3
ENDMDL
MODEL 2
REMARK VINA RESULT:      -7.3      0.058      1.102
REMARK  Name = 
REMARK  3 active torsions:
REMARK  status: ('A' for Active; 'I' for Inactive)
REMARK    1  A    between atoms: C_4  and  N_5
REMARK    2  A    between atoms: N_8  and  C_9
REMARK    3  A    between atoms: C_9  and  C_10
REMARK                            x       y       z     vdW  Elec       q    Type
REMARK                         _______ _______ _______ _____ _____    ______ ____
ROOT
ATOM      1  N   UNL     1       6.156   4.259  15.933  0.00  0.00    +0.000 N 
ATOM      2  C   UNL     1       7.072   4.644  17.017  0.00  0.00    +0.000 C 
ATOM      3  C   UNL     1       6.500   5.799  17.874  0.00  0.00    +0.000 C 
ATOM      4  N   UNL     1       5.096   5.616  18.329  0.00  0.00    +0.000 NA
ATOM      5  C   UNL     1       4.284   5.387  17.107  0.00  0.00    +0.000 C 
ATOM      6  C   UNL     1       4.723   4.170  16.260  0.00  0.00    +0.000 C 
ENDROOT
BRANCH   1  10
ATOM      7  C   UNL     1       7.327   4.497  11.894  0.00  0.00    +0.000 A 
ATOM      8  C   UNL     1       7.930   5.306  12.851  0.00  0.00    +0.000 A 
ATOM      9  C   UNL     1       7.543   5.213  14.191  0.00  0.00    +0.000 A 
ATOM     10  C   UNL     1       6.543   4.317  14.606  0.00  0.00    +0.000 A 
ATOM     11  C   UNL     1       5.957   3.514  13.620  0.00  0.00    +0.000 A 
ATOM     12  C   UNL     1       6.339   3.595  12.279  0.00  0.00    +0.000 A 
ENDBRANCH   1  10
BRANCH   4  13
ATOM     13  C   UNL     1       5.019   4.497  19.291  0.00  0.00    +0.000 C 
BRANCH  13  14
ATOM     14  C   UNL     1       3.624   4.063  19.662  0.00  0.00    +0.000 A 
ATOM     15  C   UNL     1       2.717   4.928  20.281  0.00  0.00    +0.000 A 
ATOM     16  C   UNL     1       1.463   4.456  20.656  0.00  0.00    +0.000 A 
ATOM     17  C   UNL     1       1.147   3.133  20.389  0.00  0.00    +0.000 A 
ATOM     18  N   UNL     1       1.988   2.270  19.781  0.00  0.00    +0.000 NA
ATOM     19  C   UNL     1       3.204   2.756  19.441  0.00  0.00    +0.000 A 
ENDBRANCH  13  14
ENDBRANCH   4  13
TORSDOF 3
ENDMDL
MODEL 3
REMARK VINA RESULT:      -7.1      0.660      1.104
REMARK  Name = 
REMARK  3 active torsions:
REMARK  status: ('A' for Active; 'I' for Inactive)
REMARK    1  A    between atoms: C_4  and  N_5
REMARK    2  A    between atoms: N_8  and  C_9
REMARK    3  A    between atoms: C_9  and  C_10
REMARK                            x       y       z     vdW  Elec       q    Type
REMARK                         _______ _______ _______ _____ _____    ______ ____
ROOT
ATOM      1  N   UNL     1       6.139   4.243  15.915  0.00  0.00    +0.000 N 
ATOM      2  C   UNL     1       7.046   4.602  17.016  0.00  0.00    +0.000 C 
ATOM      3  C   UNL     1       6.460   5.725  17.906  0.00  0.00    +0.000 C 
ATOM      4  N   UNL     1       5.055   5.515  18.347  0.00  0.00    +0.000 NA
ATOM      5  C   UNL     1       4.252   5.316  17.115  0.00  0.00    +0.000 C 
ATOM      6  C   UNL     1       4.706   4.130  16.232  0.00  0.00    +0.000 C 
ENDROOT
BRANCH   1  10
ATOM      7  C   UNL     1       7.340   4.495  11.886  0.00  0.00    +0.000 A 
ATOM      8  C   UNL     1       6.333   3.615  12.268  0.00  0.00    +0.000 A 
ATOM      9  C   UNL     1       5.933   3.545  13.605  0.00  0.00    +0.000 A 
ATOM     10  C   UNL     1       6.531   4.345  14.593  0.00  0.00    +0.000 A 
ATOM     11  C   UNL     1       7.540   5.224  14.178  0.00  0.00    +0.000 A 
ATOM     12  C   UNL     1       7.944   5.305  12.843  0.00  0.00    +0.000 A 
ENDBRANCH   1  10
BRANCH   4  13
ATOM     13  C   UNL     1       4.985   4.366  19.274  0.00  0.00    +0.000 C 
BRANCH  13  14
ATOM     14  C   UNL     1       3.594   3.966  19.695  0.00  0.00    +0.000 A 
ATOM     15  C   UNL     1       3.075   2.695  19.430  0.00  0.00    +0.000 A 
ATOM     16  C   UNL     1       1.763   2.399  19.787  0.00  0.00    +0.000 A 
ATOM     17  C   UNL     1       1.010   3.381  20.411  0.00  0.00    +0.000 A 
ATOM     18  N   UNL     1       1.477   4.615  20.697  0.00  0.00    +0.000 NA
ATOM     19  C   UNL     1       2.752   4.875  20.326  0.00  0.00    +0.000 A 
ENDBRANCH  13  14
ENDBRANCH   4  13
TORSDOF 3
ENDMDL
MODEL 4
REMARK VINA RESULT:      -7.1      0.689      1.565
REMARK  Name = 
REMARK  3 active torsions:
REMARK  status: ('A' for Active; 'I' for Inactive)
REMARK    1  A    between atoms: C_4  and  N_5
REMARK    2  A    between atoms: N_8  and  C_9
REMARK    3  A    between atoms: C_9  and  C_10
REMARK                            x       y       z     vdW  Elec       q    Type
REMARK                         _______ _______ _______ _____ _____    ______ ____
ROOT
ATOM      1  N   UNL     1       6.128   4.211  15.890  0.00  0.00    +0.000 N 
ATOM      2  C   UNL     1       7.045   4.585  16.977  0.00  0.00    +0.000 C 
ATOM      3  C   UNL     1       6.477   5.735  17.844  0.00  0.00    +0.000 C 
ATOM      4  N   UNL     1       5.073   5.552  18.298  0.00  0.00    +0.000 NA
ATOM      5  C   UNL     1       4.260   5.336  17.074  0.00  0.00    +0.000 C 
ATOM      6  C   UNL     1       4.695   4.124  16.217  0.00  0.00    +0.000 C 
ENDROOT
BRANCH   1  10
ATOM      7  C   UNL     1       7.297   4.478  11.853  0.00  0.00    +0.000 A 
ATOM      8  C   UNL     1       7.893   5.288  12.814  0.00  0.00    +0.000 A 
ATOM      9  C   UNL     1       7.506   5.186  14.153  0.00  0.00    +0.000 A 
ATOM     10  C   UNL     1       6.514   4.279  14.563  0.00  0.00    +0.000 A 
ATOM     11  C   UNL     1       5.936   3.475  13.573  0.00  0.00    +0.000 A 
ATOM     12  C   UNL     1       6.317   3.566  12.233  0.00  0.00    +0.000 A 
ENDBRANCH   1  10
BRANCH   4  13
ATOM     13  C   UNL     1       4.993   4.426  19.251  0.00  0.00    +0.000 C 
BRANCH  13  14
ATOM     14  C   UNL     1       3.601   4.065  19.703  0.00  0.00    +0.000 A 
ATOM     15  C   UNL     1       3.072   2.784  19.527  0.00  0.00    +0.000 A 
ATOM     16  C   UNL     1       1.759   2.523  19.908  0.00  0.00    +0.000 A 
ATOM     17  C   UNL     1       1.016   3.550  20.468  0.00  0.00    +0.000 A 
ATOM     18  N   UNL     1       1.493   4.797  20.667  0.00  0.00    +0.000 NA
ATOM     19  C   UNL     1       2.769   5.022  20.274  0.00  0.00    +0.000 A 
ENDBRANCH  13  14
ENDBRANCH   4  13
TORSDOF 3
ENDMDL
MODEL 5
REMARK VINA RESULT:      -6.9      1.375      7.239
REMARK  Name = 
REMARK  3 active torsions:
REMARK  status: ('A' for Active; 'I' for Inactive)
REMARK    1  A    between atoms: C_4  and  N_5
REMARK    2  A    between atoms: N_8  and  C_9
REMARK    3  A    between atoms: C_9  and  C_10
REMARK                            x       y       z     vdW  Elec       q    Type
REMARK                         _______ _______ _______ _____ _____    ______ ____
ROOT
ATOM      1  N   UNL     1       4.203   3.599  18.536  0.00  0.00    +0.000 N 
ATOM      2  C   UNL     1       3.916   3.653  17.094  0.00  0.00    +0.000 C 
ATOM      3  C   UNL     1       4.407   4.975  16.456  0.00  0.00    +0.000 C 
ATOM      4  N   UNL     1       5.803   5.361  16.791  0.00  0.00    +0.000 NA
ATOM      5  C   UNL     1       5.883   5.406  18.273  0.00  0.00    +0.000 C 
ATOM      6  C   UNL     1       5.523   4.078  18.979  0.00  0.00    +0.000 C 
ENDROOT
BRANCH   1  10
ATOM      7  C   UNL     1       1.141   3.078  21.379  0.00  0.00    +0.000 A 
ATOM      8  C   UNL     1       2.426   2.614  21.636  0.00  0.00    +0.000 A 
ATOM      9  C   UNL     1       3.439   2.801  20.691  0.00  0.00    +0.000 A 
ATOM     10  C   UNL     1       3.193   3.448  19.468  0.00  0.00    +0.000 A 
ATOM     11  C   UNL     1       1.890   3.906  19.241  0.00  0.00    +0.000 A 
ATOM     12  C   UNL     1       0.871   3.729  20.179  0.00  0.00    +0.000 A 
ENDBRANCH   1  10
BRANCH   4  13
ATOM     13  C   UNL     1       6.750   4.400  16.190  0.00  0.00    +0.000 C 
BRANCH  13  14
ATOM     14  C   UNL     1       6.877   4.476  14.690  0.00  0.00    +0.000 A 
ATOM     15  C   UNL     1       6.190   3.605  13.841  0.00  0.00    +0.000 A 
ATOM     16  C   UNL     1       6.392   3.681  12.466  0.00  0.00    +0.000 A 
ATOM     17  C   UNL     1       7.268   4.637  11.979  0.00  0.00    +0.000 A 
ATOM     18  N   UNL     1       7.942   5.505  12.763  0.00  0.00    +0.000 NA
ATOM     19  C   UNL     1       7.733   5.397  14.095  0.00  0.00    +0.000 A 
ENDBRANCH  13  14
ENDBRANCH   4  13
TORSDOF 3
ENDMDL
MODEL 6
REMARK VINA RESULT:      -6.9      1.356      7.150
REMARK  Name = 
REMARK  3 active torsions:
REMARK  status: ('A' for Active; 'I' for Inactive)
REMARK    1  A    between atoms: C_4  and  N_5
REMARK    2  A    between atoms: N_8  and  C_9
REMARK    3  A    between atoms: C_9  and  C_10
REMARK                            x       y       z     vdW  Elec       q    Type
REMARK                         _______ _______ _______ _____ _____    ______ ____
ROOT
ATOM      1  N   UNL     1       4.295   3.684  18.513  0.00  0.00    +0.000 N 
ATOM      2  C   UNL     1       4.051   3.730  17.064  0.00  0.00    +0.000 C 
ATOM      3  C   UNL     1       4.494   5.078  16.445  0.00  0.00    +0.000 C 
ATOM      4  N   UNL     1       5.858   5.533  16.826  0.00  0.00    +0.000 NA
ATOM      5  C   UNL     1       5.889   5.574  18.310  0.00  0.00    +0.000 C 
ATOM      6  C   UNL     1       5.574   4.226  19.000  0.00  0.00    +0.000 C 
ENDROOT
BRANCH   1  10
ATOM      7  C   UNL     1       1.144   3.114  21.250  0.00  0.00    +0.000 A 
ATOM      8  C   UNL     1       0.934   3.822  20.072  0.00  0.00    +0.000 A 
ATOM      9  C   UNL     1       1.982   3.997  19.164  0.00  0.00    +0.000 A 
ATOM     10  C   UNL     1       3.264   3.477  19.413  0.00  0.00    +0.000 A 
ATOM     11  C   UNL     1       3.443   2.767  20.606  0.00  0.00    +0.000 A 
ATOM     12  C   UNL     1       2.402   2.582  21.518  0.00  0.00    +0.000 A 
ENDBRANCH   1  10
BRANCH   4  13
ATOM     13  C   UNL     1       6.871   4.622  16.253  0.00  0.00    +0.000 C 
BRANCH  13  14
ATOM     14  C   UNL     1       6.918   4.581  14.747  0.00  0.00    +0.000 A 
ATOM     15  C   UNL     1       6.196   3.640  14.007  0.00  0.00    +0.000 A 
ATOM     16  C   UNL     1       6.324   3.609  12.622  0.00  0.00    +0.000 A 
ATOM     17  C   UNL     1       7.162   4.529  12.014  0.00  0.00    +0.000 A 
ATOM     18  N   UNL     1       7.867   5.462  12.690  0.00  0.00    +0.000 NA
ATOM     19  C   UNL     1       7.730   5.458  14.036  0.00  0.00    +0.000 A 
ENDBRANCH  13  14
ENDBRANCH   4  13
TORSDOF 3
ENDMDL
MODEL 7
REMARK VINA RESULT:      -6.9      1.224      1.935
REMARK  Name = 
REMARK  3 active torsions:
REMARK  status: ('A' for Active; 'I' for Inactive)
REMARK    1  A    between atoms: C_4  and  N_5
REMARK    2  A    between atoms: N_8  and  C_9
REMARK    3  A    between atoms: C_9  and  C_10
REMARK                            x       y       z     vdW  Elec       q    Type
REMARK                         _______ _______ _______ _____ _____    ______ ____
ROOT
ATOM      1  N   UNL     1       5.000   4.912  15.659  0.00  0.00    +0.000 N 
ATOM      2  C   UNL     1       4.463   3.849  16.521  0.00  0.00    +0.000 C 
ATOM      3  C   UNL     1       4.982   3.966  17.976  0.00  0.00    +0.000 C 
ATOM      4  N   UNL     1       4.874   5.322  18.579  0.00  0.00    +0.000 NA
ATOM      5  C   UNL     1       5.591   6.247  17.665  0.00  0.00    +0.000 C 
ATOM      6  C   UNL     1       5.047   6.274  16.217  0.00  0.00    +0.000 C 
ENDROOT
BRANCH   1  10
ATOM      7  C   UNL     1       7.271   4.082  12.210  0.00  0.00    +0.000 A 
ATOM      8  C   UNL     1       7.754   4.954  13.179  0.00  0.00    +0.000 A 
ATOM      9  C   UNL     1       6.999   5.216  14.326  0.00  0.00    +0.000 A 
ATOM     10  C   UNL     1       5.743   4.620  14.529  0.00  0.00    +0.000 A 
ATOM     11  C   UNL     1       5.285   3.744  13.538  0.00  0.00    +0.000 A 
ATOM     12  C   UNL     1       6.033   3.472  12.390  0.00  0.00    +0.000 A 
ENDBRANCH   1  10
BRANCH   4  13
ATOM     13  C   UNL     1       3.453   5.680  18.765  0.00  0.00    +0.000 C 
BRANCH  13  14
ATOM     14  C   UNL     1       2.631   4.671  19.526  0.00  0.00    +0.000 A 
ATOM     15  C   UNL     1       1.599   3.947  18.923  0.00  0.00    +0.000 A 
ATOM     16  C   UNL     1       0.833   3.073  19.688  0.00  0.00    +0.000 A 
ATOM     17  C   UNL     1       1.130   2.938  21.035  0.00  0.00    +0.000 A 
ATOM     18  N   UNL     1       2.126   3.608  21.653  0.00  0.00    +0.000 NA
ATOM     19  C   UNL     1       2.844   4.459  20.883  0.00  0.00    +0.000 A 
ENDBRANCH  13  14
ENDBRANCH   4  13
TORSDOF 3
ENDMDL
MODEL 8
REMARK VINA RESULT:      -6.9      1.226      1.605
REMARK  Name = 
REMARK  3 active torsions:
REMARK  status: ('A' for Active; 'I' for Inactive)
REMARK    1  A    between atoms: C_4  and  N_5
REMARK    2  A    between atoms: N_8  and  C_9
REMARK    3  A    between atoms: C_9  and  C_10
REMARK                            x       y       z     vdW  Elec       q    Type
REMARK                         _______ _______ _______ _____ _____    ______ ____
ROOT
ATOM      1  N   UNL     1       4.981   4.913  15.744  0.00  0.00    +0.000 N 
ATOM      2  C   UNL     1       4.444   3.822  16.572  0.00  0.00    +0.000 C 
ATOM      3  C   UNL     1       4.969   3.888  18.027  0.00  0.00    +0.000 C 
ATOM      4  N   UNL     1       4.868   5.222  18.677  0.00  0.00    +0.000 NA
ATOM      5  C   UNL     1       5.584   6.176  17.793  0.00  0.00    +0.000 C 
ATOM      6  C   UNL     1       5.035   6.254  16.349  0.00  0.00    +0.000 C 
ENDROOT
BRANCH   1  10
ATOM      7  C   UNL     1       7.219   4.074  12.276  0.00  0.00    +0.000 A 
ATOM      8  C   UNL     1       5.970   3.493  12.467  0.00  0.00    +0.000 A 
ATOM      9  C   UNL     1       5.229   3.785  13.615  0.00  0.00    +0.000 A 
ATOM     10  C   UNL     1       5.718   4.657  14.602  0.00  0.00    +0.000 A 
ATOM     11  C   UNL     1       6.977   5.229  14.381  0.00  0.00    +0.000 A 
ATOM     12  C   UNL     1       7.724   4.948  13.235  0.00  0.00    +0.000 A 
ENDBRANCH   1  10
BRANCH   4  13
ATOM     13  C   UNL     1       3.449   5.578  18.881  0.00  0.00    +0.000 C 
BRANCH  13  14
ATOM     14  C   UNL     1       2.642   4.574  19.663  0.00  0.00    +0.000 A 
ATOM     15  C   UNL     1       1.582   3.865  19.090  0.00  0.00    +0.000 A 
ATOM     16  C   UNL     1       0.831   2.995  19.875  0.00  0.00    +0.000 A 
ATOM     17  C   UNL     1       1.171   2.848  21.210  0.00  0.00    +0.000 A 
ATOM     18  N   UNL     1       2.195   3.503  21.799  0.00  0.00    +0.000 NA
ATOM     19  C   UNL     1       2.897   4.351  21.012  0.00  0.00    +0.000 A 
ENDBRANCH  13  14
ENDBRANCH   4  13
TORSDOF 3
ENDMDL
MODEL 9
REMARK VINA RESULT:      -6.8      1.150      1.809
REMARK  Name = 
REMARK  3 active torsions:
REMARK  status: ('A' for Active; 'I' for Inactive)
REMARK    1  A    between atoms: C_4  and  N_5
REMARK    2  A    between atoms: N_8  and  C_9
REMARK    3  A    between atoms: C_9  and  C_10
REMARK                            x       y       z     vdW  Elec       q    Type
REMARK                         _______ _______ _______ _____ _____    ______ ____
ROOT
ATOM      1  N   UNL     1       4.996   4.935  15.648  0.00  0.00    +0.000 N 
ATOM      2  C   UNL     1       4.443   3.878  16.509  0.00  0.00    +0.000 C 
ATOM      3  C   UNL     1       4.952   3.993  17.966  0.00  0.00    +0.000 C 
ATOM      4  N   UNL     1       4.854   5.351  18.566  0.00  0.00    +0.000 NA
ATOM      5  C   UNL     1       5.586   6.267  17.656  0.00  0.00    +0.000 C 
ATOM      6  C   UNL     1       5.053   6.297  16.205  0.00  0.00    +0.000 C 
ENDROOT
BRANCH   1  10
ATOM      7  C   UNL     1       7.283   4.075  12.217  0.00  0.00    +0.000 A 
ATOM      8  C   UNL     1       7.765   4.950  13.185  0.00  0.00    +0.000 A 
ATOM      9  C   UNL     1       7.005   5.222  14.325  0.00  0.00    +0.000 A 
ATOM     10  C   UNL     1       5.745   4.633  14.525  0.00  0.00    +0.000 A 
ATOM     11  C   UNL     1       5.288   3.754  13.535  0.00  0.00    +0.000 A 
ATOM     12  C   UNL     1       6.041   3.472  12.394  0.00  0.00    +0.000 A 
ENDBRANCH   1  10
BRANCH   4  13
ATOM     13  C   UNL     1       3.435   5.723  18.742  0.00  0.00    +0.000 C 
BRANCH  13  14
ATOM     14  C   UNL     1       2.608   4.745  19.537  0.00  0.00    +0.000 A 
ATOM     15  C   UNL     1       2.853   4.493  20.889  0.00  0.00    +0.000 A 
ATOM     16  C   UNL     1       2.098   3.535  21.559  0.00  0.00    +0.000 A 
ATOM     17  C   UNL     1       1.109   2.864  20.858  0.00  0.00    +0.000 A 
ATOM     18  N   UNL     1       0.831   3.087  19.555  0.00  0.00    +0.000 NA
ATOM     19  C   UNL     1       1.592   4.015  18.930  0.00  0.00    +0.000 A 
ENDBRANCH  13  14
ENDBRANCH   4  13
TORSDOF 3
ENDMDL
