MODEL 1
REMARK VINA RESULT:      -8.7      0.000      0.000
REMARK  Name = 
REMARK  4 active torsions:
REMARK  status: ('A' for Active; 'I' for Inactive)
REMARK    1  A    between atoms: S_2  and  N_4
REMARK    2  A    between atoms: S_2  and  C_22
REMARK    3  A    between atoms: N_4  and  C_5
REMARK    4  A    between atoms: C_8  and  C_9
REMARK                            x       y       z     vdW  Elec       q    Type
REMARK                         _______ _______ _______ _____ _____    ______ ____
ROOT
ATOM      1  C   UNL     1       2.571   5.777  19.184  0.00  0.00    +0.000 A 
ATOM      2  C   UNL     1       1.989   5.773  20.447  0.00  0.00    +0.000 A 
ATOM      3  C   UNL     1       1.408   6.944  20.955  0.00  0.00    +0.000 A 
ATOM      4  C   UNL     1       1.384   8.139  20.206  0.00  0.00    +0.000 A 
ATOM      5  C   UNL     1       1.955   8.102  18.916  0.00  0.00    +0.000 A 
ATOM      6 CL   UNL     1       2.043   9.476  17.860  0.00  0.00    +0.000 Cl
ATOM      7  C   UNL     1       2.544   6.931  18.414  0.00  0.00    +0.000 A 
ENDROOT
BRANCH   4   8
ATOM      8  C   UNL     1       0.779   9.374  20.757  0.00  0.00    +0.000 A 
ATOM      9  N   UNL     1       1.076  10.589  20.350  0.00  0.00    +0.000 NA
ATOM     10  C   UNL     1       0.456  11.543  21.128  0.00  0.00    +0.000 A 
ATOM     11  C   UNL     1       0.634  12.937  21.015  0.00  0.00    +0.000 A 
ATOM     12  C   UNL     1      -0.062  13.796  21.871  0.00  0.00    +0.000 A 
ATOM     13  C   UNL     1      -0.941  13.277  22.815  0.00  0.00    +0.000 A 
ATOM     14 CL   UNL     1      -1.801  14.355  23.848  0.00  0.00    +0.000 Cl
ATOM     15  C   UNL     1      -1.136  11.898  22.951  0.00  0.00    +0.000 A 
ATOM     16  C   UNL     1      -0.409  11.047  22.102  0.00  0.00    +0.000 A 
ATOM     17  S   UNL     1      -0.370   9.326  22.046  0.00  0.00    +0.000 S 
ENDBRANCH   4   8
BRANCH   1  18
ATOM     18  N   UNL     1       3.217   4.611  18.700  0.00  0.00    +0.000 N 
ATOM     19  H   UNL     1       2.698   3.734  18.682  0.00  0.00    +0.000 HD
BRANCH  18  21
ATOM     20  O   UNL     1       5.345   5.524  19.700  0.00  0.00    +0.000 OA
ATOM     21  S   UNL     1       4.871   4.394  18.933  0.00  0.00    +0.000 S 
ATOM     22  O   UNL     1       5.077   3.043  19.411  0.00  0.00    +0.000 OA
BRANCH  21  23
ATOM     23  C   UNL     1       5.594   4.515  17.316  0.00  0.00    +0.000 A 
ATOM     24  C   UNL     1       4.765   4.319  16.200  0.00  0.00    +0.000 A 
ATOM     25  C   UNL     1       5.304   4.312  14.914  0.00  0.00    +0.000 A 
ATOM     26  C   UNL     1       6.671   4.508  14.732  0.00  0.00    +0.000 A 
ATOM     27  C   UNL     1       7.498   4.712  15.837  0.00  0.00    +0.000 A 
ATOM     28  C   UNL     1       6.967   4.714  17.135  0.00  0.00    +0.000 A 
ATOM     29 CL   UNL     1       8.076   5.002  18.426  0.00  0.00    +0.000 Cl
ENDBRANCH  21  23
ENDBRANCH  18  21
ENDBRANCH   1  18
TORSDOF 4
ENDMDL
MODEL 2
REMARK VINA RESULT:      -8.5      1.934      2.264
REMARK  Name = 
REMARK  4 active torsions:
REMARK  status: ('A' for Active; 'I' for Inactive)
REMARK    1  A    between atoms: S_2  and  N_4
REMARK    2  A    between atoms: S_2  and  C_22
REMARK    3  A    between atoms: N_4  and  C_5
REMARK    4  A    between atoms: C_8  and  C_9
REMARK                            x       y       z     vdW  Elec       q    Type
REMARK                         _______ _______ _______ _____ _____    ______ ____
ROOT
ATOM      1  C   UNL     1       2.741   6.204  18.849  0.00  0.00    +0.000 A 
ATOM      2  C   UNL     1       2.801   7.001  17.710  0.00  0.00    +0.000 A 
ATOM      3  C   UNL     1       2.309   8.313  17.746  0.00  0.00    +0.000 A 
ATOM      4  C   UNL     1       1.758   8.863  18.923  0.00  0.00    +0.000 A 
ATOM      5  C   UNL     1       1.739   8.038  20.070  0.00  0.00    +0.000 A 
ATOM      6 CL   UNL     1       1.078   8.528  21.597  0.00  0.00    +0.000 Cl
ATOM      7  C   UNL     1       2.224   6.722  20.028  0.00  0.00    +0.000 A 
ENDROOT
BRANCH   4   8
ATOM      8  C   UNL     1       1.229  10.245  18.947  0.00  0.00    +0.000 A 
ATOM      9  N   UNL     1       1.931  11.312  18.632  0.00  0.00    +0.000 NA
ATOM     10  C   UNL     1       1.218  12.469  18.869  0.00  0.00    +0.000 A 
ATOM     11  C   UNL     1       1.711  13.781  18.722  0.00  0.00    +0.000 A 
ATOM     12  C   UNL     1       0.878  14.869  18.995  0.00  0.00    +0.000 A 
ATOM     13  C   UNL     1      -0.439  14.655  19.390  0.00  0.00    +0.000 A 
ATOM     14 CL   UNL     1      -1.455  16.011  19.704  0.00  0.00    +0.000 Cl
ATOM     15  C   UNL     1      -0.955  13.364  19.545  0.00  0.00    +0.000 A 
ATOM     16  C   UNL     1      -0.095  12.281  19.293  0.00  0.00    +0.000 A 
ATOM     17  S   UNL     1      -0.389  10.591  19.444  0.00  0.00    +0.000 S 
ENDBRANCH   4   8
BRANCH   1  18
ATOM     18  N   UNL     1       3.177   4.857  18.793  0.00  0.00    +0.000 N 
ATOM     19  H   UNL     1       2.548   4.124  19.119  0.00  0.00    +0.000 HD
BRANCH  18  21
ATOM     20  O   UNL     1       5.393   5.556  19.775  0.00  0.00    +0.000 OA
ATOM     21  S   UNL     1       4.803   4.477  19.014  0.00  0.00    +0.000 S 
ATOM     22  O   UNL     1       4.878   3.113  19.494  0.00  0.00    +0.000 OA
BRANCH  21  23
ATOM     23  C   UNL     1       5.522   4.523  17.391  0.00  0.00    +0.000 A 
ATOM     24  C   UNL     1       4.699   4.234  16.291  0.00  0.00    +0.000 A 
ATOM     25  C   UNL     1       5.238   4.167  15.006  0.00  0.00    +0.000 A 
ATOM     26  C   UNL     1       6.598   4.393  14.810  0.00  0.00    +0.000 A 
ATOM     27  C   UNL     1       7.419   4.689  15.899  0.00  0.00    +0.000 A 
ATOM     28  C   UNL     1       6.888   4.752  17.196  0.00  0.00    +0.000 A 
ATOM     29 CL   UNL     1       7.988   5.151  18.466  0.00  0.00    +0.000 Cl
ENDBRANCH  21  23
ENDBRANCH  18  21
ENDBRANCH   1  18
TORSDOF 4
ENDMDL
MODEL 3
REMARK VINA RESULT:      -8.3      3.059      3.834
REMARK  Name = 
REMARK  4 active torsions:
REMARK  status: ('A' for Active; 'I' for Inactive)
REMARK    1  A    between atoms: S_2  and  N_4
REMARK    2  A    between atoms: S_2  and  C_22
REMARK    3  A    between atoms: N_4  and  C_5
REMARK    4  A    between atoms: C_8  and  C_9
REMARK                            x       y       z     vdW  Elec       q    Type
REMARK                         _______ _______ _______ _____ _____    ______ ____
ROOT
ATOM      1  C   UNL     1       2.710   6.969  18.386  0.00  0.00    +0.000 A 
ATOM      2  C   UNL     1       2.507   8.007  17.482  0.00  0.00    +0.000 A 
ATOM      3  C   UNL     1       1.809   9.157  17.880  0.00  0.00    +0.000 A 
ATOM      4  C   UNL     1       1.311   9.300  19.192  0.00  0.00    +0.000 A 
ATOM      5  C   UNL     1       1.560   8.242  20.094  0.00  0.00    +0.000 A 
ATOM      6 CL   UNL     1       1.005   8.225  21.737  0.00  0.00    +0.000 Cl
ATOM      7  C   UNL     1       2.251   7.089  19.690  0.00  0.00    +0.000 A 
ENDROOT
BRANCH   4   8
ATOM      8  C   UNL     1       0.564  10.512  19.598  0.00  0.00    +0.000 A 
ATOM      9  N   UNL     1       1.064  11.474  20.344  0.00  0.00    +0.000 NA
ATOM     10  C   UNL     1       0.101  12.409  20.665  0.00  0.00    +0.000 A 
ATOM     11  C   UNL     1       0.284  13.514  21.521  0.00  0.00    +0.000 A 
ATOM     12  C   UNL     1      -0.779  14.388  21.760  0.00  0.00    +0.000 A 
ATOM     13  C   UNL     1      -2.006  14.179  21.139  0.00  0.00    +0.000 A 
ATOM     14 CL   UNL     1      -3.298  15.280  21.435  0.00  0.00    +0.000 Cl
ATOM     15  C   UNL     1      -2.217  13.090  20.287  0.00  0.00    +0.000 A 
ATOM     16  C   UNL     1      -1.146  12.205  20.078  0.00  0.00    +0.000 A 
ATOM     17  S   UNL     1      -1.086  10.755  19.150  0.00  0.00    +0.000 S 
ENDBRANCH   4   8
BRANCH   1  18
ATOM     18  N   UNL     1       3.356   5.781  17.963  0.00  0.00    +0.000 N 
ATOM     19  H   UNL     1       4.186   5.856  17.375  0.00  0.00    +0.000 HD
BRANCH  18  21
ATOM     20  O   UNL     1       1.140   4.801  17.261  0.00  0.00    +0.000 OA
ATOM     21  S   UNL     1       2.463   4.383  17.669  0.00  0.00    +0.000 S 
ATOM     22  O   UNL     1       3.257   3.522  16.818  0.00  0.00    +0.000 OA
BRANCH  21  23
ATOM     23  C   UNL     1       2.301   3.587  19.248  0.00  0.00    +0.000 A 
ATOM     24  C   UNL     1       1.014   3.444  19.791  0.00  0.00    +0.000 A 
ATOM     25  C   UNL     1       0.845   2.910  21.069  0.00  0.00    +0.000 A 
ATOM     26  C   UNL     1       1.954   2.510  21.809  0.00  0.00    +0.000 A 
ATOM     27  C   UNL     1       3.235   2.642  21.269  0.00  0.00    +0.000 A 
ATOM     28  C   UNL     1       3.417   3.183  19.989  0.00  0.00    +0.000 A 
ATOM     29 CL   UNL     1       5.041   3.277  19.409  0.00  0.00    +0.000 Cl
ENDBRANCH  21  23
ENDBRANCH  18  21
ENDBRANCH   1  18
TORSDOF 4
ENDMDL
MODEL 4
REMARK VINA RESULT:      -8.3      1.993      2.456
REMARK  Name = 
REMARK  4 active torsions:
REMARK  status: ('A' for Active; 'I' for Inactive)
REMARK    1  A    between atoms: S_2  and  N_4
REMARK    2  A    between atoms: S_2  and  C_22
REMARK    3  A    between atoms: N_4  and  C_5
REMARK    4  A    between atoms: C_8  and  C_9
REMARK                            x       y       z     vdW  Elec       q    Type
REMARK                         _______ _______ _______ _____ _____    ______ ____
ROOT
ATOM      1  C   UNL     1       2.724   6.214  18.855  0.00  0.00    +0.000 A 
ATOM      2  C   UNL     1       2.788   7.086  17.773  0.00  0.00    +0.000 A 
ATOM      3  C   UNL     1       2.306   8.397  17.899  0.00  0.00    +0.000 A 
ATOM      4  C   UNL     1       1.762   8.869  19.113  0.00  0.00    +0.000 A 
ATOM      5  C   UNL     1       1.738   7.968  20.200  0.00  0.00    +0.000 A 
ATOM      6 CL   UNL     1       1.085   8.357  21.760  0.00  0.00    +0.000 Cl
ATOM      7  C   UNL     1       2.213   6.655  20.067  0.00  0.00    +0.000 A 
ENDROOT
BRANCH   4   8
ATOM      8  C   UNL     1       1.243  10.251  19.232  0.00  0.00    +0.000 A 
ATOM      9  N   UNL     1       0.157  10.579  19.897  0.00  0.00    +0.000 NA
ATOM     10  C   UNL     1      -0.150  11.913  19.727  0.00  0.00    +0.000 A 
ATOM     11  C   UNL     1      -1.296  12.562  20.230  0.00  0.00    +0.000 A 
ATOM     12  C   UNL     1      -1.484  13.925  19.985  0.00  0.00    +0.000 A 
ATOM     13  C   UNL     1      -0.533  14.641  19.265  0.00  0.00    +0.000 A 
ATOM     14 CL   UNL     1      -0.775  16.324  18.990  0.00  0.00    +0.000 Cl
ATOM     15  C   UNL     1       0.613  14.023  18.753  0.00  0.00    +0.000 A 
ATOM     16  C   UNL     1       0.774  12.646  18.985  0.00  0.00    +0.000 A 
ATOM     17  S   UNL     1       2.019  11.583  18.452  0.00  0.00    +0.000 S 
ENDBRANCH   4   8
BRANCH   1  18
ATOM     18  N   UNL     1       3.149   4.871  18.705  0.00  0.00    +0.000 N 
ATOM     19  H   UNL     1       2.504   4.121  18.953  0.00  0.00    +0.000 HD
BRANCH  18  21
ATOM     20  O   UNL     1       5.361   5.506  19.740  0.00  0.00    +0.000 OA
ATOM     21  S   UNL     1       4.765   4.456  18.944  0.00  0.00    +0.000 S 
ATOM     22  O   UNL     1       4.807   3.080  19.391  0.00  0.00    +0.000 OA
BRANCH  21  23
ATOM     23  C   UNL     1       5.511   4.528  17.334  0.00  0.00    +0.000 A 
ATOM     24  C   UNL     1       4.702   4.281  16.214  0.00  0.00    +0.000 A 
ATOM     25  C   UNL     1       5.261   4.235  14.937  0.00  0.00    +0.000 A 
ATOM     26  C   UNL     1       6.628   4.441  14.769  0.00  0.00    +0.000 A 
ATOM     27  C   UNL     1       7.436   4.694  15.878  0.00  0.00    +0.000 A 
ATOM     28  C   UNL     1       6.885   4.736  17.167  0.00  0.00    +0.000 A 
ATOM     29 CL   UNL     1       7.970   5.084  18.464  0.00  0.00    +0.000 Cl
ENDBRANCH  21  23
ENDBRANCH  18  21
ENDBRANCH   1  18
TORSDOF 4
ENDMDL
MODEL 5
REMARK VINA RESULT:      -8.3      0.834      1.237
REMARK  Name = 
REMARK  4 active torsions:
REMARK  status: ('A' for Active; 'I' for Inactive)
REMARK    1  A    between atoms: S_2  and  N_4
REMARK    2  A    between atoms: S_2  and  C_22
REMARK    3  A    between atoms: N_4  and  C_5
REMARK    4  A    between atoms: C_8  and  C_9
REMARK                            x       y       z     vdW  Elec       q    Type
REMARK                         _______ _______ _______ _____ _____    ______ ____
ROOT
ATOM      1  C   UNL     1       2.533   5.895  19.170  0.00  0.00    +0.000 A 
ATOM      2  C   UNL     1       1.998   5.908  20.454  0.00  0.00    +0.000 A 
ATOM      3  C   UNL     1       1.444   7.088  20.970  0.00  0.00    +0.000 A 
ATOM      4  C   UNL     1       1.400   8.276  20.211  0.00  0.00    +0.000 A 
ATOM      5  C   UNL     1       1.924   8.222  18.901  0.00  0.00    +0.000 A 
ATOM      6 CL   UNL     1       1.983   9.585  17.829  0.00  0.00    +0.000 Cl
ATOM      7  C   UNL     1       2.487   7.042  18.391  0.00  0.00    +0.000 A 
ENDROOT
BRANCH   4   8
ATOM      8  C   UNL     1       0.823   9.520  20.770  0.00  0.00    +0.000 A 
ATOM      9  N   UNL     1       0.040   9.564  21.826  0.00  0.00    +0.000 NA
ATOM     10  C   UNL     1      -0.446  10.837  22.037  0.00  0.00    +0.000 A 
ATOM     11  C   UNL     1      -1.379  11.206  23.027  0.00  0.00    +0.000 A 
ATOM     12  C   UNL     1      -1.786  12.539  23.133  0.00  0.00    +0.000 A 
ATOM     13  C   UNL     1      -1.256  13.499  22.277  0.00  0.00    +0.000 A 
ATOM     14 CL   UNL     1      -1.759  15.139  22.437  0.00  0.00    +0.000 Cl
ATOM     15  C   UNL     1      -0.330  13.162  21.285  0.00  0.00    +0.000 A 
ATOM     16  C   UNL     1       0.048  11.813  21.173  0.00  0.00    +0.000 A 
ATOM     17  S   UNL     1       1.105  11.061  20.040  0.00  0.00    +0.000 S 
ENDBRANCH   4   8
BRANCH   1  18
ATOM     18  N   UNL     1       3.154   4.721  18.675  0.00  0.00    +0.000 N 
ATOM     19  H   UNL     1       2.610   3.860  18.633  0.00  0.00    +0.000 HD
BRANCH  18  21
ATOM     20  O   UNL     1       5.298   5.571  19.698  0.00  0.00    +0.000 OA
ATOM     21  S   UNL     1       4.798   4.452  18.929  0.00  0.00    +0.000 S 
ATOM     22  O   UNL     1       4.954   3.098  19.415  0.00  0.00    +0.000 OA
BRANCH  21  23
ATOM     23  C   UNL     1       5.543   4.543  17.321  0.00  0.00    +0.000 A 
ATOM     24  C   UNL     1       4.730   4.326  16.197  0.00  0.00    +0.000 A 
ATOM     25  C   UNL     1       5.288   4.295  14.919  0.00  0.00    +0.000 A 
ATOM     26  C   UNL     1       6.657   4.488  14.752  0.00  0.00    +0.000 A 
ATOM     27  C   UNL     1       7.469   4.713  15.865  0.00  0.00    +0.000 A 
ATOM     28  C   UNL     1       6.919   4.739  17.155  0.00  0.00    +0.000 A 
ATOM     29 CL   UNL     1       8.009   5.050  18.457  0.00  0.00    +0.000 Cl
ENDBRANCH  21  23
ENDBRANCH  18  21
ENDBRANCH   1  18
TORSDOF 4
ENDMDL
MODEL 6
REMARK VINA RESULT:      -8.1      3.197      4.040
REMARK  Name = 
REMARK  4 active torsions:
REMARK  status: ('A' for Active; 'I' for Inactive)
REMARK    1  A    between atoms: S_2  and  N_4
REMARK    2  A    between atoms: S_2  and  C_22
REMARK    3  A    between atoms: N_4  and  C_5
REMARK    4  A    between atoms: C_8  and  C_9
REMARK                            x       y       z     vdW  Elec       q    Type
REMARK                         _______ _______ _______ _____ _____    ______ ____
ROOT
ATOM      1  C   UNL     1       2.752   6.899  18.337  0.00  0.00    +0.000 A 
ATOM      2  C   UNL     1       2.600   7.941  17.429  0.00  0.00    +0.000 A 
ATOM      3  C   UNL     1       1.940   9.117  17.814  0.00  0.00    +0.000 A 
ATOM      4  C   UNL     1       1.431   9.282  19.120  0.00  0.00    +0.000 A 
ATOM      5  C   UNL     1       1.628   8.217  20.027  0.00  0.00    +0.000 A 
ATOM      6 CL   UNL     1       1.051   8.226  21.663  0.00  0.00    +0.000 Cl
ATOM      7  C   UNL     1       2.280   7.039  19.635  0.00  0.00    +0.000 A 
ENDROOT
BRANCH   4   8
ATOM      8  C   UNL     1       0.724  10.522  19.513  0.00  0.00    +0.000 A 
ATOM      9  N   UNL     1      -0.482  10.553  20.037  0.00  0.00    +0.000 NA
ATOM     10  C   UNL     1      -0.932  11.848  20.182  0.00  0.00    +0.000 A 
ATOM     11  C   UNL     1      -2.215  12.226  20.628  0.00  0.00    +0.000 A 
ATOM     12  C   UNL     1      -2.541  13.581  20.731  0.00  0.00    +0.000 A 
ATOM     13  C   UNL     1      -1.596  14.551  20.413  0.00  0.00    +0.000 A 
ATOM     14 CL   UNL     1      -2.014  16.216  20.563  0.00  0.00    +0.000 Cl
ATOM     15  C   UNL     1      -0.317  14.206  19.966  0.00  0.00    +0.000 A 
ATOM     16  C   UNL     1      -0.013  12.839  19.842  0.00  0.00    +0.000 A 
ATOM     17  S   UNL     1       1.425  12.083  19.273  0.00  0.00    +0.000 S 
ENDBRANCH   4   8
BRANCH   1  18
ATOM     18  N   UNL     1       3.359   5.686  17.926  0.00  0.00    +0.000 N 
ATOM     19  H   UNL     1       4.182   5.728  17.326  0.00  0.00    +0.000 HD
BRANCH  18  21
ATOM     20  O   UNL     1       1.105   4.757  17.279  0.00  0.00    +0.000 OA
ATOM     21  S   UNL     1       2.424   4.309  17.667  0.00  0.00    +0.000 S 
ATOM     22  O   UNL     1       3.178   3.416  16.812  0.00  0.00    +0.000 OA
BRANCH  21  23
ATOM     23  C   UNL     1       2.271   3.537  19.259  0.00  0.00    +0.000 A 
ATOM     24  C   UNL     1       0.989   3.408  19.815  0.00  0.00    +0.000 A 
ATOM     25  C   UNL     1       0.828   2.894  21.102  0.00  0.00    +0.000 A 
ATOM     26  C   UNL     1       1.942   2.500  21.838  0.00  0.00    +0.000 A 
ATOM     27  C   UNL     1       3.219   2.618  21.286  0.00  0.00    +0.000 A 
ATOM     28  C   UNL     1       3.392   3.140  19.996  0.00  0.00    +0.000 A 
ATOM     29 CL   UNL     1       5.011   3.218  19.402  0.00  0.00    +0.000 Cl
ENDBRANCH  21  23
ENDBRANCH  18  21
ENDBRANCH   1  18
TORSDOF 4
ENDMDL
MODEL 7
REMARK VINA RESULT:      -8.1      2.311      2.770
REMARK  Name = 
REMARK  4 active torsions:
REMARK  status: ('A' for Active; 'I' for Inactive)
REMARK    1  A    between atoms: S_2  and  N_4
REMARK    2  A    between atoms: S_2  and  C_22
REMARK    3  A    between atoms: N_4  and  C_5
REMARK    4  A    between atoms: C_8  and  C_9
REMARK                            x       y       z     vdW  Elec       q    Type
REMARK                         _______ _______ _______ _____ _____    ______ ____
ROOT
ATOM      1  C   UNL     1       2.840   6.179  18.978  0.00  0.00    +0.000 A 
ATOM      2  C   UNL     1       2.995   6.944  17.826  0.00  0.00    +0.000 A 
ATOM      3  C   UNL     1       2.526   8.265  17.793  0.00  0.00    +0.000 A 
ATOM      4  C   UNL     1       1.903   8.855  18.914  0.00  0.00    +0.000 A 
ATOM      5  C   UNL     1       1.788   8.062  20.076  0.00  0.00    +0.000 A 
ATOM      6 CL   UNL     1       1.030   8.603  21.540  0.00  0.00    +0.000 Cl
ATOM      7  C   UNL     1       2.250   6.738  20.103  0.00  0.00    +0.000 A 
ENDROOT
BRANCH   4   8
ATOM      8  C   UNL     1       1.400  10.246  18.864  0.00  0.00    +0.000 A 
ATOM      9  N   UNL     1       2.134  11.288  18.539  0.00  0.00    +0.000 NA
ATOM     10  C   UNL     1       1.434  12.465  18.703  0.00  0.00    +0.000 A 
ATOM     11  C   UNL     1       1.956  13.762  18.528  0.00  0.00    +0.000 A 
ATOM     12  C   UNL     1       1.133  14.873  18.726  0.00  0.00    +0.000 A 
ATOM     13  C   UNL     1      -0.203  14.698  19.074  0.00  0.00    +0.000 A 
ATOM     14 CL   UNL     1      -1.205  16.081  19.296  0.00  0.00    +0.000 Cl
ATOM     15  C   UNL     1      -0.748  13.423  19.256  0.00  0.00    +0.000 A 
ATOM     16  C   UNL     1       0.100  12.316  19.080  0.00  0.00    +0.000 A 
ATOM     17  S   UNL     1      -0.230  10.638  19.281  0.00  0.00    +0.000 S 
ENDBRANCH   4   8
BRANCH   1  18
ATOM     18  N   UNL     1       3.254   4.824  18.987  0.00  0.00    +0.000 N 
ATOM     19  H   UNL     1       2.642   4.127  19.412  0.00  0.00    +0.000 HD
BRANCH  18  21
ATOM     20  O   UNL     1       5.540   5.535  19.782  0.00  0.00    +0.000 OA
ATOM     21  S   UNL     1       4.888   4.432  19.112  0.00  0.00    +0.000 S 
ATOM     22  O   UNL     1       4.981   3.089  19.645  0.00  0.00    +0.000 OA
BRANCH  21  23
ATOM     23  C   UNL     1       5.492   4.398  17.443  0.00  0.00    +0.000 A 
ATOM     24  C   UNL     1       6.781   4.895  17.192  0.00  0.00    +0.000 A 
ATOM     25  C   UNL     1       7.263   4.975  15.885  0.00  0.00    +0.000 A 
ATOM     26  C   UNL     1       6.466   4.555  14.823  0.00  0.00    +0.000 A 
ATOM     27  C   UNL     1       5.188   4.052  15.068  0.00  0.00    +0.000 A 
ATOM     28  C   UNL     1       4.691   3.973  16.377  0.00  0.00    +0.000 A 
ATOM     29 CL   UNL     1       3.108   3.312  16.568  0.00  0.00    +0.000 Cl
ENDBRANCH  21  23
ENDBRANCH  18  21
ENDBRANCH   1  18
TORSDOF 4
ENDMDL
MODEL 8
REMARK VINA RESULT:      -8.0      2.768      3.408
REMARK  Name = 
REMARK  4 active torsions:
REMARK  status: ('A' for Active; 'I' for Inactive)
REMARK    1  A    between atoms: S_2  and  N_4
REMARK    2  A    between atoms: S_2  and  C_22
REMARK    3  A    between atoms: N_4  and  C_5
REMARK    4  A    between atoms: C_8  and  C_9
REMARK                            x       y       z     vdW  Elec       q    Type
REMARK                         _______ _______ _______ _____ _____    ______ ____
ROOT
ATOM      1  C   UNL     1       2.557   6.856  18.655  0.00  0.00    +0.000 A 
ATOM      2  C   UNL     1       2.197   6.732  19.992  0.00  0.00    +0.000 A 
ATOM      3  C   UNL     1       1.575   7.802  20.653  0.00  0.00    +0.000 A 
ATOM      4  C   UNL     1       1.288   9.013  19.987  0.00  0.00    +0.000 A 
ATOM      5  C   UNL     1       1.640   9.095  18.622  0.00  0.00    +0.000 A 
ATOM      6 CL   UNL     1       1.391  10.508  17.647  0.00  0.00    +0.000 Cl
ATOM      7  C   UNL     1       2.270   8.026  17.967  0.00  0.00    +0.000 A 
ENDROOT
BRANCH   4   8
ATOM      8  C   UNL     1       0.644  10.141  20.697  0.00  0.00    +0.000 A 
ATOM      9  N   UNL     1       0.928  11.408  20.486  0.00  0.00    +0.000 NA
ATOM     10  C   UNL     1       0.266  12.225  21.379  0.00  0.00    +0.000 A 
ATOM     11  C   UNL     1       0.420  13.622  21.481  0.00  0.00    +0.000 A 
ATOM     12  C   UNL     1      -0.317  14.332  22.433  0.00  0.00    +0.000 A 
ATOM     13  C   UNL     1      -1.212  13.663  23.262  0.00  0.00    +0.000 A 
ATOM     14 CL   UNL     1      -2.124  14.560  24.417  0.00  0.00    +0.000 Cl
ATOM     15  C   UNL     1      -1.384  12.277  23.183  0.00  0.00    +0.000 A 
ATOM     16  C   UNL     1      -0.616  11.574  22.239  0.00  0.00    +0.000 A 
ATOM     17  S   UNL     1      -0.541   9.882  21.928  0.00  0.00    +0.000 S 
ENDBRANCH   4   8
BRANCH   1  18
ATOM     18  N   UNL     1       3.245   5.799  18.008  0.00  0.00    +0.000 N 
ATOM     19  H   UNL     1       3.962   6.029  17.320  0.00  0.00    +0.000 HD
BRANCH  18  21
ATOM     20  O   UNL     1       1.124   4.671  17.236  0.00  0.00    +0.000 OA
ATOM     21  S   UNL     1       2.461   4.343  17.682  0.00  0.00    +0.000 S 
ATOM     22  O   UNL     1       3.338   3.545  16.852  0.00  0.00    +0.000 OA
BRANCH  21  23
ATOM     23  C   UNL     1       2.308   3.530  19.252  0.00  0.00    +0.000 A 
ATOM     24  C   UNL     1       1.021   3.340  19.780  0.00  0.00    +0.000 A 
ATOM     25  C   UNL     1       0.855   2.790  21.051  0.00  0.00    +0.000 A 
ATOM     26  C   UNL     1       1.969   2.421  21.801  0.00  0.00    +0.000 A 
ATOM     27  C   UNL     1       3.250   2.600  21.277  0.00  0.00    +0.000 A 
ATOM     28  C   UNL     1       3.428   3.158  20.003  0.00  0.00    +0.000 A 
ATOM     29 CL   UNL     1       5.054   3.310  19.443  0.00  0.00    +0.000 Cl
ENDBRANCH  21  23
ENDBRANCH  18  21
ENDBRANCH   1  18
TORSDOF 4
ENDMDL
MODEL 9
REMARK VINA RESULT:      -8.0      2.475      3.274
REMARK  Name = 
REMARK  4 active torsions:
REMARK  status: ('A' for Active; 'I' for Inactive)
REMARK    1  A    between atoms: S_2  and  N_4
REMARK    2  A    between atoms: S_2  and  C_22
REMARK    3  A    between atoms: N_4  and  C_5
REMARK    4  A    between atoms: C_8  and  C_9
REMARK                            x       y       z     vdW  Elec       q    Type
REMARK                         _______ _______ _______ _____ _____    ______ ____
ROOT
ATOM      1  C   UNL     1       3.702   5.792  17.489  0.00  0.00    +0.000 A 
ATOM      2  C   UNL     1       3.625   7.132  17.123  0.00  0.00    +0.000 A 
ATOM      3  C   UNL     1       2.892   8.032  17.909  0.00  0.00    +0.000 A 
ATOM      4  C   UNL     1       2.231   7.617  19.085  0.00  0.00    +0.000 A 
ATOM      5  C   UNL     1       2.354   6.257  19.445  0.00  0.00    +0.000 A 
ATOM      6 CL   UNL     1       1.593   5.556  20.837  0.00  0.00    +0.000 Cl
ATOM      7  C   UNL     1       3.081   5.357  18.651  0.00  0.00    +0.000 A 
ENDROOT
BRANCH   4   8
ATOM      8  C   UNL     1       1.449   8.573  19.901  0.00  0.00    +0.000 A 
ATOM      9  N   UNL     1       1.222   8.434  21.189  0.00  0.00    +0.000 NA
ATOM     10  C   UNL     1       0.360   9.406  21.653  0.00  0.00    +0.000 A 
ATOM     11  C   UNL     1      -0.156   9.488  22.962  0.00  0.00    +0.000 A 
ATOM     12  C   UNL     1      -1.022  10.531  23.301  0.00  0.00    +0.000 A 
ATOM     13  C   UNL     1      -1.358  11.494  22.354  0.00  0.00    +0.000 A 
ATOM     14 CL   UNL     1      -2.414  12.780  22.798  0.00  0.00    +0.000 Cl
ATOM     15  C   UNL     1      -0.862  11.436  21.047  0.00  0.00    +0.000 A 
ATOM     16  C   UNL     1      -0.014  10.367  20.715  0.00  0.00    +0.000 A 
ATOM     17  S   UNL     1       0.711   9.971  19.204  0.00  0.00    +0.000 S 
ENDBRANCH   4   8
BRANCH   1  18
ATOM     18  N   UNL     1       4.387   4.870  16.658  0.00  0.00    +0.000 N 
ATOM     19  H   UNL     1       4.354   3.879  16.894  0.00  0.00    +0.000 HD
BRANCH  18  21
ATOM     20  O   UNL     1       6.527   4.100  15.566  0.00  0.00    +0.000 OA
ATOM     21  S   UNL     1       5.815   5.318  15.884  0.00  0.00    +0.000 S 
ATOM     22  O   UNL     1       5.476   6.265  14.842  0.00  0.00    +0.000 OA
BRANCH  21  23
ATOM     23  C   UNL     1       6.766   6.178  17.112  0.00  0.00    +0.000 A 
ATOM     24  C   UNL     1       7.250   7.459  16.802  0.00  0.00    +0.000 A 
ATOM     25  C   UNL     1       8.079   8.134  17.698  0.00  0.00    +0.000 A 
ATOM     26  C   UNL     1       8.424   7.541  18.910  0.00  0.00    +0.000 A 
ATOM     27  C   UNL     1       7.938   6.271  19.226  0.00  0.00    +0.000 A 
ATOM     28  C   UNL     1       7.110   5.581  18.330  0.00  0.00    +0.000 A 
ATOM     29 CL   UNL     1       6.545   4.029  18.833  0.00  0.00    +0.000 Cl
ENDBRANCH  21  23
ENDBRANCH  18  21
ENDBRANCH   1  18
TORSDOF 4
ENDMDL
