MODEL 1
REMARK VINA RESULT:      -8.2      0.000      0.000
REMARK  Name = 
REMARK  7 active torsions:
REMARK  status: ('A' for Active; 'I' for Inactive)
REMARK    1  A    between atoms: C_1  and  C_2
REMARK    2  A    between atoms: C_5  and  N_6
REMARK    3  A    between atoms: C_7  and  C_19
REMARK    4  A    between atoms: N_8  and  O_9
REMARK    5  A    between atoms: O_9  and  C_10
REMARK    6  A    between atoms: C_10  and  C_11
REMARK    7  A    between atoms: C_25  and  C_26
REMARK                            x       y       z     vdW  Elec       q    Type
REMARK                         _______ _______ _______ _____ _____    ______ ____
ROOT
ATOM      1  N   UNL     1       4.763   4.212  16.829  0.00  0.00    +0.000 NA
ATOM      2  C   UNL     1       5.123   5.321  16.272  0.00  0.00    +0.000 C 
ATOM      3  N   UNL     1       4.768   6.643  16.455  0.00  0.00    +0.000 N 
ATOM      4  H   UNL     1       4.422   7.145  15.636  0.00  0.00    +0.000 HD
ENDROOT
BRANCH   1   9
ATOM      5  C   UNL     1       0.772   2.912  20.725  0.00  0.00    +0.000 C 
ATOM      6  C   UNL     1       1.783   3.343  19.705  0.00  0.00    +0.000 A 
ATOM      7  C   UNL     1       1.428   3.484  18.366  0.00  0.00    +0.000 A 
ATOM      8  C   UNL     1       2.401   3.782  17.407  0.00  0.00    +0.000 A 
ATOM      9  C   UNL     1       3.730   4.051  17.766  0.00  0.00    +0.000 A 
ATOM     10  C   UNL     1       4.072   3.986  19.130  0.00  0.00    +0.000 A 
ATOM     11  C   UNL     1       5.452   4.316  19.628  0.00  0.00    +0.000 C 
ATOM     12  C   UNL     1       3.101   3.613  20.082  0.00  0.00    +0.000 A 
ENDBRANCH   1   9
BRANCH   2  13
ATOM     13  C   UNL     1       6.168   5.218  15.242  0.00  0.00    +0.000 A 
ATOM     14  N   UNL     1       7.377   5.791  15.386  0.00  0.00    +0.000 NA
ATOM     15  O   UNL     1       8.099   5.417  14.260  0.00  0.00    +0.000 OA
ATOM     16  N   UNL     1       7.338   4.635  13.406  0.00  0.00    +0.000 NA
ATOM     17  C   UNL     1       6.149   4.527  13.994  0.00  0.00    +0.000 A 
ATOM     18  N   UNL     1       5.108   3.852  13.475  0.00  0.00    +0.000 N 
ATOM     19  H   UNL     1       5.245   3.220  12.696  0.00  0.00    +0.000 HD
ATOM     20  H   UNL     1       4.273   3.697  14.037  0.00  0.00    +0.000 HD
ENDBRANCH   2  13
BRANCH   3  21
ATOM     21  O   UNL     1       4.264   7.028  17.689  0.00  0.00    +0.000 OA
BRANCH  21  22
ATOM     22  C   UNL     1       3.117   7.847  17.414  0.00  0.00    +0.000 C 
BRANCH  22  23
ATOM     23  C   UNL     1       2.275   8.058  18.651  0.00  0.00    +0.000 A 
ATOM     24  C   UNL     1       2.228   7.076  19.657  0.00  0.00    +0.000 A 
ATOM     25  C   UNL     1       1.544   7.310  20.853  0.00  0.00    +0.000 A 
ATOM     26  C   UNL     1       0.908   8.530  21.060  0.00  0.00    +0.000 A 
ATOM     27 CL   UNL     1       0.110   8.838  22.553  0.00  0.00    +0.000 Cl
ATOM     28  C   UNL     1       0.930   9.513  20.076  0.00  0.00    +0.000 A 
ATOM     29  C   UNL     1       1.613   9.279  18.880  0.00  0.00    +0.000 A 
ATOM     30 CL   UNL     1       1.623  10.559  17.716  0.00  0.00    +0.000 Cl
ENDBRANCH  22  23
ENDBRANCH  21  22
ENDBRANCH   3  21
TORSDOF 5
ENDMDL
MODEL 2
REMARK VINA RESULT:      -7.7      1.075      1.605
REMARK  Name = 
REMARK  7 active torsions:
REMARK  status: ('A' for Active; 'I' for Inactive)
REMARK    1  A    between atoms: C_1  and  C_2
REMARK    2  A    between atoms: C_5  and  N_6
REMARK    3  A    between atoms: C_7  and  C_19
REMARK    4  A    between atoms: N_8  and  O_9
REMARK    5  A    between atoms: O_9  and  C_10
REMARK    6  A    between atoms: C_10  and  C_11
REMARK    7  A    between atoms: C_25  and  C_26
REMARK                            x       y       z     vdW  Elec       q    Type
REMARK                         _______ _______ _______ _____ _____    ______ ____
ROOT
ATOM      1  N   UNL     1       4.888   4.095  16.837  0.00  0.00    +0.000 NA
ATOM      2  C   UNL     1       5.156   5.233  16.288  0.00  0.00    +0.000 C 
ATOM      3  N   UNL     1       4.703   6.522  16.487  0.00  0.00    +0.000 N 
ATOM      4  H   UNL     1       4.312   7.004  15.676  0.00  0.00    +0.000 HD
ENDROOT
BRANCH   1   9
ATOM      5  C   UNL     1       1.063   2.467  20.776  0.00  0.00    +0.000 C 
ATOM      6  C   UNL     1       2.021   2.980  19.743  0.00  0.00    +0.000 A 
ATOM      7  C   UNL     1       1.651   3.053  18.403  0.00  0.00    +0.000 A 
ATOM      8  C   UNL     1       2.585   3.431  17.434  0.00  0.00    +0.000 A 
ATOM      9  C   UNL     1       3.879   3.846  17.782  0.00  0.00    +0.000 A 
ATOM     10  C   UNL     1       4.228   3.849  19.145  0.00  0.00    +0.000 A 
ATOM     11  C   UNL     1       5.567   4.333  19.631  0.00  0.00    +0.000 C 
ATOM     12  C   UNL     1       3.304   3.396  20.109  0.00  0.00    +0.000 A 
ENDBRANCH   1   9
BRANCH   2  13
ATOM     13  C   UNL     1       6.197   5.220  15.247  0.00  0.00    +0.000 A 
ATOM     14  N   UNL     1       7.376   5.848  15.404  0.00  0.00    +0.000 NA
ATOM     15  O   UNL     1       8.106   5.552  14.260  0.00  0.00    +0.000 OA
ATOM     16  N   UNL     1       7.379   4.763  13.384  0.00  0.00    +0.000 NA
ATOM     17  C   UNL     1       6.202   4.574  13.976  0.00  0.00    +0.000 A 
ATOM     18  N   UNL     1       5.191   3.867  13.439  0.00  0.00    +0.000 N 
ATOM     19  H   UNL     1       5.353   3.270  12.637  0.00  0.00    +0.000 HD
ATOM     20  H   UNL     1       4.370   3.649  14.002  0.00  0.00    +0.000 HD
ENDBRANCH   2  13
BRANCH   3  21
ATOM     21  O   UNL     1       4.183   6.856  17.729  0.00  0.00    +0.000 OA
BRANCH  21  22
ATOM     22  C   UNL     1       2.768   7.005  17.542  0.00  0.00    +0.000 C 
BRANCH  22  23
ATOM     23  C   UNL     1       2.216   8.152  18.359  0.00  0.00    +0.000 A 
ATOM     24  C   UNL     1       2.042   9.421  17.777  0.00  0.00    +0.000 A 
ATOM     25  C   UNL     1       1.428  10.456  18.489  0.00  0.00    +0.000 A 
ATOM     26  C   UNL     1       0.973  10.230  19.785  0.00  0.00    +0.000 A 
ATOM     27 CL   UNL     1       0.171  11.488  20.642  0.00  0.00    +0.000 Cl
ATOM     28  C   UNL     1       1.144   8.988  20.386  0.00  0.00    +0.000 A 
ATOM     29  C   UNL     1       1.759   7.954  19.675  0.00  0.00    +0.000 A 
ATOM     30 CL   UNL     1       1.908   6.428  20.476  0.00  0.00    +0.000 Cl
ENDBRANCH  22  23
ENDBRANCH  21  22
ENDBRANCH   3  21
TORSDOF 5
ENDMDL
MODEL 3
REMARK VINA RESULT:      -7.6      0.693      1.190
REMARK  Name = 
REMARK  7 active torsions:
REMARK  status: ('A' for Active; 'I' for Inactive)
REMARK    1  A    between atoms: C_1  and  C_2
REMARK    2  A    between atoms: C_5  and  N_6
REMARK    3  A    between atoms: C_7  and  C_19
REMARK    4  A    between atoms: N_8  and  O_9
REMARK    5  A    between atoms: O_9  and  C_10
REMARK    6  A    between atoms: C_10  and  C_11
REMARK    7  A    between atoms: C_25  and  C_26
REMARK                            x       y       z     vdW  Elec       q    Type
REMARK                         _______ _______ _______ _____ _____    ______ ____
ROOT
ATOM      1  N   UNL     1       4.430   3.732  16.822  0.00  0.00    +0.000 NA
ATOM      2  C   UNL     1       4.759   4.803  16.179  0.00  0.00    +0.000 C 
ATOM      3  N   UNL     1       4.505   6.147  16.366  0.00  0.00    +0.000 N 
ATOM      4  H   UNL     1       4.067   6.645  15.590  0.00  0.00    +0.000 HD
ENDROOT
BRANCH   1   9
ATOM      5  C   UNL     1       1.031   2.778  21.331  0.00  0.00    +0.000 C 
ATOM      6  C   UNL     1       1.888   3.119  20.150  0.00  0.00    +0.000 A 
ATOM      7  C   UNL     1       1.344   3.185  18.870  0.00  0.00    +0.000 A 
ATOM      8  C   UNL     1       2.171   3.399  17.763  0.00  0.00    +0.000 A 
ATOM      9  C   UNL     1       3.542   3.655  17.908  0.00  0.00    +0.000 A 
ATOM     10  C   UNL     1       4.079   3.667  19.209  0.00  0.00    +0.000 A 
ATOM     11  C   UNL     1       5.523   3.991  19.479  0.00  0.00    +0.000 C 
ATOM     12  C   UNL     1       3.252   3.378  20.314  0.00  0.00    +0.000 A 
ENDBRANCH   1   9
BRANCH   2  13
ATOM     13  C   UNL     1       5.631   4.612  15.009  0.00  0.00    +0.000 A 
ATOM     14  N   UNL     1       5.254   3.882  13.944  0.00  0.00    +0.000 NA
ATOM     15  O   UNL     1       6.295   3.996  13.032  0.00  0.00    +0.000 OA
ATOM     16  N   UNL     1       7.327   4.772  13.533  0.00  0.00    +0.000 NA
ATOM     17  C   UNL     1       6.933   5.136  14.751  0.00  0.00    +0.000 A 
ATOM     18  N   UNL     1       7.665   5.893  15.587  0.00  0.00    +0.000 N 
ATOM     19  H   UNL     1       8.477   6.393  15.247  0.00  0.00    +0.000 HD
ATOM     20  H   UNL     1       7.250   6.245  16.448  0.00  0.00    +0.000 HD
ENDBRANCH   2  13
BRANCH   3  21
ATOM     21  O   UNL     1       4.213   6.594  17.645  0.00  0.00    +0.000 OA
BRANCH  21  22
ATOM     22  C   UNL     1       3.367   7.742  17.484  0.00  0.00    +0.000 C 
BRANCH  22  23
ATOM     23  C   UNL     1       2.429   7.912  18.657  0.00  0.00    +0.000 A 
ATOM     24  C   UNL     1       2.320   6.904  19.633  0.00  0.00    +0.000 A 
ATOM     25  C   UNL     1       1.543   7.099  20.778  0.00  0.00    +0.000 A 
ATOM     26  C   UNL     1       0.875   8.306  20.965  0.00  0.00    +0.000 A 
ATOM     27 CL   UNL     1      -0.039   8.566  22.399  0.00  0.00    +0.000 Cl
ATOM     28  C   UNL     1       0.958   9.313  20.010  0.00  0.00    +0.000 A 
ATOM     29  C   UNL     1       1.734   9.118  18.864  0.00  0.00    +0.000 A 
ATOM     30 CL   UNL     1       1.814  10.426  17.736  0.00  0.00    +0.000 Cl
ENDBRANCH  22  23
ENDBRANCH  21  22
ENDBRANCH   3  21
TORSDOF 5
ENDMDL
MODEL 4
REMARK VINA RESULT:      -7.5      1.190      2.135
REMARK  Name = 
REMARK  7 active torsions:
REMARK  status: ('A' for Active; 'I' for Inactive)
REMARK    1  A    between atoms: C_1  and  C_2
REMARK    2  A    between atoms: C_5  and  N_6
REMARK    3  A    between atoms: C_7  and  C_19
REMARK    4  A    between atoms: N_8  and  O_9
REMARK    5  A    between atoms: O_9  and  C_10
REMARK    6  A    between atoms: C_10  and  C_11
REMARK    7  A    between atoms: C_25  and  C_26
REMARK                            x       y       z     vdW  Elec       q    Type
REMARK                         _______ _______ _______ _____ _____    ______ ____
ROOT
ATOM      1  N   UNL     1       5.217   3.953  17.400  0.00  0.00    +0.000 NA
ATOM      2  C   UNL     1       5.251   5.109  16.824  0.00  0.00    +0.000 C 
ATOM      3  N   UNL     1       4.546   6.284  16.995  0.00  0.00    +0.000 N 
ATOM      4  H   UNL     1       4.067   6.657  16.175  0.00  0.00    +0.000 HD
ENDROOT
BRANCH   1   9
ATOM      5  C   UNL     1       1.116   2.841  21.240  0.00  0.00    +0.000 C 
ATOM      6  C   UNL     1       2.218   3.040  20.243  0.00  0.00    +0.000 A 
ATOM      7  C   UNL     1       3.534   3.222  20.663  0.00  0.00    +0.000 A 
ATOM      8  C   UNL     1       4.536   3.513  19.733  0.00  0.00    +0.000 A 
ATOM      9  C   UNL     1       4.278   3.528  18.354  0.00  0.00    +0.000 A 
ATOM     10  C   UNL     1       2.964   3.266  17.925  0.00  0.00    +0.000 A 
ATOM     11  C   UNL     1       2.594   3.198  16.468  0.00  0.00    +0.000 C 
ATOM     12  C   UNL     1       1.944   3.046  18.873  0.00  0.00    +0.000 A 
ENDBRANCH   1   9
BRANCH   2  13
ATOM     13  C   UNL     1       6.274   5.282  15.780  0.00  0.00    +0.000 A 
ATOM     14  N   UNL     1       7.386   6.011  15.980  0.00  0.00    +0.000 NA
ATOM     15  O   UNL     1       8.127   5.879  14.812  0.00  0.00    +0.000 OA
ATOM     16  N   UNL     1       7.470   5.093  13.880  0.00  0.00    +0.000 NA
ATOM     17  C   UNL     1       6.327   4.740  14.462  0.00  0.00    +0.000 A 
ATOM     18  N   UNL     1       5.385   3.979  13.877  0.00  0.00    +0.000 N 
ATOM     19  H   UNL     1       5.595   3.466  13.029  0.00  0.00    +0.000 HD
ATOM     20  H   UNL     1       4.597   3.636  14.424  0.00  0.00    +0.000 HD
ENDBRANCH   2  13
BRANCH   3  21
ATOM     21  O   UNL     1       3.968   6.535  18.230  0.00  0.00    +0.000 OA
BRANCH  21  22
ATOM     22  C   UNL     1       2.571   6.750  17.981  0.00  0.00    +0.000 C 
BRANCH  22  23
ATOM     23  C   UNL     1       2.075   8.014  18.644  0.00  0.00    +0.000 A 
ATOM     24  C   UNL     1       1.996   9.216  17.916  0.00  0.00    +0.000 A 
ATOM     25  C   UNL     1       1.433  10.362  18.485  0.00  0.00    +0.000 A 
ATOM     26  C   UNL     1       0.935  10.316  19.784  0.00  0.00    +0.000 A 
ATOM     27 CL   UNL     1       0.196  11.712  20.467  0.00  0.00    +0.000 Cl
ATOM     28  C   UNL     1       1.012   9.144  20.529  0.00  0.00    +0.000 A 
ATOM     29  C   UNL     1       1.576   7.999  19.960  0.00  0.00    +0.000 A 
ATOM     30 CL   UNL     1       1.609   6.570  20.935  0.00  0.00    +0.000 Cl
ENDBRANCH  22  23
ENDBRANCH  21  22
ENDBRANCH   3  21
TORSDOF 5
ENDMDL
MODEL 5
REMARK VINA RESULT:      -7.5      1.400      2.641
REMARK  Name = 
REMARK  7 active torsions:
REMARK  status: ('A' for Active; 'I' for Inactive)
REMARK    1  A    between atoms: C_1  and  C_2
REMARK    2  A    between atoms: C_5  and  N_6
REMARK    3  A    between atoms: C_7  and  C_19
REMARK    4  A    between atoms: N_8  and  O_9
REMARK    5  A    between atoms: O_9  and  C_10
REMARK    6  A    between atoms: C_10  and  C_11
REMARK    7  A    between atoms: C_25  and  C_26
REMARK                            x       y       z     vdW  Elec       q    Type
REMARK                         _______ _______ _______ _____ _____    ______ ____
ROOT
ATOM      1  N   UNL     1       4.816   3.687  17.821  0.00  0.00    +0.000 NA
ATOM      2  C   UNL     1       4.877   4.888  17.351  0.00  0.00    +0.000 C 
ATOM      3  N   UNL     1       4.274   6.081  17.693  0.00  0.00    +0.000 N 
ATOM      4  H   UNL     1       3.750   6.560  16.959  0.00  0.00    +0.000 HD
ENDROOT
BRANCH   1   9
ATOM      5  C   UNL     1       1.022   2.466  21.934  0.00  0.00    +0.000 C 
ATOM      6  C   UNL     1       2.036   2.691  20.853  0.00  0.00    +0.000 A 
ATOM      7  C   UNL     1       3.397   2.719  21.148  0.00  0.00    +0.000 A 
ATOM      8  C   UNL     1       4.326   3.035  20.153  0.00  0.00    +0.000 A 
ATOM      9  C   UNL     1       3.939   3.229  18.819  0.00  0.00    +0.000 A 
ATOM     10  C   UNL     1       2.571   3.123  18.506  0.00  0.00    +0.000 A 
ATOM     11  C   UNL     1       2.057   3.252  17.098  0.00  0.00    +0.000 C 
ATOM     12  C   UNL     1       1.632   2.876  19.528  0.00  0.00    +0.000 A 
ENDBRANCH   1   9
BRANCH   2  13
ATOM     13  C   UNL     1       5.812   5.098  16.233  0.00  0.00    +0.000 A 
ATOM     14  N   UNL     1       5.422   5.635  15.064  0.00  0.00    +0.000 NA
ATOM     15  O   UNL     1       6.579   5.739  14.302  0.00  0.00    +0.000 OA
ATOM     16  N   UNL     1       7.680   5.246  14.982  0.00  0.00    +0.000 NA
ATOM     17  C   UNL     1       7.212   4.836  16.158  0.00  0.00    +0.000 A 
ATOM     18  N   UNL     1       7.968   4.272  17.118  0.00  0.00    +0.000 N 
ATOM     19  H   UNL     1       8.978   4.318  17.066  0.00  0.00    +0.000 HD
ATOM     20  H   UNL     1       7.572   4.104  18.042  0.00  0.00    +0.000 HD
ENDBRANCH   2  13
BRANCH   3  21
ATOM     21  O   UNL     1       3.828   6.248  18.995  0.00  0.00    +0.000 OA
BRANCH  21  22
ATOM     22  C   UNL     1       2.411   6.466  18.908  0.00  0.00    +0.000 C 
BRANCH  22  23
ATOM     23  C   UNL     1       2.071   7.938  18.944  0.00  0.00    +0.000 A 
ATOM     24  C   UNL     1       2.331   8.756  17.829  0.00  0.00    +0.000 A 
ATOM     25  C   UNL     1       1.916  10.091  17.810  0.00  0.00    +0.000 A 
ATOM     26  C   UNL     1       1.231  10.619  18.899  0.00  0.00    +0.000 A 
ATOM     27 CL   UNL     1       0.676  12.247  18.855  0.00  0.00    +0.000 Cl
ATOM     28  C   UNL     1       0.973   9.835  20.019  0.00  0.00    +0.000 A 
ATOM     29  C   UNL     1       1.388   8.500  20.038  0.00  0.00    +0.000 A 
ATOM     30 CL   UNL     1       1.004   7.578  21.450  0.00  0.00    +0.000 Cl
ENDBRANCH  22  23
ENDBRANCH  21  22
ENDBRANCH   3  21
TORSDOF 5
ENDMDL
MODEL 6
REMARK VINA RESULT:      -7.4      0.571      1.365
REMARK  Name = 
REMARK  7 active torsions:
REMARK  status: ('A' for Active; 'I' for Inactive)
REMARK    1  A    between atoms: C_1  and  C_2
REMARK    2  A    between atoms: C_5  and  N_6
REMARK    3  A    between atoms: C_7  and  C_19
REMARK    4  A    between atoms: N_8  and  O_9
REMARK    5  A    between atoms: O_9  and  C_10
REMARK    6  A    between atoms: C_10  and  C_11
REMARK    7  A    between atoms: C_25  and  C_26
REMARK                            x       y       z     vdW  Elec       q    Type
REMARK                         _______ _______ _______ _____ _____    ______ ____
ROOT
ATOM      1  N   UNL     1       5.201   4.038  17.335  0.00  0.00    +0.000 NA
ATOM      2  C   UNL     1       5.255   5.168  16.711  0.00  0.00    +0.000 C 
ATOM      3  N   UNL     1       4.557   6.355  16.820  0.00  0.00    +0.000 N 
ATOM      4  H   UNL     1       4.096   6.697  15.976  0.00  0.00    +0.000 HD
ENDROOT
BRANCH   1   9
ATOM      5  C   UNL     1       1.022   3.120  21.142  0.00  0.00    +0.000 C 
ATOM      6  C   UNL     1       2.144   3.268  20.158  0.00  0.00    +0.000 A 
ATOM      7  C   UNL     1       3.453   3.456  20.594  0.00  0.00    +0.000 A 
ATOM      8  C   UNL     1       4.474   3.700  19.671  0.00  0.00    +0.000 A 
ATOM      9  C   UNL     1       4.242   3.660  18.288  0.00  0.00    +0.000 A 
ATOM     10  C   UNL     1       2.933   3.392  17.846  0.00  0.00    +0.000 A 
ATOM     11  C   UNL     1       2.588   3.267  16.387  0.00  0.00    +0.000 C 
ATOM     12  C   UNL     1       1.895   3.220  18.784  0.00  0.00    +0.000 A 
ENDBRANCH   1   9
BRANCH   2  13
ATOM     13  C   UNL     1       6.297   5.289  15.680  0.00  0.00    +0.000 A 
ATOM     14  N   UNL     1       7.415   6.013  15.871  0.00  0.00    +0.000 NA
ATOM     15  O   UNL     1       8.174   5.828  14.723  0.00  0.00    +0.000 OA
ATOM     16  N   UNL     1       7.525   5.014  13.810  0.00  0.00    +0.000 NA
ATOM     17  C   UNL     1       6.367   4.696  14.384  0.00  0.00    +0.000 A 
ATOM     18  N   UNL     1       5.426   3.924  13.812  0.00  0.00    +0.000 N 
ATOM     19  H   UNL     1       5.645   3.376  12.989  0.00  0.00    +0.000 HD
ATOM     20  H   UNL     1       4.625   3.612  14.359  0.00  0.00    +0.000 HD
ENDBRANCH   2  13
BRANCH   3  21
ATOM     21  O   UNL     1       3.959   6.662  18.033  0.00  0.00    +0.000 OA
BRANCH  21  22
ATOM     22  C   UNL     1       2.931   7.620  17.741  0.00  0.00    +0.000 C 
BRANCH  22  23
ATOM     23  C   UNL     1       2.102   7.938  18.963  0.00  0.00    +0.000 A 
ATOM     24  C   UNL     1       1.989   7.005  20.010  0.00  0.00    +0.000 A 
ATOM     25  C   UNL     1       1.320   7.333  21.192  0.00  0.00    +0.000 A 
ATOM     26  C   UNL     1       0.764   8.600  21.345  0.00  0.00    +0.000 A 
ATOM     27 CL   UNL     1      -0.015   9.022  22.819  0.00  0.00    +0.000 Cl
ATOM     28  C   UNL     1       0.851   9.536  20.320  0.00  0.00    +0.000 A 
ATOM     29  C   UNL     1       1.520   9.208  19.138  0.00  0.00    +0.000 A 
ATOM     30 CL   UNL     1       1.615  10.433  17.921  0.00  0.00    +0.000 Cl
ENDBRANCH  22  23
ENDBRANCH  21  22
ENDBRANCH   3  21
TORSDOF 5
ENDMDL
MODEL 7
REMARK VINA RESULT:      -7.3      0.951      1.853
REMARK  Name = 
REMARK  7 active torsions:
REMARK  status: ('A' for Active; 'I' for Inactive)
REMARK    1  A    between atoms: C_1  and  C_2
REMARK    2  A    between atoms: C_5  and  N_6
REMARK    3  A    between atoms: C_7  and  C_19
REMARK    4  A    between atoms: N_8  and  O_9
REMARK    5  A    between atoms: O_9  and  C_10
REMARK    6  A    between atoms: C_10  and  C_11
REMARK    7  A    between atoms: C_25  and  C_26
REMARK                            x       y       z     vdW  Elec       q    Type
REMARK                         _______ _______ _______ _____ _____    ______ ____
ROOT
ATOM      1  N   UNL     1       4.953   3.558  17.382  0.00  0.00    +0.000 NA
ATOM      2  C   UNL     1       4.964   4.664  16.714  0.00  0.00    +0.000 C 
ATOM      3  N   UNL     1       4.297   5.866  16.842  0.00  0.00    +0.000 N 
ATOM      4  H   UNL     1       3.763   6.185  16.033  0.00  0.00    +0.000 HD
ENDROOT
BRANCH   1   9
ATOM      5  C   UNL     1       1.211   2.887  21.666  0.00  0.00    +0.000 C 
ATOM      6  C   UNL     1       2.208   2.968  20.549  0.00  0.00    +0.000 A 
ATOM      7  C   UNL     1       3.575   2.964  20.812  0.00  0.00    +0.000 A 
ATOM      8  C   UNL     1       4.493   3.146  19.774  0.00  0.00    +0.000 A 
ATOM      9  C   UNL     1       4.082   3.233  18.436  0.00  0.00    +0.000 A 
ATOM     10  C   UNL     1       2.704   3.158  18.161  0.00  0.00    +0.000 A 
ATOM     11  C   UNL     1       2.162   3.179  16.758  0.00  0.00    +0.000 C 
ATOM     12  C   UNL     1       1.781   3.047  19.221  0.00  0.00    +0.000 A 
ENDBRANCH   1   9
BRANCH   2  13
ATOM     13  C   UNL     1       5.906   4.728  15.586  0.00  0.00    +0.000 A 
ATOM     14  N   UNL     1       5.729   4.012  14.461  0.00  0.00    +0.000 NA
ATOM     15  O   UNL     1       6.765   4.389  13.617  0.00  0.00    +0.000 OA
ATOM     16  N   UNL     1       7.599   5.317  14.219  0.00  0.00    +0.000 NA
ATOM     17  C   UNL     1       7.087   5.514  15.432  0.00  0.00    +0.000 A 
ATOM     18  N   UNL     1       7.617   6.341  16.351  0.00  0.00    +0.000 N 
ATOM     19  H   UNL     1       8.326   7.013  16.085  0.00  0.00    +0.000 HD
ATOM     20  H   UNL     1       7.102   6.545  17.206  0.00  0.00    +0.000 HD
ENDBRANCH   2  13
BRANCH   3  21
ATOM     21  O   UNL     1       3.821   6.228  18.093  0.00  0.00    +0.000 OA
BRANCH  21  22
ATOM     22  C   UNL     1       3.198   7.511  17.927  0.00  0.00    +0.000 C 
BRANCH  22  23
ATOM     23  C   UNL     1       2.229   7.809  19.049  0.00  0.00    +0.000 A 
ATOM     24  C   UNL     1       2.048   6.887  20.097  0.00  0.00    +0.000 A 
ATOM     25  C   UNL     1       1.242   7.202  21.195  0.00  0.00    +0.000 A 
ATOM     26  C   UNL     1       0.617   8.444  21.262  0.00  0.00    +0.000 A 
ATOM     27 CL   UNL     1      -0.332   8.852  22.637  0.00  0.00    +0.000 Cl
ATOM     28  C   UNL     1       0.771   9.368  20.233  0.00  0.00    +0.000 A 
ATOM     29  C   UNL     1       1.576   9.052  19.135  0.00  0.00    +0.000 A 
ATOM     30 CL   UNL     1       1.745  10.262  17.910  0.00  0.00    +0.000 Cl
ENDBRANCH  22  23
ENDBRANCH  21  22
ENDBRANCH   3  21
TORSDOF 5
ENDMDL
MODEL 8
REMARK VINA RESULT:      -7.3      1.253      2.017
REMARK  Name = 
REMARK  7 active torsions:
REMARK  status: ('A' for Active; 'I' for Inactive)
REMARK    1  A    between atoms: C_1  and  C_2
REMARK    2  A    between atoms: C_5  and  N_6
REMARK    3  A    between atoms: C_7  and  C_19
REMARK    4  A    between atoms: N_8  and  O_9
REMARK    5  A    between atoms: O_9  and  C_10
REMARK    6  A    between atoms: C_10  and  C_11
REMARK    7  A    between atoms: C_25  and  C_26
REMARK                            x       y       z     vdW  Elec       q    Type
REMARK                         _______ _______ _______ _____ _____    ______ ____
ROOT
ATOM      1  N   UNL     1       4.563   3.923  17.116  0.00  0.00    +0.000 NA
ATOM      2  C   UNL     1       4.790   5.017  16.469  0.00  0.00    +0.000 C 
ATOM      3  N   UNL     1       4.345   6.317  16.602  0.00  0.00    +0.000 N 
ATOM      4  H   UNL     1       3.899   6.738  15.785  0.00  0.00    +0.000 HD
ENDROOT
BRANCH   1   9
ATOM      5  C   UNL     1       1.025   2.603  21.423  0.00  0.00    +0.000 C 
ATOM      6  C   UNL     1       1.905   3.033  20.288  0.00  0.00    +0.000 A 
ATOM      7  C   UNL     1       1.455   2.966  18.972  0.00  0.00    +0.000 A 
ATOM      8  C   UNL     1       2.319   3.269  17.916  0.00  0.00    +0.000 A 
ATOM      9  C   UNL     1       3.619   3.745  18.142  0.00  0.00    +0.000 A 
ATOM     10  C   UNL     1       4.048   3.888  19.474  0.00  0.00    +0.000 A 
ATOM     11  C   UNL     1       5.399   4.447  19.827  0.00  0.00    +0.000 C 
ATOM     12  C   UNL     1       3.195   3.511  20.532  0.00  0.00    +0.000 A 
ENDBRANCH   1   9
BRANCH   2  13
ATOM     13  C   UNL     1       5.759   4.926  15.366  0.00  0.00    +0.000 A 
ATOM     14  N   UNL     1       5.504   4.235  14.241  0.00  0.00    +0.000 NA
ATOM     15  O   UNL     1       6.607   4.442  13.423  0.00  0.00    +0.000 OA
ATOM     16  N   UNL     1       7.556   5.239  14.042  0.00  0.00    +0.000 NA
ATOM     17  C   UNL     1       7.049   5.522  15.239  0.00  0.00    +0.000 A 
ATOM     18  N   UNL     1       7.675   6.268  16.168  0.00  0.00    +0.000 N 
ATOM     19  H   UNL     1       8.485   6.822  15.918  0.00  0.00    +0.000 HD
ATOM     20  H   UNL     1       7.176   6.556  17.008  0.00  0.00    +0.000 HD
ENDBRANCH   2  13
BRANCH   3  21
ATOM     21  O   UNL     1       3.905   6.742  17.847  0.00  0.00    +0.000 OA
BRANCH  21  22
ATOM     22  C   UNL     1       2.493   6.961  17.719  0.00  0.00    +0.000 C 
BRANCH  22  23
ATOM     23  C   UNL     1       2.046   8.183  18.489  0.00  0.00    +0.000 A 
ATOM     24  C   UNL     1       1.936   9.429  17.845  0.00  0.00    +0.000 A 
ATOM     25  C   UNL     1       1.416  10.538  18.519  0.00  0.00    +0.000 A 
ATOM     26  C   UNL     1       0.994  10.412  19.839  0.00  0.00    +0.000 A 
ATOM     27 CL   UNL     1       0.306  11.763  20.652  0.00  0.00    +0.000 Cl
ATOM     28  C   UNL     1       1.104   9.193  20.501  0.00  0.00    +0.000 A 
ATOM     29  C   UNL     1       1.624   8.085  19.828  0.00  0.00    +0.000 A 
ATOM     30 CL   UNL     1       1.702   6.596  20.705  0.00  0.00    +0.000 Cl
ENDBRANCH  22  23
ENDBRANCH  21  22
ENDBRANCH   3  21
TORSDOF 5
ENDMDL
MODEL 9
REMARK VINA RESULT:      -7.2      1.331      1.889
REMARK  Name = 
REMARK  7 active torsions:
REMARK  status: ('A' for Active; 'I' for Inactive)
REMARK    1  A    between atoms: C_1  and  C_2
REMARK    2  A    between atoms: C_5  and  N_6
REMARK    3  A    between atoms: C_7  and  C_19
REMARK    4  A    between atoms: N_8  and  O_9
REMARK    5  A    between atoms: O_9  and  C_10
REMARK    6  A    between atoms: C_10  and  C_11
REMARK    7  A    between atoms: C_25  and  C_26
REMARK                            x       y       z     vdW  Elec       q    Type
REMARK                         _______ _______ _______ _____ _____    ______ ____
ROOT
ATOM      1  N   UNL     1       4.975   4.050  18.064  0.00  0.00    +0.000 NA
ATOM      2  C   UNL     1       4.783   5.030  17.245  0.00  0.00    +0.000 C 
ATOM      3  N   UNL     1       3.850   6.045  17.171  0.00  0.00    +0.000 N 
ATOM      4  H   UNL     1       3.319   6.122  16.302  0.00  0.00    +0.000 HD
ENDROOT
BRANCH   1   9
ATOM      5  C   UNL     1       0.993   2.674  21.943  0.00  0.00    +0.000 C 
ATOM      6  C   UNL     1       2.102   2.999  20.988  0.00  0.00    +0.000 A 
ATOM      7  C   UNL     1       2.896   4.127  21.176  0.00  0.00    +0.000 A 
ATOM      8  C   UNL     1       3.856   4.479  20.224  0.00  0.00    +0.000 A 
ATOM      9  C   UNL     1       4.125   3.665  19.114  0.00  0.00    +0.000 A 
ATOM     10  C   UNL     1       3.376   2.482  18.965  0.00  0.00    +0.000 A 
ATOM     11  C   UNL     1       3.626   1.509  17.846  0.00  0.00    +0.000 C 
ATOM     12  C   UNL     1       2.360   2.172  19.891  0.00  0.00    +0.000 A 
ENDBRANCH   1   9
BRANCH   2  13
ATOM     13  C   UNL     1       5.768   5.171  16.161  0.00  0.00    +0.000 A 
ATOM     14  N   UNL     1       5.445   5.683  14.960  0.00  0.00    +0.000 NA
ATOM     15  O   UNL     1       6.634   5.722  14.244  0.00  0.00    +0.000 OA
ATOM     16  N   UNL     1       7.689   5.214  14.984  0.00  0.00    +0.000 NA
ATOM     17  C   UNL     1       7.160   4.859  16.153  0.00  0.00    +0.000 A 
ATOM     18  N   UNL     1       7.856   4.301  17.159  0.00  0.00    +0.000 N 
ATOM     19  H   UNL     1       8.868   4.310  17.148  0.00  0.00    +0.000 HD
ATOM     20  H   UNL     1       7.418   4.177  18.071  0.00  0.00    +0.000 HD
ENDBRANCH   2  13
BRANCH   3  21
ATOM     21  O   UNL     1       3.209   6.442  18.336  0.00  0.00    +0.000 OA
BRANCH  21  22
ATOM     22  C   UNL     1       2.725   7.771  18.093  0.00  0.00    +0.000 C 
BRANCH  22  23
ATOM     23  C   UNL     1       1.877   8.274  19.239  0.00  0.00    +0.000 A 
ATOM     24  C   UNL     1       1.660   7.467  20.371  0.00  0.00    +0.000 A 
ATOM     25  C   UNL     1       0.974   7.964  21.482  0.00  0.00    +0.000 A 
ATOM     26  C   UNL     1       0.505   9.274  21.478  0.00  0.00    +0.000 A 
ATOM     27 CL   UNL     1      -0.294   9.903  22.865  0.00  0.00    +0.000 Cl
ATOM     28  C   UNL     1       0.696  10.088  20.366  0.00  0.00    +0.000 A 
ATOM     29  C   UNL     1       1.382   9.591  19.255  0.00  0.00    +0.000 A 
ATOM     30 CL   UNL     1       1.608  10.670  17.922  0.00  0.00    +0.000 Cl
ENDBRANCH  22  23
ENDBRANCH  21  22
ENDBRANCH   3  21
TORSDOF 5
ENDMDL
