MODEL 1
REMARK VINA RESULT:      -5.5      0.000      0.000
REMARK  Name = 
REMARK  2 active torsions:
REMARK  status: ('A' for Active; 'I' for Inactive)
REMARK    1  A    between atoms: O_1  and  C_2
REMARK    2  A    between atoms: C_2  and  C_3
REMARK                            x       y       z     vdW  Elec       q    Type
REMARK                         _______ _______ _______ _____ _____    ______ ____
ROOT
ATOM      1  C   UNL     1       3.174   2.908  20.163  0.00  0.00    +0.000 C 
ATOM      2  C   UNL     1       1.760   2.431  19.568  0.00  0.00    +0.000 C 
ATOM      3  C   UNL     1       1.489   3.904  19.023  0.00  0.00    +0.000 C 
ATOM      4  C   UNL     1       0.833   4.248  20.365  0.00  0.00    +0.000 C 
ATOM      5  C   UNL     1       1.098   2.828  20.892  0.00  0.00    +0.000 C 
ATOM      6  C   UNL     1       2.446   3.293  21.467  0.00  0.00    +0.000 C 
ATOM      7  C   UNL     1       2.181   4.712  20.940  0.00  0.00    +0.000 C 
ATOM      8  C   UNL     1       2.886   4.390  19.618  0.00  0.00    +0.000 C 
ENDROOT
BRANCH   1   9
ATOM      9  C   UNL     1       4.456   2.168  20.045  0.00  0.00    +0.000 C 
BRANCH   9  10
ATOM     10  O   UNL     1       5.392   2.994  19.365  0.00  0.00    +0.000 OA
ATOM     11  H   UNL     1       4.987   3.248  18.520  0.00  0.00    +0.000 HD
ENDBRANCH   9  10
ENDBRANCH   1   9
TORSDOF 2
ENDMDL
MODEL 2
REMARK VINA RESULT:      -5.4      0.115      1.657
REMARK  Name = 
REMARK  2 active torsions:
REMARK  status: ('A' for Active; 'I' for Inactive)
REMARK    1  A    between atoms: O_1  and  C_2
REMARK    2  A    between atoms: C_2  and  C_3
REMARK                            x       y       z     vdW  Elec       q    Type
REMARK                         _______ _______ _______ _____ _____    ______ ____
ROOT
ATOM      1  C   UNL     1       3.187   2.923  20.090  0.00  0.00    +0.000 C 
ATOM      2  C   UNL     1       2.407   3.213  21.463  0.00  0.00    +0.000 C 
ATOM      3  C   UNL     1       1.028   2.819  20.767  0.00  0.00    +0.000 C 
ATOM      4  C   UNL     1       0.861   4.281  20.339  0.00  0.00    +0.000 C 
ATOM      5  C   UNL     1       2.192   4.660  21.007  0.00  0.00    +0.000 C 
ATOM      6  C   UNL     1       2.932   4.390  19.686  0.00  0.00    +0.000 C 
ATOM      7  C   UNL     1       1.601   4.011  19.018  0.00  0.00    +0.000 C 
ATOM      8  C   UNL     1       1.791   2.537  19.396  0.00  0.00    +0.000 C 
ENDROOT
BRANCH   1   9
ATOM      9  C   UNL     1       4.462   2.174  19.960  0.00  0.00    +0.000 C 
BRANCH   9  10
ATOM     10  O   UNL     1       5.401   2.995  19.278  0.00  0.00    +0.000 OA
ATOM     11  H   UNL     1       4.921   3.782  18.969  0.00  0.00    +0.000 HD
ENDBRANCH   9  10
ENDBRANCH   1   9
TORSDOF 2
ENDMDL
MODEL 3
REMARK VINA RESULT:      -5.4      1.735      2.826
REMARK  Name = 
REMARK  2 active torsions:
REMARK  status: ('A' for Active; 'I' for Inactive)
REMARK    1  A    between atoms: O_1  and  C_2
REMARK    2  A    between atoms: C_2  and  C_3
REMARK                            x       y       z     vdW  Elec       q    Type
REMARK                         _______ _______ _______ _____ _____    ______ ____
ROOT
ATOM      1  C   UNL     1       1.908   3.141  19.863  0.00  0.00    +0.000 C 
ATOM      2  C   UNL     1       3.215   2.486  19.196  0.00  0.00    +0.000 C 
ATOM      3  C   UNL     1       3.542   3.868  18.473  0.00  0.00    +0.000 C 
ATOM      4  C   UNL     1       2.684   3.415  17.286  0.00  0.00    +0.000 C 
ATOM      5  C   UNL     1       2.365   2.084  17.986  0.00  0.00    +0.000 C 
ATOM      6  C   UNL     1       1.110   2.714  18.613  0.00  0.00    +0.000 C 
ATOM      7  C   UNL     1       1.429   4.045  17.913  0.00  0.00    +0.000 C 
ATOM      8  C   UNL     1       2.243   4.525  19.120  0.00  0.00    +0.000 C 
ENDROOT
BRANCH   1   9
ATOM      9  C   UNL     1       1.490   2.989  21.279  0.00  0.00    +0.000 C 
BRANCH   9  10
ATOM     10  O   UNL     1       2.620   2.589  22.043  0.00  0.00    +0.000 OA
ATOM     11  H   UNL     1       3.087   3.399  22.306  0.00  0.00    +0.000 HD
ENDBRANCH   9  10
ENDBRANCH   1   9
TORSDOF 2
ENDMDL
MODEL 4
REMARK VINA RESULT:      -5.3      1.732      2.768
REMARK  Name = 
REMARK  2 active torsions:
REMARK  status: ('A' for Active; 'I' for Inactive)
REMARK    1  A    between atoms: O_1  and  C_2
REMARK    2  A    between atoms: C_2  and  C_3
REMARK                            x       y       z     vdW  Elec       q    Type
REMARK                         _______ _______ _______ _____ _____    ______ ____
ROOT
ATOM      1  C   UNL     1       1.936   3.129  19.875  0.00  0.00    +0.000 C 
ATOM      2  C   UNL     1       1.108   2.713  18.562  0.00  0.00    +0.000 C 
ATOM      3  C   UNL     1       2.436   2.120  17.909  0.00  0.00    +0.000 C 
ATOM      4  C   UNL     1       2.725   3.503  17.315  0.00  0.00    +0.000 C 
ATOM      5  C   UNL     1       1.447   4.075  17.947  0.00  0.00    +0.000 C 
ATOM      6  C   UNL     1       2.247   4.480  19.198  0.00  0.00    +0.000 C 
ATOM      7  C   UNL     1       3.525   3.907  18.564  0.00  0.00    +0.000 C 
ATOM      8  C   UNL     1       3.269   2.537  19.202  0.00  0.00    +0.000 C 
ENDROOT
BRANCH   1   9
ATOM      9  C   UNL     1       1.498   2.918  21.278  0.00  0.00    +0.000 C 
BRANCH   9  10
ATOM     10  O   UNL     1       2.636   2.579  22.059  0.00  0.00    +0.000 OA
ATOM     11  H   UNL     1       2.370   1.856  22.652  0.00  0.00    +0.000 HD
ENDBRANCH   9  10
ENDBRANCH   1   9
TORSDOF 2
ENDMDL
MODEL 5
REMARK VINA RESULT:      -5.3      0.664      2.146
REMARK  Name = 
REMARK  2 active torsions:
REMARK  status: ('A' for Active; 'I' for Inactive)
REMARK    1  A    between atoms: O_1  and  C_2
REMARK    2  A    between atoms: C_2  and  C_3
REMARK                            x       y       z     vdW  Elec       q    Type
REMARK                         _______ _______ _______ _____ _____    ______ ____
ROOT
ATOM      1  C   UNL     1       3.268   3.996  19.758  0.00  0.00    +0.000 C 
ATOM      2  C   UNL     1       2.368   4.655  20.915  0.00  0.00    +0.000 C 
ATOM      3  C   UNL     1       2.249   3.237  21.633  0.00  0.00    +0.000 C 
ATOM      4  C   UNL     1       0.998   2.950  20.794  0.00  0.00    +0.000 C 
ATOM      5  C   UNL     1       1.116   4.316  20.098  0.00  0.00    +0.000 C 
ATOM      6  C   UNL     1       1.969   3.678  18.989  0.00  0.00    +0.000 C 
ATOM      7  C   UNL     1       1.851   2.313  19.685  0.00  0.00    +0.000 C 
ATOM      8  C   UNL     1       3.132   2.571  20.486  0.00  0.00    +0.000 C 
ENDROOT
BRANCH   1   9
ATOM      9  C   UNL     1       4.515   4.574  19.197  0.00  0.00    +0.000 C 
BRANCH   9  10
ATOM     10  O   UNL     1       5.486   3.542  19.098  0.00  0.00    +0.000 OA
ATOM     11  H   UNL     1       6.231   3.899  18.587  0.00  0.00    +0.000 HD
ENDBRANCH   9  10
ENDBRANCH   1   9
TORSDOF 2
ENDMDL
MODEL 6
REMARK VINA RESULT:      -5.3      0.630      1.776
REMARK  Name = 
REMARK  2 active torsions:
REMARK  status: ('A' for Active; 'I' for Inactive)
REMARK    1  A    between atoms: O_1  and  C_2
REMARK    2  A    between atoms: C_2  and  C_3
REMARK                            x       y       z     vdW  Elec       q    Type
REMARK                         _______ _______ _______ _____ _____    ______ ____
ROOT
ATOM      1  C   UNL     1       2.939   2.644  19.636  0.00  0.00    +0.000 C 
ATOM      2  C   UNL     1       2.789   4.187  19.216  0.00  0.00    +0.000 C 
ATOM      3  C   UNL     1       2.477   4.572  20.731  0.00  0.00    +0.000 C 
ATOM      4  C   UNL     1       0.989   4.330  20.455  0.00  0.00    +0.000 C 
ATOM      5  C   UNL     1       1.290   3.955  18.995  0.00  0.00    +0.000 C 
ATOM      6  C   UNL     1       1.423   2.477  19.402  0.00  0.00    +0.000 C 
ATOM      7  C   UNL     1       1.123   2.853  20.862  0.00  0.00    +0.000 C 
ATOM      8  C   UNL     1       2.614   3.043  21.157  0.00  0.00    +0.000 C 
ENDROOT
BRANCH   1   9
ATOM      9  C   UNL     1       4.014   1.724  19.185  0.00  0.00    +0.000 C 
BRANCH   9  10
ATOM     10  O   UNL     1       5.149   1.914  20.019  0.00  0.00    +0.000 OA
ATOM     11  H   UNL     1       5.388   1.043  20.379  0.00  0.00    +0.000 HD
ENDBRANCH   9  10
ENDBRANCH   1   9
TORSDOF 2
ENDMDL
MODEL 7
REMARK VINA RESULT:      -5.3      1.726      2.971
REMARK  Name = 
REMARK  2 active torsions:
REMARK  status: ('A' for Active; 'I' for Inactive)
REMARK    1  A    between atoms: O_1  and  C_2
REMARK    2  A    between atoms: C_2  and  C_3
REMARK                            x       y       z     vdW  Elec       q    Type
REMARK                         _______ _______ _______ _____ _____    ______ ____
ROOT
ATOM      1  C   UNL     1       1.945   3.144  19.889  0.00  0.00    +0.000 C 
ATOM      2  C   UNL     1       2.283   4.551  19.190  0.00  0.00    +0.000 C 
ATOM      3  C   UNL     1       1.455   4.113  17.900  0.00  0.00    +0.000 C 
ATOM      4  C   UNL     1       2.734   3.495  17.325  0.00  0.00    +0.000 C 
ATOM      5  C   UNL     1       3.532   3.914  18.571  0.00  0.00    +0.000 C 
ATOM      6  C   UNL     1       3.212   2.561  19.231  0.00  0.00    +0.000 C 
ATOM      7  C   UNL     1       2.415   2.143  17.985  0.00  0.00    +0.000 C 
ATOM      8  C   UNL     1       1.121   2.710  18.580  0.00  0.00    +0.000 C 
ENDROOT
BRANCH   1   9
ATOM      9  C   UNL     1       1.508   2.959  21.296  0.00  0.00    +0.000 C 
BRANCH   9  10
ATOM     10  O   UNL     1       2.635   2.572  22.071  0.00  0.00    +0.000 OA
ATOM     11  H   UNL     1       2.958   3.369  22.522  0.00  0.00    +0.000 HD
ENDBRANCH   9  10
ENDBRANCH   1   9
TORSDOF 2
ENDMDL
MODEL 8
REMARK VINA RESULT:      -5.3      0.636      1.511
REMARK  Name = 
REMARK  2 active torsions:
REMARK  status: ('A' for Active; 'I' for Inactive)
REMARK    1  A    between atoms: O_1  and  C_2
REMARK    2  A    between atoms: C_2  and  C_3
REMARK                            x       y       z     vdW  Elec       q    Type
REMARK                         _______ _______ _______ _____ _____    ______ ____
ROOT
ATOM      1  C   UNL     1       3.233   4.003  19.771  0.00  0.00    +0.000 C 
ATOM      2  C   UNL     1       3.074   2.537  20.409  0.00  0.00    +0.000 C 
ATOM      3  C   UNL     1       1.703   2.340  19.620  0.00  0.00    +0.000 C 
ATOM      4  C   UNL     1       0.963   2.961  20.810  0.00  0.00    +0.000 C 
ATOM      5  C   UNL     1       2.286   3.155  21.569  0.00  0.00    +0.000 C 
ATOM      6  C   UNL     1       2.428   4.561  20.963  0.00  0.00    +0.000 C 
ATOM      7  C   UNL     1       1.105   4.367  20.204  0.00  0.00    +0.000 C 
ATOM      8  C   UNL     1       1.845   3.796  18.989  0.00  0.00    +0.000 C 
ENDROOT
BRANCH   1   9
ATOM      9  C   UNL     1       4.481   4.567  19.199  0.00  0.00    +0.000 C 
BRANCH   9  10
ATOM     10  O   UNL     1       5.466   3.543  19.167  0.00  0.00    +0.000 OA
ATOM     11  H   UNL     1       5.134   2.810  19.711  0.00  0.00    +0.000 HD
ENDBRANCH   9  10
ENDBRANCH   1   9
TORSDOF 2
ENDMDL
MODEL 9
REMARK VINA RESULT:      -5.3      1.107      1.995
REMARK  Name = 
REMARK  2 active torsions:
REMARK  status: ('A' for Active; 'I' for Inactive)
REMARK    1  A    between atoms: O_1  and  C_2
REMARK    2  A    between atoms: C_2  and  C_3
REMARK                            x       y       z     vdW  Elec       q    Type
REMARK                         _______ _______ _______ _____ _____    ______ ____
ROOT
ATOM      1  C   UNL     1       3.258   3.867  19.196  0.00  0.00    +0.000 C 
ATOM      2  C   UNL     1       2.618   2.831  20.243  0.00  0.00    +0.000 C 
ATOM      3  C   UNL     1       2.043   1.963  19.036  0.00  0.00    +0.000 C 
ATOM      4  C   UNL     1       0.770   2.815  19.069  0.00  0.00    +0.000 C 
ATOM      5  C   UNL     1       1.326   3.655  20.230  0.00  0.00    +0.000 C 
ATOM      6  C   UNL     1       1.929   4.649  19.222  0.00  0.00    +0.000 C 
ATOM      7  C   UNL     1       1.372   3.809  18.062  0.00  0.00    +0.000 C 
ATOM      8  C   UNL     1       2.666   2.989  17.989  0.00  0.00    +0.000 C 
ENDROOT
BRANCH   1   9
ATOM      9  C   UNL     1       4.627   4.438  19.270  0.00  0.00    +0.000 C 
BRANCH   9  10
ATOM     10  O   UNL     1       5.565   3.382  19.118  0.00  0.00    +0.000 OA
ATOM     11  H   UNL     1       5.075   2.609  18.794  0.00  0.00    +0.000 HD
ENDBRANCH   9  10
ENDBRANCH   1   9
TORSDOF 2
ENDMDL
