MODEL 1
REMARK VINA RESULT:      -7.8      0.000      0.000
REMARK  Name = 
REMARK  9 active torsions:
REMARK  status: ('A' for Active; 'I' for Inactive)
REMARK    1  A    between atoms: C_1  and  O_2
REMARK    2  A    between atoms: O_2  and  C_3
REMARK    3  A    between atoms: C_5  and  C_6
REMARK    4  A    between atoms: C_6  and  N_7
REMARK    5  A    between atoms: N_7  and  C_8
REMARK    6  A    between atoms: C_8  and  C_9
REMARK    7  A    between atoms: C_17  and  O_18
REMARK    8  A    between atoms: O_18  and  C_19
REMARK    9  A    between atoms: C_19  and  C_20
REMARK                            x       y       z     vdW  Elec       q    Type
REMARK                         _______ _______ _______ _____ _____    ______ ____
ROOT
ATOM      1  C   UNL     1       2.166   4.762  20.102  0.00  0.00    +0.000 A 
ATOM      2  C   UNL     1       2.647   3.903  19.098  0.00  0.00    +0.000 A 
ATOM      3  C   UNL     1       3.201   4.409  17.919  0.00  0.00    +0.000 A 
ATOM      4  C   UNL     1       3.200   5.791  17.716  0.00  0.00    +0.000 A 
ATOM      5  C   UNL     1       2.661   6.646  18.672  0.00  0.00    +0.000 A 
ATOM      6  C   UNL     1       2.105   6.146  19.858  0.00  0.00    +0.000 A 
ENDROOT
BRANCH   1   8
ATOM      7  C   UNL     1       2.034   2.913  21.569  0.00  0.00    +0.000 C 
ATOM      8  O   UNL     1       1.758   4.293  21.325  0.00  0.00    +0.000 OA
ENDBRANCH   1   8
BRANCH   3   9
ATOM      9  C   UNL     1       3.897   3.507  16.933  0.00  0.00    +0.000 C 
BRANCH   9  10
ATOM     10  N   UNL     1       4.791   4.322  16.119  0.00  0.00    +0.000 NA
ATOM     11  H   UNL     1       4.657   5.306  16.357  0.00  0.00    +0.000 HD
BRANCH  10  12
ATOM     12  C   UNL     1       6.197   3.984  16.324  0.00  0.00    +0.000 C 
BRANCH  12  13
ATOM     13  C   UNL     1       6.889   5.044  17.160  0.00  0.00    +0.000 A 
ATOM     14  C   UNL     1       6.907   6.372  16.733  0.00  0.00    +0.000 A 
ATOM     15  C   UNL     1       7.517   7.332  17.534  0.00  0.00    +0.000 A 
ATOM     16  C   UNL     1       8.099   6.944  18.730  0.00  0.00    +0.000 A 
ATOM     17  C   UNL     1       8.039   5.604  19.085  0.00  0.00    +0.000 A 
ATOM     18  N   UNL     1       7.448   4.649  18.332  0.00  0.00    +0.000 NA
ENDBRANCH  12  13
ENDBRANCH  10  12
ENDBRANCH   9  10
ENDBRANCH   3   9
BRANCH   6  19
ATOM     19  O   UNL     1       1.528   6.960  20.816  0.00  0.00    +0.000 OA
BRANCH  19  20
ATOM     20  C   UNL     1       1.686   8.364  20.554  0.00  0.00    +0.000 C 
BRANCH  20  21
ATOM     21  C   UNL     1       0.713   9.279  21.262  0.00  0.00    +0.000 A 
ATOM     22  C   UNL     1       0.456   9.166  22.634  0.00  0.00    +0.000 A 
ATOM     23  C   UNL     1      -0.453  10.025  23.256  0.00  0.00    +0.000 A 
ATOM     24  C   UNL     1      -1.120  11.003  22.520  0.00  0.00    +0.000 A 
ATOM     25  C   UNL     1      -0.870  11.137  21.157  0.00  0.00    +0.000 A 
ATOM     26  C   UNL     1       0.042  10.283  20.534  0.00  0.00    +0.000 A 
ATOM     27 CL   UNL     1       0.314  10.514  18.839  0.00  0.00    +0.000 Cl
ENDBRANCH  20  21
ENDBRANCH  19  20
ENDBRANCH   6  19
TORSDOF 8
ENDMDL
MODEL 2
REMARK VINA RESULT:      -7.7      0.760      1.064
REMARK  Name = 
REMARK  9 active torsions:
REMARK  status: ('A' for Active; 'I' for Inactive)
REMARK    1  A    between atoms: C_1  and  O_2
REMARK    2  A    between atoms: O_2  and  C_3
REMARK    3  A    between atoms: C_5  and  C_6
REMARK    4  A    between atoms: C_6  and  N_7
REMARK    5  A    between atoms: N_7  and  C_8
REMARK    6  A    between atoms: C_8  and  C_9
REMARK    7  A    between atoms: C_17  and  O_18
REMARK    8  A    between atoms: O_18  and  C_19
REMARK    9  A    between atoms: C_19  and  C_20
REMARK                            x       y       z     vdW  Elec       q    Type
REMARK                         _______ _______ _______ _____ _____    ______ ____
ROOT
ATOM      1  C   UNL     1       2.271   4.987  19.843  0.00  0.00    +0.000 A 
ATOM      2  C   UNL     1       2.799   4.127  18.865  0.00  0.00    +0.000 A 
ATOM      3  C   UNL     1       3.491   4.630  17.760  0.00  0.00    +0.000 A 
ATOM      4  C   UNL     1       3.584   6.014  17.598  0.00  0.00    +0.000 A 
ATOM      5  C   UNL     1       3.001   6.874  18.523  0.00  0.00    +0.000 A 
ATOM      6  C   UNL     1       2.308   6.377  19.636  0.00  0.00    +0.000 A 
ENDROOT
BRANCH   1   8
ATOM      7  C   UNL     1       1.668   3.089  21.117  0.00  0.00    +0.000 C 
ATOM      8  O   UNL     1       1.721   4.511  21.007  0.00  0.00    +0.000 OA
ENDBRANCH   1   8
BRANCH   3   9
ATOM      9  C   UNL     1       4.230   3.714  16.818  0.00  0.00    +0.000 C 
BRANCH   9  10
ATOM     10  N   UNL     1       4.867   4.530  15.791  0.00  0.00    +0.000 NA
ATOM     11  H   UNL     1       4.616   5.510  15.939  0.00  0.00    +0.000 HD
BRANCH  10  12
ATOM     12  C   UNL     1       6.323   4.418  15.812  0.00  0.00    +0.000 C 
BRANCH  12  13
ATOM     13  C   UNL     1       6.920   5.358  16.842  0.00  0.00    +0.000 A 
ATOM     14  C   UNL     1       7.303   4.874  18.094  0.00  0.00    +0.000 A 
ATOM     15  C   UNL     1       7.882   5.747  19.009  0.00  0.00    +0.000 A 
ATOM     16  C   UNL     1       8.055   7.077  18.659  0.00  0.00    +0.000 A 
ATOM     17  C   UNL     1       7.649   7.480  17.395  0.00  0.00    +0.000 A 
ATOM     18  N   UNL     1       7.090   6.655  16.482  0.00  0.00    +0.000 NA
ENDBRANCH  12  13
ENDBRANCH  10  12
ENDBRANCH   9  10
ENDBRANCH   3   9
BRANCH   6  19
ATOM     19  O   UNL     1       1.684   7.199  20.559  0.00  0.00    +0.000 OA
BRANCH  19  20
ATOM     20  C   UNL     1       1.529   8.556  20.112  0.00  0.00    +0.000 C 
BRANCH  20  21
ATOM     21  C   UNL     1       0.691   9.448  21.000  0.00  0.00    +0.000 A 
ATOM     22  C   UNL     1       0.132   8.986  22.197  0.00  0.00    +0.000 A 
ATOM     23  C   UNL     1      -0.641   9.836  22.991  0.00  0.00    +0.000 A 
ATOM     24  C   UNL     1      -0.872  11.153  22.600  0.00  0.00    +0.000 A 
ATOM     25  C   UNL     1      -0.317  11.634  21.417  0.00  0.00    +0.000 A 
ATOM     26  C   UNL     1       0.461  10.788  20.624  0.00  0.00    +0.000 A 
ATOM     27 CL   UNL     1       1.130  11.455  19.174  0.00  0.00    +0.000 Cl
ENDBRANCH  20  21
ENDBRANCH  19  20
ENDBRANCH   6  19
TORSDOF 8
ENDMDL
MODEL 3
REMARK VINA RESULT:      -7.6      1.100      1.577
REMARK  Name = 
REMARK  9 active torsions:
REMARK  status: ('A' for Active; 'I' for Inactive)
REMARK    1  A    between atoms: C_1  and  O_2
REMARK    2  A    between atoms: O_2  and  C_3
REMARK    3  A    between atoms: C_5  and  C_6
REMARK    4  A    between atoms: C_6  and  N_7
REMARK    5  A    between atoms: N_7  and  C_8
REMARK    6  A    between atoms: C_8  and  C_9
REMARK    7  A    between atoms: C_17  and  O_18
REMARK    8  A    between atoms: O_18  and  C_19
REMARK    9  A    between atoms: C_19  and  C_20
REMARK                            x       y       z     vdW  Elec       q    Type
REMARK                         _______ _______ _______ _____ _____    ______ ____
ROOT
ATOM      1  C   UNL     1       2.384   4.575  20.263  0.00  0.00    +0.000 A 
ATOM      2  C   UNL     1       3.001   3.718  19.336  0.00  0.00    +0.000 A 
ATOM      3  C   UNL     1       3.474   4.200  18.112  0.00  0.00    +0.000 A 
ATOM      4  C   UNL     1       3.254   5.541  17.788  0.00  0.00    +0.000 A 
ATOM      5  C   UNL     1       2.580   6.379  18.669  0.00  0.00    +0.000 A 
ATOM      6  C   UNL     1       2.104   5.904  19.899  0.00  0.00    +0.000 A 
ENDROOT
BRANCH   1   8
ATOM      7  C   UNL     1       1.498   2.841  21.604  0.00  0.00    +0.000 C 
ATOM      8  O   UNL     1       2.048   4.156  21.526  0.00  0.00    +0.000 OA
ENDBRANCH   1   8
BRANCH   3   9
ATOM      9  C   UNL     1       4.312   3.337  17.203  0.00  0.00    +0.000 C 
BRANCH   9  10
ATOM     10  N   UNL     1       4.844   4.177  16.137  0.00  0.00    +0.000 NA
ATOM     11  H   UNL     1       4.579   5.148  16.312  0.00  0.00    +0.000 HD
BRANCH  10  12
ATOM     12  C   UNL     1       6.300   4.105  16.044  0.00  0.00    +0.000 C 
BRANCH  12  13
ATOM     13  C   UNL     1       6.950   5.093  16.994  0.00  0.00    +0.000 A 
ATOM     14  C   UNL     1       6.968   6.453  16.687  0.00  0.00    +0.000 A 
ATOM     15  C   UNL     1       7.538   7.344  17.590  0.00  0.00    +0.000 A 
ATOM     16  C   UNL     1       8.082   6.857  18.768  0.00  0.00    +0.000 A 
ATOM     17  C   UNL     1       8.025   5.491  19.001  0.00  0.00    +0.000 A 
ATOM     18  N   UNL     1       7.472   4.601  18.147  0.00  0.00    +0.000 NA
ENDBRANCH  12  13
ENDBRANCH  10  12
ENDBRANCH   9  10
ENDBRANCH   3   9
BRANCH   6  19
ATOM     19  O   UNL     1       1.398   6.697  20.787  0.00  0.00    +0.000 OA
BRANCH  19  20
ATOM     20  C   UNL     1       1.891   8.044  20.877  0.00  0.00    +0.000 C 
BRANCH  20  21
ATOM     21  C   UNL     1       0.928   9.127  20.448  0.00  0.00    +0.000 A 
ATOM     22  C   UNL     1       0.805   9.520  19.110  0.00  0.00    +0.000 A 
ATOM     23  C   UNL     1      -0.092  10.527  18.748  0.00  0.00    +0.000 A 
ATOM     24  C   UNL     1      -0.873  11.159  19.714  0.00  0.00    +0.000 A 
ATOM     25  C   UNL     1      -0.771  10.776  21.048  0.00  0.00    +0.000 A 
ATOM     26  C   UNL     1       0.121   9.765  21.411  0.00  0.00    +0.000 A 
ATOM     27 CL   UNL     1       0.186   9.330  23.086  0.00  0.00    +0.000 Cl
ENDBRANCH  20  21
ENDBRANCH  19  20
ENDBRANCH   6  19
TORSDOF 8
ENDMDL
MODEL 4
REMARK VINA RESULT:      -7.4      3.515      8.104
REMARK  Name = 
REMARK  9 active torsions:
REMARK  status: ('A' for Active; 'I' for Inactive)
REMARK    1  A    between atoms: C_1  and  O_2
REMARK    2  A    between atoms: O_2  and  C_3
REMARK    3  A    between atoms: C_5  and  C_6
REMARK    4  A    between atoms: C_6  and  N_7
REMARK    5  A    between atoms: N_7  and  C_8
REMARK    6  A    between atoms: C_8  and  C_9
REMARK    7  A    between atoms: C_17  and  O_18
REMARK    8  A    between atoms: O_18  and  C_19
REMARK    9  A    between atoms: C_19  and  C_20
REMARK                            x       y       z     vdW  Elec       q    Type
REMARK                         _______ _______ _______ _____ _____    ______ ____
ROOT
ATOM      1  C   UNL     1       1.801   5.081  19.969  0.00  0.00    +0.000 A 
ATOM      2  C   UNL     1       1.570   6.236  20.737  0.00  0.00    +0.000 A 
ATOM      3  C   UNL     1       1.771   7.511  20.201  0.00  0.00    +0.000 A 
ATOM      4  C   UNL     1       2.284   7.622  18.907  0.00  0.00    +0.000 A 
ATOM      5  C   UNL     1       2.585   6.484  18.166  0.00  0.00    +0.000 A 
ATOM      6  C   UNL     1       2.384   5.202  18.695  0.00  0.00    +0.000 A 
ENDROOT
BRANCH   1   8
ATOM      7  C   UNL     1       2.099   3.438  21.643  0.00  0.00    +0.000 C 
ATOM      8  O   UNL     1       1.468   3.830  20.423  0.00  0.00    +0.000 OA
ENDBRANCH   1   8
BRANCH   3   9
ATOM      9  C   UNL     1       1.336   8.748  20.944  0.00  0.00    +0.000 C 
BRANCH   9  10
ATOM     10  N   UNL     1       1.056   9.794  19.967  0.00  0.00    +0.000 NA
ATOM     11  H   UNL     1       0.857   9.362  19.063  0.00  0.00    +0.000 HD
BRANCH  10  12
ATOM     12  C   UNL     1      -0.086  10.621  20.347  0.00  0.00    +0.000 C 
BRANCH  12  13
ATOM     13  C   UNL     1      -1.080  10.723  19.206  0.00  0.00    +0.000 A 
ATOM     14  C   UNL     1      -0.914   9.945  18.060  0.00  0.00    +0.000 A 
ATOM     15  C   UNL     1      -1.858  10.029  17.041  0.00  0.00    +0.000 A 
ATOM     16  C   UNL     1      -2.934  10.891  17.187  0.00  0.00    +0.000 A 
ATOM     17  C   UNL     1      -3.028  11.631  18.357  0.00  0.00    +0.000 A 
ATOM     18  N   UNL     1      -2.132  11.566  19.366  0.00  0.00    +0.000 NA
ENDBRANCH  12  13
ENDBRANCH  10  12
ENDBRANCH   9  10
ENDBRANCH   3   9
BRANCH   6  19
ATOM     19  O   UNL     1       2.703   4.046  18.004  0.00  0.00    +0.000 OA
BRANCH  19  20
ATOM     20  C   UNL     1       4.051   3.598  18.220  0.00  0.00    +0.000 C 
BRANCH  20  21
ATOM     21  C   UNL     1       5.082   4.120  17.245  0.00  0.00    +0.000 A 
ATOM     22  C   UNL     1       5.024   3.826  15.878  0.00  0.00    +0.000 A 
ATOM     23  C   UNL     1       5.996   4.321  15.006  0.00  0.00    +0.000 A 
ATOM     24  C   UNL     1       7.039   5.111  15.485  0.00  0.00    +0.000 A 
ATOM     25  C   UNL     1       7.109   5.423  16.840  0.00  0.00    +0.000 A 
ATOM     26  C   UNL     1       6.136   4.933  17.713  0.00  0.00    +0.000 A 
ATOM     27 CL   UNL     1       6.277   5.370  19.382  0.00  0.00    +0.000 Cl
ENDBRANCH  20  21
ENDBRANCH  19  20
ENDBRANCH   6  19
TORSDOF 8
ENDMDL
MODEL 5
REMARK VINA RESULT:      -7.4      2.090      3.051
REMARK  Name = 
REMARK  9 active torsions:
REMARK  status: ('A' for Active; 'I' for Inactive)
REMARK    1  A    between atoms: C_1  and  O_2
REMARK    2  A    between atoms: O_2  and  C_3
REMARK    3  A    between atoms: C_5  and  C_6
REMARK    4  A    between atoms: C_6  and  N_7
REMARK    5  A    between atoms: N_7  and  C_8
REMARK    6  A    between atoms: C_8  and  C_9
REMARK    7  A    between atoms: C_17  and  O_18
REMARK    8  A    between atoms: O_18  and  C_19
REMARK    9  A    between atoms: C_19  and  C_20
REMARK                            x       y       z     vdW  Elec       q    Type
REMARK                         _______ _______ _______ _____ _____    ______ ____
ROOT
ATOM      1  C   UNL     1       1.967   4.718  19.998  0.00  0.00    +0.000 A 
ATOM      2  C   UNL     1       2.759   3.993  19.091  0.00  0.00    +0.000 A 
ATOM      3  C   UNL     1       3.693   4.637  18.274  0.00  0.00    +0.000 A 
ATOM      4  C   UNL     1       3.775   6.031  18.316  0.00  0.00    +0.000 A 
ATOM      5  C   UNL     1       2.944   6.762  19.158  0.00  0.00    +0.000 A 
ATOM      6  C   UNL     1       2.006   6.124  19.982  0.00  0.00    +0.000 A 
ENDROOT
BRANCH   1   8
ATOM      7  C   UNL     1       1.709   2.928  21.520  0.00  0.00    +0.000 C 
ATOM      8  O   UNL     1       1.155   4.094  20.911  0.00  0.00    +0.000 OA
ENDBRANCH   1   8
BRANCH   3   9
ATOM      9  C   UNL     1       4.681   3.853  17.449  0.00  0.00    +0.000 C 
BRANCH   9  10
ATOM     10  N   UNL     1       4.949   4.598  16.225  0.00  0.00    +0.000 NA
ATOM     11  H   UNL     1       4.480   5.504  16.275  0.00  0.00    +0.000 HD
BRANCH  10  12
ATOM     12  C   UNL     1       6.376   4.828  16.012  0.00  0.00    +0.000 C 
BRANCH  12  13
ATOM     13  C   UNL     1       6.734   4.673  14.546  0.00  0.00    +0.000 A 
ATOM     14  C   UNL     1       6.054   3.748  13.753  0.00  0.00    +0.000 A 
ATOM     15  C   UNL     1       6.375   3.649  12.403  0.00  0.00    +0.000 A 
ATOM     16  C   UNL     1       7.368   4.464  11.883  0.00  0.00    +0.000 A 
ATOM     17  C   UNL     1       7.998   5.358  12.737  0.00  0.00    +0.000 A 
ATOM     18  N   UNL     1       7.704   5.482  14.050  0.00  0.00    +0.000 NA
ENDBRANCH  12  13
ENDBRANCH  10  12
ENDBRANCH   9  10
ENDBRANCH   3   9
BRANCH   6  19
ATOM     19  O   UNL     1       1.138   6.817  20.807  0.00  0.00    +0.000 OA
BRANCH  19  20
ATOM     20  C   UNL     1       1.605   8.128  21.166  0.00  0.00    +0.000 C 
BRANCH  20  21
ATOM     21  C   UNL     1       0.733   9.280  20.720  0.00  0.00    +0.000 A 
ATOM     22  C   UNL     1       0.680   9.695  19.384  0.00  0.00    +0.000 A 
ATOM     23  C   UNL     1      -0.133  10.767  19.008  0.00  0.00    +0.000 A 
ATOM     24  C   UNL     1      -0.898  11.442  19.958  0.00  0.00    +0.000 A 
ATOM     25  C   UNL     1      -0.865  11.038  21.289  0.00  0.00    +0.000 A 
ATOM     26  C   UNL     1      -0.057   9.964  21.667  0.00  0.00    +0.000 A 
ATOM     27 CL   UNL     1      -0.076   9.508  23.337  0.00  0.00    +0.000 Cl
ENDBRANCH  20  21
ENDBRANCH  19  20
ENDBRANCH   6  19
TORSDOF 8
ENDMDL
MODEL 6
REMARK VINA RESULT:      -7.3      1.021      1.134
REMARK  Name = 
REMARK  9 active torsions:
REMARK  status: ('A' for Active; 'I' for Inactive)
REMARK    1  A    between atoms: C_1  and  O_2
REMARK    2  A    between atoms: O_2  and  C_3
REMARK    3  A    between atoms: C_5  and  C_6
REMARK    4  A    between atoms: C_6  and  N_7
REMARK    5  A    between atoms: N_7  and  C_8
REMARK    6  A    between atoms: C_8  and  C_9
REMARK    7  A    between atoms: C_17  and  O_18
REMARK    8  A    between atoms: O_18  and  C_19
REMARK    9  A    between atoms: C_19  and  C_20
REMARK                            x       y       z     vdW  Elec       q    Type
REMARK                         _______ _______ _______ _____ _____    ______ ____
ROOT
ATOM      1  C   UNL     1       2.253   5.566  19.480  0.00  0.00    +0.000 A 
ATOM      2  C   UNL     1       2.752   4.551  18.646  0.00  0.00    +0.000 A 
ATOM      3  C   UNL     1       3.572   4.853  17.555  0.00  0.00    +0.000 A 
ATOM      4  C   UNL     1       3.827   6.193  17.256  0.00  0.00    +0.000 A 
ATOM      5  C   UNL     1       3.277   7.207  18.033  0.00  0.00    +0.000 A 
ATOM      6  C   UNL     1       2.456   6.913  19.131  0.00  0.00    +0.000 A 
ENDROOT
BRANCH   1   8
ATOM      7  C   UNL     1       1.319   3.898  20.872  0.00  0.00    +0.000 C 
ATOM      8  O   UNL     1       1.573   5.284  20.639  0.00  0.00    +0.000 OA
ENDBRANCH   1   8
BRANCH   3   9
ATOM      9  C   UNL     1       4.272   3.766  16.779  0.00  0.00    +0.000 C 
BRANCH   9  10
ATOM     10  N   UNL     1       5.131   4.395  15.784  0.00  0.00    +0.000 NA
ATOM     11  H   UNL     1       4.985   5.406  15.806  0.00  0.00    +0.000 HD
BRANCH  10  12
ATOM     12  C   UNL     1       6.547   4.128  16.020  0.00  0.00    +0.000 C 
BRANCH  12  13
ATOM     13  C   UNL     1       7.123   5.115  17.017  0.00  0.00    +0.000 A 
ATOM     14  C   UNL     1       7.192   6.472  16.700  0.00  0.00    +0.000 A 
ATOM     15  C   UNL     1       7.691   7.364  17.644  0.00  0.00    +0.000 A 
ATOM     16  C   UNL     1       8.116   6.880  18.872  0.00  0.00    +0.000 A 
ATOM     17  C   UNL     1       8.015   5.517  19.111  0.00  0.00    +0.000 A 
ATOM     18  N   UNL     1       7.529   4.627  18.217  0.00  0.00    +0.000 NA
ENDBRANCH  12  13
ENDBRANCH  10  12
ENDBRANCH   9  10
ENDBRANCH   3   9
BRANCH   6  19
ATOM     19  O   UNL     1       1.862   7.893  19.907  0.00  0.00    +0.000 OA
BRANCH  19  20
ATOM     20  C   UNL     1       1.376   9.014  19.150  0.00  0.00    +0.000 C 
BRANCH  20  21
ATOM     21  C   UNL     1       0.478   9.972  19.898  0.00  0.00    +0.000 A 
ATOM     22  C   UNL     1       0.753  10.373  21.211  0.00  0.00    +0.000 A 
ATOM     23  C   UNL     1      -0.101  11.257  21.874  0.00  0.00    +0.000 A 
ATOM     24  C   UNL     1      -1.242  11.747  21.242  0.00  0.00    +0.000 A 
ATOM     25  C   UNL     1      -1.528  11.366  19.933  0.00  0.00    +0.000 A 
ATOM     26  C   UNL     1      -0.673  10.488  19.266  0.00  0.00    +0.000 A 
ATOM     27 CL   UNL     1      -1.083  10.068  17.637  0.00  0.00    +0.000 Cl
ENDBRANCH  20  21
ENDBRANCH  19  20
ENDBRANCH   6  19
TORSDOF 8
ENDMDL
MODEL 7
REMARK VINA RESULT:      -7.3      1.340      1.859
REMARK  Name = 
REMARK  9 active torsions:
REMARK  status: ('A' for Active; 'I' for Inactive)
REMARK    1  A    between atoms: C_1  and  O_2
REMARK    2  A    between atoms: O_2  and  C_3
REMARK    3  A    between atoms: C_5  and  C_6
REMARK    4  A    between atoms: C_6  and  N_7
REMARK    5  A    between atoms: N_7  and  C_8
REMARK    6  A    between atoms: C_8  and  C_9
REMARK    7  A    between atoms: C_17  and  O_18
REMARK    8  A    between atoms: O_18  and  C_19
REMARK    9  A    between atoms: C_19  and  C_20
REMARK                            x       y       z     vdW  Elec       q    Type
REMARK                         _______ _______ _______ _____ _____    ______ ____
ROOT
ATOM      1  C   UNL     1       2.353   5.312  20.147  0.00  0.00    +0.000 A 
ATOM      2  C   UNL     1       2.641   4.428  19.092  0.00  0.00    +0.000 A 
ATOM      3  C   UNL     1       3.092   4.902  17.857  0.00  0.00    +0.000 A 
ATOM      4  C   UNL     1       3.179   6.282  17.658  0.00  0.00    +0.000 A 
ATOM      5  C   UNL     1       2.826   7.166  18.672  0.00  0.00    +0.000 A 
ATOM      6  C   UNL     1       2.375   6.698  19.914  0.00  0.00    +0.000 A 
ENDROOT
BRANCH   1   8
ATOM      7  C   UNL     1       2.182   3.453  21.598  0.00  0.00    +0.000 C 
ATOM      8  O   UNL     1       2.054   4.862  21.408  0.00  0.00    +0.000 OA
ENDBRANCH   1   8
BRANCH   3   9
ATOM      9  C   UNL     1       3.593   3.958  16.794  0.00  0.00    +0.000 C 
BRANCH   9  10
ATOM     10  N   UNL     1       4.954   3.563  17.138  0.00  0.00    +0.000 NA
ATOM     11  H   UNL     1       5.051   2.553  17.013  0.00  0.00    +0.000 HD
BRANCH  10  12
ATOM     12  C   UNL     1       5.955   4.230  16.310  0.00  0.00    +0.000 C 
BRANCH  12  13
ATOM     13  C   UNL     1       6.690   5.292  17.105  0.00  0.00    +0.000 A 
ATOM     14  C   UNL     1       7.218   4.988  18.360  0.00  0.00    +0.000 A 
ATOM     15  C   UNL     1       7.920   5.968  19.055  0.00  0.00    +0.000 A 
ATOM     16  C   UNL     1       8.068   7.224  18.487  0.00  0.00    +0.000 A 
ATOM     17  C   UNL     1       7.514   7.447  17.236  0.00  0.00    +0.000 A 
ATOM     18  N   UNL     1       6.833   6.514  16.533  0.00  0.00    +0.000 NA
ENDBRANCH  12  13
ENDBRANCH  10  12
ENDBRANCH   9  10
ENDBRANCH   3   9
BRANCH   6  19
ATOM     19  O   UNL     1       1.981   7.545  20.936  0.00  0.00    +0.000 OA
BRANCH  19  20
ATOM     20  C   UNL     1       0.585   7.886  20.898  0.00  0.00    +0.000 C 
BRANCH  20  21
ATOM     21  C   UNL     1       0.272   9.353  20.711  0.00  0.00    +0.000 A 
ATOM     22  C   UNL     1       0.243   9.948  19.445  0.00  0.00    +0.000 A 
ATOM     23  C   UNL     1      -0.046  11.308  19.309  0.00  0.00    +0.000 A 
ATOM     24  C   UNL     1      -0.304  12.092  20.432  0.00  0.00    +0.000 A 
ATOM     25  C   UNL     1      -0.290  11.516  21.699  0.00  0.00    +0.000 A 
ATOM     26  C   UNL     1      -0.006  10.156  21.837  0.00  0.00    +0.000 A 
ATOM     27 CL   UNL     1      -0.018   9.503  23.441  0.00  0.00    +0.000 Cl
ENDBRANCH  20  21
ENDBRANCH  19  20
ENDBRANCH   6  19
TORSDOF 8
ENDMDL
MODEL 8
REMARK VINA RESULT:      -7.2      2.531      4.599
REMARK  Name = 
REMARK  9 active torsions:
REMARK  status: ('A' for Active; 'I' for Inactive)
REMARK    1  A    between atoms: C_1  and  O_2
REMARK    2  A    between atoms: O_2  and  C_3
REMARK    3  A    between atoms: C_5  and  C_6
REMARK    4  A    between atoms: C_6  and  N_7
REMARK    5  A    between atoms: N_7  and  C_8
REMARK    6  A    between atoms: C_8  and  C_9
REMARK    7  A    between atoms: C_17  and  O_18
REMARK    8  A    between atoms: O_18  and  C_19
REMARK    9  A    between atoms: C_19  and  C_20
REMARK                            x       y       z     vdW  Elec       q    Type
REMARK                         _______ _______ _______ _____ _____    ______ ____
ROOT
ATOM      1  C   UNL     1       1.536   8.101  20.062  0.00  0.00    +0.000 A 
ATOM      2  C   UNL     1       2.343   6.974  19.830  0.00  0.00    +0.000 A 
ATOM      3  C   UNL     1       3.142   6.881  18.687  0.00  0.00    +0.000 A 
ATOM      4  C   UNL     1       3.068   7.896  17.731  0.00  0.00    +0.000 A 
ATOM      5  C   UNL     1       2.217   8.981  17.917  0.00  0.00    +0.000 A 
ATOM      6  C   UNL     1       1.414   9.083  19.062  0.00  0.00    +0.000 A 
ENDROOT
BRANCH   1   8
ATOM      7  C   UNL     1       1.561   9.036  22.233  0.00  0.00    +0.000 C 
ATOM      8  O   UNL     1       0.862   8.281  21.243  0.00  0.00    +0.000 OA
ENDBRANCH   1   8
BRANCH   3   9
ATOM      9  C   UNL     1       4.156   5.776  18.530  0.00  0.00    +0.000 C 
BRANCH   9  10
ATOM     10  N   UNL     1       3.708   4.893  17.460  0.00  0.00    +0.000 NA
ATOM     11  H   UNL     1       4.327   5.003  16.655  0.00  0.00    +0.000 HD
BRANCH  10  12
ATOM     12  C   UNL     1       3.712   3.488  17.858  0.00  0.00    +0.000 C 
BRANCH  12  13
ATOM     13  C   UNL     1       2.850   3.274  19.088  0.00  0.00    +0.000 A 
ATOM     14  C   UNL     1       1.463   3.394  19.000  0.00  0.00    +0.000 A 
ATOM     15  C   UNL     1       0.690   3.158  20.133  0.00  0.00    +0.000 A 
ATOM     16  C   UNL     1       1.318   2.820  21.321  0.00  0.00    +0.000 A 
ATOM     17  C   UNL     1       2.702   2.721  21.327  0.00  0.00    +0.000 A 
ATOM     18  N   UNL     1       3.479   2.937  20.242  0.00  0.00    +0.000 NA
ENDBRANCH  12  13
ENDBRANCH  10  12
ENDBRANCH   9  10
ENDBRANCH   3   9
BRANCH   6  19
ATOM     19  O   UNL     1       0.530  10.127  19.267  0.00  0.00    +0.000 OA
BRANCH  19  20
ATOM     20  C   UNL     1      -0.541  10.174  18.309  0.00  0.00    +0.000 C 
BRANCH  20  21
ATOM     21  C   UNL     1      -1.759  10.967  18.724  0.00  0.00    +0.000 A 
ATOM     22  C   UNL     1      -1.735  11.845  19.815  0.00  0.00    +0.000 A 
ATOM     23  C   UNL     1      -2.881  12.558  20.174  0.00  0.00    +0.000 A 
ATOM     24  C   UNL     1      -4.065  12.403  19.456  0.00  0.00    +0.000 A 
ATOM     25  C   UNL     1      -4.106  11.542  18.362  0.00  0.00    +0.000 A 
ATOM     26  C   UNL     1      -2.961  10.832  17.998  0.00  0.00    +0.000 A 
ATOM     27 CL   UNL     1      -3.080   9.789  16.621  0.00  0.00    +0.000 Cl
ENDBRANCH  20  21
ENDBRANCH  19  20
ENDBRANCH   6  19
TORSDOF 8
ENDMDL
MODEL 9
REMARK VINA RESULT:      -7.2      2.870      7.257
REMARK  Name = 
REMARK  9 active torsions:
REMARK  status: ('A' for Active; 'I' for Inactive)
REMARK    1  A    between atoms: C_1  and  O_2
REMARK    2  A    between atoms: O_2  and  C_3
REMARK    3  A    between atoms: C_5  and  C_6
REMARK    4  A    between atoms: C_6  and  N_7
REMARK    5  A    between atoms: N_7  and  C_8
REMARK    6  A    between atoms: C_8  and  C_9
REMARK    7  A    between atoms: C_17  and  O_18
REMARK    8  A    between atoms: O_18  and  C_19
REMARK    9  A    between atoms: C_19  and  C_20
REMARK                            x       y       z     vdW  Elec       q    Type
REMARK                         _______ _______ _______ _____ _____    ______ ____
ROOT
ATOM      1  C   UNL     1       4.148   3.814  19.335  0.00  0.00    +0.000 A 
ATOM      2  C   UNL     1       3.428   4.647  20.208  0.00  0.00    +0.000 A 
ATOM      3  C   UNL     1       2.366   5.430  19.747  0.00  0.00    +0.000 A 
ATOM      4  C   UNL     1       2.076   5.431  18.381  0.00  0.00    +0.000 A 
ATOM      5  C   UNL     1       2.830   4.666  17.498  0.00  0.00    +0.000 A 
ATOM      6  C   UNL     1       3.896   3.876  17.953  0.00  0.00    +0.000 A 
ENDROOT
BRANCH   1   8
ATOM      7  C   UNL     1       4.574   1.773  20.448  0.00  0.00    +0.000 C 
ATOM      8  O   UNL     1       5.093   2.929  19.790  0.00  0.00    +0.000 OA
ENDBRANCH   1   8
BRANCH   3   9
ATOM      9  C   UNL     1       1.466   6.168  20.706  0.00  0.00    +0.000 C 
BRANCH   9  10
ATOM     10  N   UNL     1       1.940   7.542  20.812  0.00  0.00    +0.000 NA
ATOM     11  H   UNL     1       2.121   7.908  19.875  0.00  0.00    +0.000 HD
BRANCH  10  12
ATOM     12  C   UNL     1       0.972   8.417  21.469  0.00  0.00    +0.000 C 
BRANCH  12  13
ATOM     13  C   UNL     1       0.479   9.488  20.515  0.00  0.00    +0.000 A 
ATOM     14  C   UNL     1      -0.439  10.444  20.949  0.00  0.00    +0.000 A 
ATOM     15  C   UNL     1      -0.850  11.438  20.067  0.00  0.00    +0.000 A 
ATOM     16  C   UNL     1      -0.345  11.447  18.776  0.00  0.00    +0.000 A 
ATOM     17  C   UNL     1       0.564  10.461  18.421  0.00  0.00    +0.000 A 
ATOM     18  N   UNL     1       0.988   9.487  19.257  0.00  0.00    +0.000 NA
ENDBRANCH  12  13
ENDBRANCH  10  12
ENDBRANCH   9  10
ENDBRANCH   3   9
BRANCH   6  19
ATOM     19  O   UNL     1       4.691   3.128  17.102  0.00  0.00    +0.000 OA
BRANCH  19  20
ATOM     20  C   UNL     1       5.551   3.922  16.268  0.00  0.00    +0.000 C 
BRANCH  20  21
ATOM     21  C   UNL     1       6.363   4.980  16.980  0.00  0.00    +0.000 A 
ATOM     22  C   UNL     1       7.345   4.649  17.921  0.00  0.00    +0.000 A 
ATOM     23  C   UNL     1       8.074   5.653  18.564  0.00  0.00    +0.000 A 
ATOM     24  C   UNL     1       7.831   6.995  18.282  0.00  0.00    +0.000 A 
ATOM     25  C   UNL     1       6.865   7.343  17.342  0.00  0.00    +0.000 A 
ATOM     26  C   UNL     1       6.138   6.342  16.694  0.00  0.00    +0.000 A 
ATOM     27 CL   UNL     1       4.962   6.846  15.528  0.00  0.00    +0.000 Cl
ENDBRANCH  20  21
ENDBRANCH  19  20
ENDBRANCH   6  19
TORSDOF 8
ENDMDL
