MODEL 1
REMARK VINA RESULT:      -6.0      0.000      0.000
REMARK  Name = 
REMARK  10 active torsions:
REMARK  status: ('A' for Active; 'I' for Inactive)
REMARK    1  A    between atoms: C_1  and  C_2
REMARK    2  A    between atoms: C_2  and  C_3
REMARK    3  A    between atoms: C_4  and  C_5
REMARK    4  A    between atoms: N_7  and  N_8
REMARK    5  A    between atoms: C_9  and  S_10
REMARK    6  A    between atoms: N_11  and  C_12
REMARK    7  A    between atoms: C_12  and  C_13
REMARK    8  A    between atoms: C_13  and  C_14
REMARK    9  A    between atoms: C_13  and  C_15
REMARK   10  A    between atoms: C_18  and  C_19
REMARK                            x       y       z     vdW  Elec       q    Type
REMARK                         _______ _______ _______ _____ _____    ______ ____
ROOT
ATOM      1  C   UNL     1       4.316   6.003  17.553  0.00  0.00    +0.000 C 
ATOM      2  O   UNL     1       3.747   7.084  17.443  0.00  0.00    +0.000 OA
ATOM      3  N   UNL     1       5.699   5.839  17.524  0.00  0.00    +0.000 N 
ATOM      4  H   UNL     1       6.116   4.920  17.584  0.00  0.00    +0.000 HD
ENDROOT
BRANCH   1   6
ATOM      5  C   UNL     1       2.435   4.486  18.577  0.00  0.00    +0.000 A 
ATOM      6  C   UNL     1       3.569   4.736  17.689  0.00  0.00    +0.000 A 
ATOM      7  C   UNL     1       3.898   3.580  17.002  0.00  0.00    +0.000 A 
ATOM      8  S   UNL     1       2.838   2.286  17.293  0.00  0.00    +0.000 S 
ATOM      9  C   UNL     1       1.932   3.200  18.415  0.00  0.00    +0.000 A 
ATOM     10  C   UNL     1       0.752   2.573  19.083  0.00  0.00    +0.000 C 
BRANCH   5  12
ATOM     11  C   UNL     1       2.279   5.210  20.981  0.00  0.00    +0.000 C 
ATOM     12  C   UNL     1       1.852   5.487  19.547  0.00  0.00    +0.000 C 
ENDBRANCH   5  12
ENDBRANCH   1   6
BRANCH   3  13
ATOM     13  N   UNL     1       6.532   6.920  17.436  0.00  0.00    +0.000 NA
ATOM     14  C   UNL     1       7.561   6.994  18.231  0.00  0.00    +0.000 C 
ATOM     15  N   UNL     1       8.409   8.063  18.284  0.00  0.00    +0.000 N 
ATOM     16  H   UNL     1       9.160   7.997  18.961  0.00  0.00    +0.000 HD
BRANCH  14  17
ATOM     17  S   UNL     1       8.017   5.736  19.369  0.00  0.00    +0.000 S 
ATOM     18  H   UNL     1       9.333   5.979  19.361  0.00  0.00    +0.000 HD
ENDBRANCH  14  17
BRANCH  15  19
ATOM     19  C   UNL     1       8.041   9.406  17.873  0.00  0.00    +0.000 C 
BRANCH  19  20
ATOM     20  C   UNL     1       9.109  10.450  18.254  0.00  0.00    +0.000 C 
ATOM     21  C   UNL     1       8.715  11.872  17.852  0.00  0.00    +0.000 C 
ATOM     22  C   UNL     1       9.370  10.398  19.762  0.00  0.00    +0.000 C 
ENDBRANCH  19  20
ENDBRANCH  15  19
ENDBRANCH   3  13
TORSDOF 6
ENDMDL
MODEL 2
REMARK VINA RESULT:      -6.0      3.546      5.055
REMARK  Name = 
REMARK  10 active torsions:
REMARK  status: ('A' for Active; 'I' for Inactive)
REMARK    1  A    between atoms: C_1  and  C_2
REMARK    2  A    between atoms: C_2  and  C_3
REMARK    3  A    between atoms: C_4  and  C_5
REMARK    4  A    between atoms: N_7  and  N_8
REMARK    5  A    between atoms: C_9  and  S_10
REMARK    6  A    between atoms: N_11  and  C_12
REMARK    7  A    between atoms: C_12  and  C_13
REMARK    8  A    between atoms: C_13  and  C_14
REMARK    9  A    between atoms: C_13  and  C_15
REMARK   10  A    between atoms: C_18  and  C_19
REMARK                            x       y       z     vdW  Elec       q    Type
REMARK                         _______ _______ _______ _____ _____    ______ ____
ROOT
ATOM      1  C   UNL     1       3.203   6.066  17.920  0.00  0.00    +0.000 C 
ATOM      2  O   UNL     1       2.638   5.054  17.515  0.00  0.00    +0.000 OA
ATOM      3  N   UNL     1       4.566   6.314  17.774  0.00  0.00    +0.000 N 
ATOM      4  H   UNL     1       4.988   7.149  18.157  0.00  0.00    +0.000 HD
ENDROOT
BRANCH   1   6
ATOM      5  C   UNL     1       1.995   7.050  20.031  0.00  0.00    +0.000 A 
ATOM      6  C   UNL     1       2.480   7.124  18.655  0.00  0.00    +0.000 A 
ATOM      7  C   UNL     1       2.119   8.334  18.088  0.00  0.00    +0.000 A 
ATOM      8  S   UNL     1       1.353   9.394  19.169  0.00  0.00    +0.000 S 
ATOM      9  C   UNL     1       1.403   8.244  20.429  0.00  0.00    +0.000 A 
ATOM     10  C   UNL     1       0.839   8.601  21.767  0.00  0.00    +0.000 C 
BRANCH   5  12
ATOM     11  C   UNL     1       1.171   4.728  20.539  0.00  0.00    +0.000 C 
ATOM     12  C   UNL     1       2.123   5.847  20.937  0.00  0.00    +0.000 C 
ENDBRANCH   5  12
ENDBRANCH   1   6
BRANCH   3  13
ATOM     13  N   UNL     1       5.368   5.444  17.088  0.00  0.00    +0.000 NA
ATOM     14  C   UNL     1       6.591   5.795  16.809  0.00  0.00    +0.000 C 
ATOM     15  N   UNL     1       7.450   5.040  16.061  0.00  0.00    +0.000 N 
ATOM     16  H   UNL     1       8.367   5.440  15.906  0.00  0.00    +0.000 HD
BRANCH  14  17
ATOM     17  S   UNL     1       7.329   7.297  17.341  0.00  0.00    +0.000 S 
ATOM     18  H   UNL     1       7.897   6.814  18.453  0.00  0.00    +0.000 HD
ENDBRANCH  14  17
BRANCH  15  19
ATOM     19  C   UNL     1       7.018   4.048  15.094  0.00  0.00    +0.000 C 
BRANCH  19  20
ATOM     20  C   UNL     1       6.689   4.669  13.722  0.00  0.00    +0.000 C 
ATOM     21  C   UNL     1       7.918   5.266  13.034  0.00  0.00    +0.000 C 
ATOM     22  C   UNL     1       6.056   3.612  12.813  0.00  0.00    +0.000 C 
ENDBRANCH  19  20
ENDBRANCH  15  19
ENDBRANCH   3  13
TORSDOF 6
ENDMDL
MODEL 3
REMARK VINA RESULT:      -5.9      4.560      6.227
REMARK  Name = 
REMARK  10 active torsions:
REMARK  status: ('A' for Active; 'I' for Inactive)
REMARK    1  A    between atoms: C_1  and  C_2
REMARK    2  A    between atoms: C_2  and  C_3
REMARK    3  A    between atoms: C_4  and  C_5
REMARK    4  A    between atoms: N_7  and  N_8
REMARK    5  A    between atoms: C_9  and  S_10
REMARK    6  A    between atoms: N_11  and  C_12
REMARK    7  A    between atoms: C_12  and  C_13
REMARK    8  A    between atoms: C_13  and  C_14
REMARK    9  A    between atoms: C_13  and  C_15
REMARK   10  A    between atoms: C_18  and  C_19
REMARK                            x       y       z     vdW  Elec       q    Type
REMARK                         _______ _______ _______ _____ _____    ______ ____
ROOT
ATOM      1  C   UNL     1       2.091   6.172  20.288  0.00  0.00    +0.000 C 
ATOM      2  O   UNL     1       1.386   5.878  21.249  0.00  0.00    +0.000 OA
ATOM      3  N   UNL     1       2.162   7.446  19.729  0.00  0.00    +0.000 N 
ATOM      4  H   UNL     1       2.734   7.627  18.916  0.00  0.00    +0.000 HD
ENDROOT
BRANCH   1   6
ATOM      5  C   UNL     1       2.581   3.765  19.368  0.00  0.00    +0.000 A 
ATOM      6  C   UNL     1       2.920   5.168  19.592  0.00  0.00    +0.000 A 
ATOM      7  C   UNL     1       4.185   5.436  19.096  0.00  0.00    +0.000 A 
ATOM      8  S   UNL     1       4.894   4.125  18.284  0.00  0.00    +0.000 S 
ATOM      9  C   UNL     1       3.564   3.113  18.630  0.00  0.00    +0.000 A 
ATOM     10  C   UNL     1       3.574   1.700  18.140  0.00  0.00    +0.000 C 
BRANCH   5  12
ATOM     11  C   UNL     1       1.455   2.580  21.280  0.00  0.00    +0.000 C 
ATOM     12  C   UNL     1       1.321   3.085  19.850  0.00  0.00    +0.000 C 
ENDBRANCH   5  12
ENDBRANCH   1   6
BRANCH   3  13
ATOM     13  N   UNL     1       1.478   8.494  20.281  0.00  0.00    +0.000 NA
ATOM     14  C   UNL     1       1.154   9.506  19.529  0.00  0.00    +0.000 C 
ATOM     15  N   UNL     1       0.543  10.637  19.992  0.00  0.00    +0.000 N 
ATOM     16  H   UNL     1       0.362  11.354  19.301  0.00  0.00    +0.000 HD
BRANCH  14  17
ATOM     17  S   UNL     1       1.458   9.584  17.801  0.00  0.00    +0.000 S 
ATOM     18  H   UNL     1       0.180   9.688  17.415  0.00  0.00    +0.000 HD
ENDBRANCH  14  17
BRANCH  15  19
ATOM     19  C   UNL     1       0.616  11.086  21.370  0.00  0.00    +0.000 C 
BRANCH  19  20
ATOM     20  C   UNL     1      -0.580  10.599  22.211  0.00  0.00    +0.000 C 
ATOM     21  C   UNL     1      -0.181   9.556  23.257  0.00  0.00    +0.000 C 
ATOM     22  C   UNL     1      -1.246  11.791  22.903  0.00  0.00    +0.000 C 
ENDBRANCH  19  20
ENDBRANCH  15  19
ENDBRANCH   3  13
TORSDOF 6
ENDMDL
MODEL 4
REMARK VINA RESULT:      -5.8      3.856      5.603
REMARK  Name = 
REMARK  10 active torsions:
REMARK  status: ('A' for Active; 'I' for Inactive)
REMARK    1  A    between atoms: C_1  and  C_2
REMARK    2  A    between atoms: C_2  and  C_3
REMARK    3  A    between atoms: C_4  and  C_5
REMARK    4  A    between atoms: N_7  and  N_8
REMARK    5  A    between atoms: C_9  and  S_10
REMARK    6  A    between atoms: N_11  and  C_12
REMARK    7  A    between atoms: C_12  and  C_13
REMARK    8  A    between atoms: C_13  and  C_14
REMARK    9  A    between atoms: C_13  and  C_15
REMARK   10  A    between atoms: C_18  and  C_19
REMARK                            x       y       z     vdW  Elec       q    Type
REMARK                         _______ _______ _______ _____ _____    ______ ____
ROOT
ATOM      1  C   UNL     1       3.087   3.793  17.432  0.00  0.00    +0.000 C 
ATOM      2  O   UNL     1       2.296   3.180  16.720  0.00  0.00    +0.000 OA
ATOM      3  N   UNL     1       4.429   3.995  17.118  0.00  0.00    +0.000 N 
ATOM      4  H   UNL     1       5.046   4.478  17.757  0.00  0.00    +0.000 HD
ENDROOT
BRANCH   1   6
ATOM      5  C   UNL     1       2.316   5.738  19.016  0.00  0.00    +0.000 A 
ATOM      6  C   UNL     1       2.689   4.352  18.740  0.00  0.00    +0.000 A 
ATOM      7  C   UNL     1       2.672   3.613  19.911  0.00  0.00    +0.000 A 
ATOM      8  S   UNL     1       2.115   4.481  21.259  0.00  0.00    +0.000 S 
ATOM      9  C   UNL     1       1.945   5.912  20.345  0.00  0.00    +0.000 A 
ATOM     10  C   UNL     1       1.444   7.151  21.015  0.00  0.00    +0.000 C 
BRANCH   5  12
ATOM     11  C   UNL     1       3.710   7.383  17.720  0.00  0.00    +0.000 C 
ATOM     12  C   UNL     1       2.309   6.857  18.000  0.00  0.00    +0.000 C 
ENDBRANCH   5  12
ENDBRANCH   1   6
BRANCH   3  13
ATOM     13  N   UNL     1       4.943   3.566  15.926  0.00  0.00    +0.000 NA
ATOM     14  C   UNL     1       6.029   4.120  15.467  0.00  0.00    +0.000 C 
ATOM     15  N   UNL     1       6.583   3.827  14.254  0.00  0.00    +0.000 N 
ATOM     16  H   UNL     1       7.419   4.344  14.014  0.00  0.00    +0.000 HD
BRANCH  14  17
ATOM     17  S   UNL     1       6.950   5.341  16.332  0.00  0.00    +0.000 S 
ATOM     18  H   UNL     1       8.163   4.946  15.927  0.00  0.00    +0.000 HD
ENDBRANCH  14  17
BRANCH  15  19
ATOM     19  C   UNL     1       5.834   3.277  13.138  0.00  0.00    +0.000 C 
BRANCH  19  20
ATOM     20  C   UNL     1       6.516   3.548  11.783  0.00  0.00    +0.000 C 
ATOM     21  C   UNL     1       7.507   4.713  11.843  0.00  0.00    +0.000 C 
ATOM     22  C   UNL     1       7.239   2.286  11.305  0.00  0.00    +0.000 C 
ENDBRANCH  19  20
ENDBRANCH  15  19
ENDBRANCH   3  13
TORSDOF 6
ENDMDL
MODEL 5
REMARK VINA RESULT:      -5.8      4.181      5.478
REMARK  Name = 
REMARK  10 active torsions:
REMARK  status: ('A' for Active; 'I' for Inactive)
REMARK    1  A    between atoms: C_1  and  C_2
REMARK    2  A    between atoms: C_2  and  C_3
REMARK    3  A    between atoms: C_4  and  C_5
REMARK    4  A    between atoms: N_7  and  N_8
REMARK    5  A    between atoms: C_9  and  S_10
REMARK    6  A    between atoms: N_11  and  C_12
REMARK    7  A    between atoms: C_12  and  C_13
REMARK    8  A    between atoms: C_13  and  C_14
REMARK    9  A    between atoms: C_13  and  C_15
REMARK   10  A    between atoms: C_18  and  C_19
REMARK                            x       y       z     vdW  Elec       q    Type
REMARK                         _______ _______ _______ _____ _____    ______ ____
ROOT
ATOM      1  C   UNL     1       3.087   3.924  17.170  0.00  0.00    +0.000 C 
ATOM      2  O   UNL     1       2.380   3.501  16.260  0.00  0.00    +0.000 OA
ATOM      3  N   UNL     1       4.440   4.226  17.034  0.00  0.00    +0.000 N 
ATOM      4  H   UNL     1       4.985   4.540  17.825  0.00  0.00    +0.000 HD
ENDROOT
BRANCH   1   6
ATOM      5  C   UNL     1       2.174   3.069  19.476  0.00  0.00    +0.000 A 
ATOM      6  C   UNL     1       2.567   4.119  18.538  0.00  0.00    +0.000 A 
ATOM      7  C   UNL     1       2.333   5.365  19.094  0.00  0.00    +0.000 A 
ATOM      8  S   UNL     1       1.795   5.306  20.703  0.00  0.00    +0.000 S 
ATOM      9  C   UNL     1       1.778   3.600  20.700  0.00  0.00    +0.000 A 
ATOM     10  C   UNL     1       1.362   2.872  21.937  0.00  0.00    +0.000 C 
BRANCH   5  12
ATOM     11  C   UNL     1       3.582   1.113  18.757  0.00  0.00    +0.000 C 
ATOM     12  C   UNL     1       2.201   1.587  19.187  0.00  0.00    +0.000 C 
ENDBRANCH   5  12
ENDBRANCH   1   6
BRANCH   3  13
ATOM     13  N   UNL     1       5.063   4.129  15.820  0.00  0.00    +0.000 NA
ATOM     14  C   UNL     1       6.343   4.356  15.744  0.00  0.00    +0.000 C 
ATOM     15  N   UNL     1       7.048   4.366  14.575  0.00  0.00    +0.000 N 
ATOM     16  H   UNL     1       8.036   4.573  14.658  0.00  0.00    +0.000 HD
BRANCH  14  17
ATOM     17  S   UNL     1       7.365   4.695  17.132  0.00  0.00    +0.000 S 
ATOM     18  H   UNL     1       6.527   4.234  18.068  0.00  0.00    +0.000 HD
ENDBRANCH  14  17
BRANCH  15  19
ATOM     19  C   UNL     1       6.452   4.621  13.276  0.00  0.00    +0.000 C 
BRANCH  19  20
ATOM     20  C   UNL     1       6.042   3.323  12.553  0.00  0.00    +0.000 C 
ATOM     21  C   UNL     1       4.702   3.451  11.826  0.00  0.00    +0.000 C 
ATOM     22  C   UNL     1       7.130   2.919  11.555  0.00  0.00    +0.000 C 
ENDBRANCH  19  20
ENDBRANCH  15  19
ENDBRANCH   3  13
TORSDOF 6
ENDMDL
MODEL 6
REMARK VINA RESULT:      -5.7      5.908      8.449
REMARK  Name = 
REMARK  10 active torsions:
REMARK  status: ('A' for Active; 'I' for Inactive)
REMARK    1  A    between atoms: C_1  and  C_2
REMARK    2  A    between atoms: C_2  and  C_3
REMARK    3  A    between atoms: C_4  and  C_5
REMARK    4  A    between atoms: N_7  and  N_8
REMARK    5  A    between atoms: C_9  and  S_10
REMARK    6  A    between atoms: N_11  and  C_12
REMARK    7  A    between atoms: C_12  and  C_13
REMARK    8  A    between atoms: C_13  and  C_14
REMARK    9  A    between atoms: C_13  and  C_15
REMARK   10  A    between atoms: C_18  and  C_19
REMARK                            x       y       z     vdW  Elec       q    Type
REMARK                         _______ _______ _______ _____ _____    ______ ____
ROOT
ATOM      1  C   UNL     1       0.006   8.899  21.435  0.00  0.00    +0.000 C 
ATOM      2  O   UNL     1      -0.642   7.904  21.746  0.00  0.00    +0.000 OA
ATOM      3  N   UNL     1       1.315   8.864  20.960  0.00  0.00    +0.000 N 
ATOM      4  H   UNL     1       1.816   9.717  20.750  0.00  0.00    +0.000 HD
ENDROOT
BRANCH   1   6
ATOM      5  C   UNL     1      -0.835  11.199  20.492  0.00  0.00    +0.000 A 
ATOM      6  C   UNL     1      -0.541  10.263  21.576  0.00  0.00    +0.000 A 
ATOM      7  C   UNL     1      -0.802  10.857  22.799  0.00  0.00    +0.000 A 
ATOM      8  S   UNL     1      -1.486  12.405  22.677  0.00  0.00    +0.000 S 
ATOM      9  C   UNL     1      -1.392  12.379  20.973  0.00  0.00    +0.000 A 
ATOM     10  C   UNL     1      -1.885  13.557  20.196  0.00  0.00    +0.000 C 
BRANCH   5  12
ATOM     11  C   UNL     1      -1.817  10.355  18.336  0.00  0.00    +0.000 C 
ATOM     12  C   UNL     1      -0.590  10.936  19.025  0.00  0.00    +0.000 C 
ENDBRANCH   5  12
ENDBRANCH   1   6
BRANCH   3  13
ATOM     13  N   UNL     1       1.952   7.674  20.743  0.00  0.00    +0.000 NA
ATOM     14  C   UNL     1       2.314   7.360  19.532  0.00  0.00    +0.000 C 
ATOM     15  N   UNL     1       2.881   6.166  19.190  0.00  0.00    +0.000 N 
ATOM     16  H   UNL     1       3.099   6.046  18.209  0.00  0.00    +0.000 HD
BRANCH  14  17
ATOM     17  S   UNL     1       2.121   8.417  18.143  0.00  0.00    +0.000 S 
ATOM     18  H   UNL     1       3.221   9.153  18.345  0.00  0.00    +0.000 HD
ENDBRANCH  14  17
BRANCH  15  19
ATOM     19  C   UNL     1       2.715   4.944  19.957  0.00  0.00    +0.000 C 
BRANCH  19  20
ATOM     20  C   UNL     1       1.372   4.246  19.664  0.00  0.00    +0.000 C 
ATOM     21  C   UNL     1       1.351   3.557  18.298  0.00  0.00    +0.000 C 
ATOM     22  C   UNL     1       1.072   3.220  20.760  0.00  0.00    +0.000 C 
ENDBRANCH  19  20
ENDBRANCH  15  19
ENDBRANCH   3  13
TORSDOF 6
ENDMDL
MODEL 7
REMARK VINA RESULT:      -5.7      4.475      6.678
REMARK  Name = 
REMARK  10 active torsions:
REMARK  status: ('A' for Active; 'I' for Inactive)
REMARK    1  A    between atoms: C_1  and  C_2
REMARK    2  A    between atoms: C_2  and  C_3
REMARK    3  A    between atoms: C_4  and  C_5
REMARK    4  A    between atoms: N_7  and  N_8
REMARK    5  A    between atoms: C_9  and  S_10
REMARK    6  A    between atoms: N_11  and  C_12
REMARK    7  A    between atoms: C_12  and  C_13
REMARK    8  A    between atoms: C_13  and  C_14
REMARK    9  A    between atoms: C_13  and  C_15
REMARK   10  A    between atoms: C_18  and  C_19
REMARK                            x       y       z     vdW  Elec       q    Type
REMARK                         _______ _______ _______ _____ _____    ______ ____
ROOT
ATOM      1  C   UNL     1       1.735   8.252  19.537  0.00  0.00    +0.000 C 
ATOM      2  O   UNL     1       1.809   8.677  18.388  0.00  0.00    +0.000 OA
ATOM      3  N   UNL     1       2.277   7.041  19.961  0.00  0.00    +0.000 N 
ATOM      4  H   UNL     1       2.158   6.722  20.913  0.00  0.00    +0.000 HD
ENDROOT
BRANCH   1   6
ATOM      5  C   UNL     1       0.181  10.174  20.419  0.00  0.00    +0.000 A 
ATOM      6  C   UNL     1       1.013   8.985  20.597  0.00  0.00    +0.000 A 
ATOM      7  C   UNL     1       1.082   8.650  21.938  0.00  0.00    +0.000 A 
ATOM      8  S   UNL     1       0.105   9.615  22.936  0.00  0.00    +0.000 S 
ATOM      9  C   UNL     1      -0.396  10.578  21.618  0.00  0.00    +0.000 A 
ATOM     10  C   UNL     1      -1.351  11.702  21.857  0.00  0.00    +0.000 C 
BRANCH   5  12
ATOM     11  C   UNL     1      -1.274  10.345  18.374  0.00  0.00    +0.000 C 
ATOM     12  C   UNL     1      -0.053  10.884  19.106  0.00  0.00    +0.000 C 
ENDBRANCH   5  12
ENDBRANCH   1   6
BRANCH   3  13
ATOM     13  N   UNL     1       3.005   6.260  19.106  0.00  0.00    +0.000 NA
ATOM     14  C   UNL     1       2.786   4.977  19.077  0.00  0.00    +0.000 C 
ATOM     15  N   UNL     1       3.508   4.096  18.323  0.00  0.00    +0.000 N 
ATOM     16  H   UNL     1       3.243   3.123  18.407  0.00  0.00    +0.000 HD
BRANCH  14  17
ATOM     17  S   UNL     1       1.534   4.171  20.009  0.00  0.00    +0.000 S 
ATOM     18  H   UNL     1       2.223   4.072  21.154  0.00  0.00    +0.000 HD
ENDBRANCH  14  17
BRANCH  15  19
ATOM     19  C   UNL     1       4.863   4.348  17.865  0.00  0.00    +0.000 C 
BRANCH  19  20
ATOM     20  C   UNL     1       4.920   4.695  16.364  0.00  0.00    +0.000 C 
ATOM     21  C   UNL     1       5.160   6.184  16.111  0.00  0.00    +0.000 C 
ATOM     22  C   UNL     1       6.021   3.876  15.685  0.00  0.00    +0.000 C 
ENDBRANCH  19  20
ENDBRANCH  15  19
ENDBRANCH   3  13
TORSDOF 6
ENDMDL
MODEL 8
REMARK VINA RESULT:      -5.7      6.084      8.542
REMARK  Name = 
REMARK  10 active torsions:
REMARK  status: ('A' for Active; 'I' for Inactive)
REMARK    1  A    between atoms: C_1  and  C_2
REMARK    2  A    between atoms: C_2  and  C_3
REMARK    3  A    between atoms: C_4  and  C_5
REMARK    4  A    between atoms: N_7  and  N_8
REMARK    5  A    between atoms: C_9  and  S_10
REMARK    6  A    between atoms: N_11  and  C_12
REMARK    7  A    between atoms: C_12  and  C_13
REMARK    8  A    between atoms: C_13  and  C_14
REMARK    9  A    between atoms: C_13  and  C_15
REMARK   10  A    between atoms: C_18  and  C_19
REMARK                            x       y       z     vdW  Elec       q    Type
REMARK                         _______ _______ _______ _____ _____    ______ ____
ROOT
ATOM      1  C   UNL     1       0.858   9.483  21.960  0.00  0.00    +0.000 C 
ATOM      2  O   UNL     1       1.828   9.489  22.711  0.00  0.00    +0.000 OA
ATOM      3  N   UNL     1       0.630   8.519  20.981  0.00  0.00    +0.000 N 
ATOM      4  H   UNL     1      -0.169   8.579  20.365  0.00  0.00    +0.000 HD
ENDROOT
BRANCH   1   6
ATOM      5  C   UNL     1      -0.431  11.536  20.954  0.00  0.00    +0.000 A 
ATOM      6  C   UNL     1      -0.166  10.547  21.997  0.00  0.00    +0.000 A 
ATOM      7  C   UNL     1      -0.991  10.773  23.086  0.00  0.00    +0.000 A 
ATOM      8  S   UNL     1      -2.121  12.016  22.843  0.00  0.00    +0.000 S 
ATOM      9  C   UNL     1      -1.501  12.359  21.290  0.00  0.00    +0.000 A 
ATOM     10  C   UNL     1      -2.125  13.448  20.479  0.00  0.00    +0.000 C 
BRANCH   5  12
ATOM     11  C   UNL     1       1.541  12.577  19.791  0.00  0.00    +0.000 C 
ATOM     12  C   UNL     1       0.334  11.660  19.657  0.00  0.00    +0.000 C 
ENDBRANCH   5  12
ENDBRANCH   1   6
BRANCH   3  13
ATOM     13  N   UNL     1       1.471   7.449  20.841  0.00  0.00    +0.000 NA
ATOM     14  C   UNL     1       2.127   7.299  19.727  0.00  0.00    +0.000 C 
ATOM     15  N   UNL     1       2.929   6.228  19.450  0.00  0.00    +0.000 N 
ATOM     16  H   UNL     1       3.367   6.229  18.538  0.00  0.00    +0.000 HD
BRANCH  14  17
ATOM     17  S   UNL     1       2.079   8.444  18.396  0.00  0.00    +0.000 S 
ATOM     18  H   UNL     1       0.873   8.959  18.668  0.00  0.00    +0.000 HD
ENDBRANCH  14  17
BRANCH  15  19
ATOM     19  C   UNL     1       2.788   4.930  20.086  0.00  0.00    +0.000 C 
BRANCH  19  20
ATOM     20  C   UNL     1       1.486   4.214  19.675  0.00  0.00    +0.000 C 
ATOM     21  C   UNL     1       1.520   3.710  18.230  0.00  0.00    +0.000 C 
ATOM     22  C   UNL     1       1.220   3.040  20.621  0.00  0.00    +0.000 C 
ENDBRANCH  19  20
ENDBRANCH  15  19
ENDBRANCH   3  13
TORSDOF 6
ENDMDL
MODEL 9
REMARK VINA RESULT:      -5.7      4.742      6.462
REMARK  Name = 
REMARK  10 active torsions:
REMARK  status: ('A' for Active; 'I' for Inactive)
REMARK    1  A    between atoms: C_1  and  C_2
REMARK    2  A    between atoms: C_2  and  C_3
REMARK    3  A    between atoms: C_4  and  C_5
REMARK    4  A    between atoms: N_7  and  N_8
REMARK    5  A    between atoms: C_9  and  S_10
REMARK    6  A    between atoms: N_11  and  C_12
REMARK    7  A    between atoms: C_12  and  C_13
REMARK    8  A    between atoms: C_13  and  C_14
REMARK    9  A    between atoms: C_13  and  C_15
REMARK   10  A    between atoms: C_18  and  C_19
REMARK                            x       y       z     vdW  Elec       q    Type
REMARK                         _______ _______ _______ _____ _____    ______ ____
ROOT
ATOM      1  C   UNL     1       2.232   6.546  19.363  0.00  0.00    +0.000 C 
ATOM      2  O   UNL     1       2.316   6.806  18.166  0.00  0.00    +0.000 OA
ATOM      3  N   UNL     1       1.925   7.482  20.348  0.00  0.00    +0.000 N 
ATOM      4  H   UNL     1       1.901   7.222  21.324  0.00  0.00    +0.000 HD
ENDROOT
BRANCH   1   6
ATOM      5  C   UNL     1       3.585   4.302  19.492  0.00  0.00    +0.000 A 
ATOM      6  C   UNL     1       2.495   5.191  19.889  0.00  0.00    +0.000 A 
ATOM      7  C   UNL     1       1.682   4.562  20.815  0.00  0.00    +0.000 A 
ATOM      8  S   UNL     1       2.247   3.037  21.298  0.00  0.00    +0.000 S 
ATOM      9  C   UNL     1       3.571   3.119  20.225  0.00  0.00    +0.000 A 
ATOM     10  C   UNL     1       4.539   1.981  20.170  0.00  0.00    +0.000 C 
BRANCH   5  12
ATOM     11  C   UNL     1       4.224   4.065  17.071  0.00  0.00    +0.000 C 
ATOM     12  C   UNL     1       4.620   4.609  18.436  0.00  0.00    +0.000 C 
ENDBRANCH   5  12
ENDBRANCH   1   6
BRANCH   3  13
ATOM     13  N   UNL     1       1.622   8.774  20.018  0.00  0.00    +0.000 NA
ATOM     14  C   UNL     1       0.669   9.386  20.660  0.00  0.00    +0.000 C 
ATOM     15  N   UNL     1       0.231  10.644  20.360  0.00  0.00    +0.000 N 
ATOM     16  H   UNL     1      -0.530  10.994  20.930  0.00  0.00    +0.000 HD
BRANCH  14  17
ATOM     17  S   UNL     1      -0.214   8.688  22.009  0.00  0.00    +0.000 S 
ATOM     18  H   UNL     1      -0.131   9.747  22.823  0.00  0.00    +0.000 HD
ENDBRANCH  14  17
BRANCH  15  19
ATOM     19  C   UNL     1       0.382  11.261  19.055  0.00  0.00    +0.000 C 
BRANCH  19  20
ATOM     20  C   UNL     1      -0.971  11.478  18.348  0.00  0.00    +0.000 C 
ATOM     21  C   UNL     1      -1.517  10.198  17.713  0.00  0.00    +0.000 C 
ATOM     22  C   UNL     1      -1.992  12.033  19.344  0.00  0.00    +0.000 C 
ENDBRANCH  19  20
ENDBRANCH  15  19
ENDBRANCH   3  13
TORSDOF 6
ENDMDL
