MODEL 1
REMARK VINA RESULT:      -7.5      0.000      0.000
REMARK  Name = 
REMARK  5 active torsions:
REMARK  status: ('A' for Active; 'I' for Inactive)
REMARK    1  A    between atoms: C_2  and  C_3
REMARK    2  A    between atoms: C_7  and  C_8
REMARK    3  A    between atoms: C_8  and  O_9
REMARK    4  A    between atoms: O_9  and  N_10
REMARK    5  A    between atoms: C_11  and  C_13
REMARK                            x       y       z     vdW  Elec       q    Type
REMARK                         _______ _______ _______ _____ _____    ______ ____
ROOT
ATOM      1  N   UNL     1       5.596   3.839  17.965  0.00  0.00    +0.000 N 
ATOM      2  C   UNL     1       6.619   4.568  17.398  0.00  0.00    +0.000 C 
ATOM      3  O   UNL     1       7.408   5.260  18.035  0.00  0.00    +0.000 OA
ATOM      4  H   UNL     1       5.257   3.010  17.495  0.00  0.00    +0.000 HD
ENDROOT
BRANCH   2   5
ATOM      5  C   UNL     1       6.672   4.481  15.953  0.00  0.00    +0.000 A 
ATOM      6  C   UNL     1       5.938   3.720  15.051  0.00  0.00    +0.000 A 
ATOM      7  C   UNL     1       6.375   4.053  13.752  0.00  0.00    +0.000 A 
ATOM      8 BR   UNL     1       5.655   3.271  12.207  0.00  0.00    +0.000 Br
ATOM      9  C   UNL     1       7.355   5.002  13.869  0.00  0.00    +0.000 A 
ATOM     10 BR   UNL     1       8.302   5.828  12.496  0.00  0.00    +0.000 Br
ATOM     11  N   UNL     1       7.533   5.259  15.200  0.00  0.00    +0.000 N 
ATOM     12  H   UNL     1       8.187   5.927  15.588  0.00  0.00    +0.000 HD
ENDBRANCH   2   5
BRANCH   1  13
ATOM     13  O   UNL     1       5.595   3.765  19.379  0.00  0.00    +0.000 OA
BRANCH  13  14
ATOM     14  C   UNL     1       4.662   2.750  19.771  0.00  0.00    +0.000 C 
BRANCH  14  19
ATOM     15  C   UNL     1       1.908   5.337  20.339  0.00  0.00    +0.000 A 
ATOM     16  C   UNL     1       0.785   4.512  20.463  0.00  0.00    +0.000 A 
ATOM     17  C   UNL     1       0.922   3.127  20.363  0.00  0.00    +0.000 A 
ATOM     18  C   UNL     1       2.177   2.565  20.136  0.00  0.00    +0.000 A 
ATOM     19  C   UNL     1       3.313   3.377  19.999  0.00  0.00    +0.000 A 
ATOM     20  C   UNL     1       3.168   4.769  20.107  0.00  0.00    +0.000 A 
BRANCH  15  22
ATOM     21  N   UNL     1       1.666   7.913  20.541  0.00  0.00    +0.000 NA
ATOM     22  C   UNL     1       1.770   6.760  20.451  0.00  0.00    +0.000 C 
ENDBRANCH  15  22
ENDBRANCH  14  19
ENDBRANCH  13  14
ENDBRANCH   1  13
TORSDOF 5
ENDMDL
MODEL 2
REMARK VINA RESULT:      -7.0      2.004      2.489
REMARK  Name = 
REMARK  5 active torsions:
REMARK  status: ('A' for Active; 'I' for Inactive)
REMARK    1  A    between atoms: C_2  and  C_3
REMARK    2  A    between atoms: C_7  and  C_8
REMARK    3  A    between atoms: C_8  and  O_9
REMARK    4  A    between atoms: O_9  and  N_10
REMARK    5  A    between atoms: C_11  and  C_13
REMARK                            x       y       z     vdW  Elec       q    Type
REMARK                         _______ _______ _______ _____ _____    ______ ____
ROOT
ATOM      1  N   UNL     1       5.125   6.226  17.542  0.00  0.00    +0.000 N 
ATOM      2  C   UNL     1       5.600   4.955  17.305  0.00  0.00    +0.000 C 
ATOM      3  O   UNL     1       5.711   4.088  18.167  0.00  0.00    +0.000 OA
ATOM      4  H   UNL     1       4.680   6.739  16.792  0.00  0.00    +0.000 HD
ENDROOT
BRANCH   2   5
ATOM      5  C   UNL     1       6.001   4.724  15.931  0.00  0.00    +0.000 A 
ATOM      6  C   UNL     1       5.492   3.877  14.956  0.00  0.00    +0.000 A 
ATOM      7  C   UNL     1       6.238   4.080  13.776  0.00  0.00    +0.000 A 
ATOM      8 BR   UNL     1       5.898   3.147  12.186  0.00  0.00    +0.000 Br
ATOM      9  C   UNL     1       7.181   5.038  14.037  0.00  0.00    +0.000 A 
ATOM     10 BR   UNL     1       8.452   5.726  12.863  0.00  0.00    +0.000 Br
ATOM     11  N   UNL     1       7.036   5.426  15.339  0.00  0.00    +0.000 N 
ATOM     12  H   UNL     1       7.591   6.131  15.809  0.00  0.00    +0.000 HD
ENDBRANCH   2   5
BRANCH   1  13
ATOM     13  O   UNL     1       4.575   6.454  18.827  0.00  0.00    +0.000 OA
BRANCH  13  14
ATOM     14  C   UNL     1       3.167   6.671  18.677  0.00  0.00    +0.000 C 
BRANCH  14  19
ATOM     15  C   UNL     1       1.655   3.500  20.179  0.00  0.00    +0.000 A 
ATOM     16  C   UNL     1       1.126   2.887  19.038  0.00  0.00    +0.000 A 
ATOM     17  C   UNL     1       1.260   3.498  17.791  0.00  0.00    +0.000 A 
ATOM     18  C   UNL     1       1.918   4.723  17.682  0.00  0.00    +0.000 A 
ATOM     19  C   UNL     1       2.445   5.357  18.817  0.00  0.00    +0.000 A 
ATOM     20  C   UNL     1       2.312   4.732  20.067  0.00  0.00    +0.000 A 
BRANCH  15  22
ATOM     21  N   UNL     1       1.426   2.360  22.499  0.00  0.00    +0.000 NA
ATOM     22  C   UNL     1       1.526   2.867  21.459  0.00  0.00    +0.000 C 
ENDBRANCH  15  22
ENDBRANCH  14  19
ENDBRANCH  13  14
ENDBRANCH   1  13
TORSDOF 5
ENDMDL
MODEL 3
REMARK VINA RESULT:      -7.0      2.772      3.627
REMARK  Name = 
REMARK  5 active torsions:
REMARK  status: ('A' for Active; 'I' for Inactive)
REMARK    1  A    between atoms: C_2  and  C_3
REMARK    2  A    between atoms: C_7  and  C_8
REMARK    3  A    between atoms: C_8  and  O_9
REMARK    4  A    between atoms: O_9  and  N_10
REMARK    5  A    between atoms: C_11  and  C_13
REMARK                            x       y       z     vdW  Elec       q    Type
REMARK                         _______ _______ _______ _____ _____    ______ ____
ROOT
ATOM      1  N   UNL     1       5.752   6.065  15.152  0.00  0.00    +0.000 N 
ATOM      2  C   UNL     1       6.454   4.905  14.907  0.00  0.00    +0.000 C 
ATOM      3  O   UNL     1       7.411   4.523  15.575  0.00  0.00    +0.000 OA
ATOM      4  H   UNL     1       4.783   6.129  14.869  0.00  0.00    +0.000 HD
ENDROOT
BRANCH   2   5
ATOM      5  C   UNL     1       5.987   4.168  13.749  0.00  0.00    +0.000 A 
ATOM      6  C   UNL     1       4.818   4.271  13.006  0.00  0.00    +0.000 A 
ATOM      7  C   UNL     1       4.892   3.332  11.956  0.00  0.00    +0.000 A 
ATOM      8 BR   UNL     1       3.527   3.118  10.688  0.00  0.00    +0.000 Br
ATOM      9  C   UNL     1       6.089   2.677  12.063  0.00  0.00    +0.000 A 
ATOM     10 BR   UNL     1       6.748   1.334  10.955  0.00  0.00    +0.000 Br
ATOM     11  N   UNL     1       6.749   3.183  13.147  0.00  0.00    +0.000 N 
ATOM     12  H   UNL     1       7.667   2.896  13.465  0.00  0.00    +0.000 HD
ENDBRANCH   2   5
BRANCH   1  13
ATOM     13  O   UNL     1       6.066   6.738  16.357  0.00  0.00    +0.000 OA
BRANCH  13  14
ATOM     14  C   UNL     1       4.855   6.899  17.105  0.00  0.00    +0.000 C 
BRANCH  14  19
ATOM     15  C   UNL     1       3.013   3.842  18.472  0.00  0.00    +0.000 A 
ATOM     16  C   UNL     1       4.010   3.258  19.261  0.00  0.00    +0.000 A 
ATOM     17  C   UNL     1       5.269   3.853  19.349  0.00  0.00    +0.000 A 
ATOM     18  C   UNL     1       5.536   5.027  18.646  0.00  0.00    +0.000 A 
ATOM     19  C   UNL     1       4.552   5.621  17.842  0.00  0.00    +0.000 A 
ATOM     20  C   UNL     1       3.286   5.021  17.765  0.00  0.00    +0.000 A 
BRANCH  15  22
ATOM     21  N   UNL     1       0.662   2.754  18.324  0.00  0.00    +0.000 NA
ATOM     22  C   UNL     1       1.716   3.238  18.389  0.00  0.00    +0.000 C 
ENDBRANCH  15  22
ENDBRANCH  14  19
ENDBRANCH  13  14
ENDBRANCH   1  13
TORSDOF 5
ENDMDL
MODEL 4
REMARK VINA RESULT:      -6.9      5.964      8.257
REMARK  Name = 
REMARK  5 active torsions:
REMARK  status: ('A' for Active; 'I' for Inactive)
REMARK    1  A    between atoms: C_2  and  C_3
REMARK    2  A    between atoms: C_7  and  C_8
REMARK    3  A    between atoms: C_8  and  O_9
REMARK    4  A    between atoms: O_9  and  N_10
REMARK    5  A    between atoms: C_11  and  C_13
REMARK                            x       y       z     vdW  Elec       q    Type
REMARK                         _______ _______ _______ _____ _____    ______ ____
ROOT
ATOM      1  N   UNL     1       7.127   7.102  18.213  0.00  0.00    +0.000 N 
ATOM      2  C   UNL     1       7.065   5.892  18.871  0.00  0.00    +0.000 C 
ATOM      3  O   UNL     1       8.020   5.366  19.437  0.00  0.00    +0.000 OA
ATOM      4  H   UNL     1       6.291   7.666  18.131  0.00  0.00    +0.000 HD
ENDROOT
BRANCH   2   5
ATOM      5  C   UNL     1       5.765   5.257  18.813  0.00  0.00    +0.000 A 
ATOM      6  C   UNL     1       5.268   4.255  17.988  0.00  0.00    +0.000 A 
ATOM      7  C   UNL     1       3.943   3.985  18.390  0.00  0.00    +0.000 A 
ATOM      8 BR   UNL     1       2.873   2.691  17.555  0.00  0.00    +0.000 Br
ATOM      9  C   UNL     1       3.647   4.810  19.441  0.00  0.00    +0.000 A 
ATOM     10 BR   UNL     1       2.048   4.906  20.392  0.00  0.00    +0.000 Br
ATOM     11  N   UNL     1       4.749   5.577  19.695  0.00  0.00    +0.000 N 
ATOM     12  H   UNL     1       4.826   6.273  20.428  0.00  0.00    +0.000 HD
ENDBRANCH   2   5
BRANCH   1  13
ATOM     13  O   UNL     1       8.327   7.836  18.372  0.00  0.00    +0.000 OA
BRANCH  13  14
ATOM     14  C   UNL     1       8.142   9.126  17.778  0.00  0.00    +0.000 C 
BRANCH  14  19
ATOM     15  C   UNL     1      10.792  11.835  18.267  0.00  0.00    +0.000 A 
ATOM     16  C   UNL     1      10.849  11.907  19.663  0.00  0.00    +0.000 A 
ATOM     17  C   UNL     1      10.034  11.082  20.438  0.00  0.00    +0.000 A 
ATOM     18  C   UNL     1       9.159  10.188  19.823  0.00  0.00    +0.000 A 
ATOM     19  C   UNL     1       9.080  10.110  18.424  0.00  0.00    +0.000 A 
ATOM     20  C   UNL     1       9.909  10.938  17.651  0.00  0.00    +0.000 A 
BRANCH  15  22
ATOM     21  N   UNL     1      12.315  13.362  16.824  0.00  0.00    +0.000 NA
ATOM     22  C   UNL     1      11.635  12.676  17.469  0.00  0.00    +0.000 C 
ENDBRANCH  15  22
ENDBRANCH  14  19
ENDBRANCH  13  14
ENDBRANCH   1  13
TORSDOF 5
ENDMDL
MODEL 5
REMARK VINA RESULT:      -6.9      1.852      3.042
REMARK  Name = 
REMARK  5 active torsions:
REMARK  status: ('A' for Active; 'I' for Inactive)
REMARK    1  A    between atoms: C_2  and  C_3
REMARK    2  A    between atoms: C_7  and  C_8
REMARK    3  A    between atoms: C_8  and  O_9
REMARK    4  A    between atoms: O_9  and  N_10
REMARK    5  A    between atoms: C_11  and  C_13
REMARK                            x       y       z     vdW  Elec       q    Type
REMARK                         _______ _______ _______ _____ _____    ______ ____
ROOT
ATOM      1  N   UNL     1       4.415   6.214  17.255  0.00  0.00    +0.000 N 
ATOM      2  C   UNL     1       5.645   5.595  17.203  0.00  0.00    +0.000 C 
ATOM      3  O   UNL     1       6.376   5.431  18.175  0.00  0.00    +0.000 OA
ATOM      4  H   UNL     1       3.707   5.972  16.573  0.00  0.00    +0.000 HD
ENDROOT
BRANCH   2   5
ATOM      5  C   UNL     1       6.035   5.172  15.873  0.00  0.00    +0.000 A 
ATOM      6  C   UNL     1       5.473   4.247  15.002  0.00  0.00    +0.000 A 
ATOM      7  C   UNL     1       6.236   4.255  13.815  0.00  0.00    +0.000 A 
ATOM      8 BR   UNL     1       5.839   3.159  12.346  0.00  0.00    +0.000 Br
ATOM      9  C   UNL     1       7.240   5.172  13.969  0.00  0.00    +0.000 A 
ATOM     10 BR   UNL     1       8.559   5.625  12.735  0.00  0.00    +0.000 Br
ATOM     11  N   UNL     1       7.117   5.725  15.212  0.00  0.00    +0.000 N 
ATOM     12  H   UNL     1       7.716   6.444  15.600  0.00  0.00    +0.000 HD
ENDBRANCH   2   5
BRANCH   1  13
ATOM     13  O   UNL     1       3.919   6.504  18.549  0.00  0.00    +0.000 OA
BRANCH  13  14
ATOM     14  C   UNL     1       2.654   5.849  18.699  0.00  0.00    +0.000 C 
BRANCH  14  19
ATOM     15  C   UNL     1       3.909   2.361  19.627  0.00  0.00    +0.000 A 
ATOM     16  C   UNL     1       3.268   1.578  18.661  0.00  0.00    +0.000 A 
ATOM     17  C   UNL     1       2.436   2.178  17.716  0.00  0.00    +0.000 A 
ATOM     18  C   UNL     1       2.239   3.559  17.736  0.00  0.00    +0.000 A 
ATOM     19  C   UNL     1       2.865   4.358  18.704  0.00  0.00    +0.000 A 
ATOM     20  C   UNL     1       3.707   3.747  19.647  0.00  0.00    +0.000 A 
BRANCH  15  22
ATOM     21  N   UNL     1       5.477   1.249  21.371  0.00  0.00    +0.000 NA
ATOM     22  C   UNL     1       4.772   1.746  20.593  0.00  0.00    +0.000 C 
ENDBRANCH  15  22
ENDBRANCH  14  19
ENDBRANCH  13  14
ENDBRANCH   1  13
TORSDOF 5
ENDMDL
MODEL 6
REMARK VINA RESULT:      -6.9      2.228      3.061
REMARK  Name = 
REMARK  5 active torsions:
REMARK  status: ('A' for Active; 'I' for Inactive)
REMARK    1  A    between atoms: C_2  and  C_3
REMARK    2  A    between atoms: C_7  and  C_8
REMARK    3  A    between atoms: C_8  and  O_9
REMARK    4  A    between atoms: O_9  and  N_10
REMARK    5  A    between atoms: C_11  and  C_13
REMARK                            x       y       z     vdW  Elec       q    Type
REMARK                         _______ _______ _______ _____ _____    ______ ____
ROOT
ATOM      1  N   UNL     1       6.210   4.050  16.346  0.00  0.00    +0.000 N 
ATOM      2  C   UNL     1       6.737   4.623  15.209  0.00  0.00    +0.000 C 
ATOM      3  O   UNL     1       7.530   5.561  15.213  0.00  0.00    +0.000 OA
ATOM      4  H   UNL     1       5.916   3.082  16.325  0.00  0.00    +0.000 HD
ENDROOT
BRANCH   2   5
ATOM      5  C   UNL     1       6.245   4.042  13.976  0.00  0.00    +0.000 A 
ATOM      6  C   UNL     1       5.026   4.171  13.322  0.00  0.00    +0.000 A 
ATOM      7  C   UNL     1       5.093   3.415  12.133  0.00  0.00    +0.000 A 
ATOM      8 BR   UNL     1       3.667   3.299  10.922  0.00  0.00    +0.000 Br
ATOM      9  C   UNL     1       6.334   2.841  12.071  0.00  0.00    +0.000 A 
ATOM     10 BR   UNL     1       7.006   1.737  10.730  0.00  0.00    +0.000 Br
ATOM     11  N   UNL     1       7.029   3.221  13.185  0.00  0.00    +0.000 N 
ATOM     12  H   UNL     1       7.982   2.957  13.404  0.00  0.00    +0.000 HD
ENDBRANCH   2   5
BRANCH   1  13
ATOM     13  O   UNL     1       6.774   4.474  17.574  0.00  0.00    +0.000 OA
BRANCH  13  14
ATOM     14  C   UNL     1       6.122   5.688  17.968  0.00  0.00    +0.000 C 
BRANCH  14  19
ATOM     15  C   UNL     1       3.140   4.202  19.839  0.00  0.00    +0.000 A 
ATOM     16  C   UNL     1       2.072   4.787  19.151  0.00  0.00    +0.000 A 
ATOM     17  C   UNL     1       2.318   5.657  18.089  0.00  0.00    +0.000 A 
ATOM     18  C   UNL     1       3.630   5.947  17.714  0.00  0.00    +0.000 A 
ATOM     19  C   UNL     1       4.713   5.377  18.398  0.00  0.00    +0.000 A 
ATOM     20  C   UNL     1       4.457   4.497  19.462  0.00  0.00    +0.000 A 
BRANCH  15  22
ATOM     21  N   UNL     1       2.689   2.573  21.808  0.00  0.00    +0.000 NA
ATOM     22  C   UNL     1       2.888   3.300  20.925  0.00  0.00    +0.000 C 
ENDBRANCH  15  22
ENDBRANCH  14  19
ENDBRANCH  13  14
ENDBRANCH   1  13
TORSDOF 5
ENDMDL
MODEL 7
REMARK VINA RESULT:      -6.8      4.943      6.087
REMARK  Name = 
REMARK  5 active torsions:
REMARK  status: ('A' for Active; 'I' for Inactive)
REMARK    1  A    between atoms: C_2  and  C_3
REMARK    2  A    between atoms: C_7  and  C_8
REMARK    3  A    between atoms: C_8  and  O_9
REMARK    4  A    between atoms: O_9  and  N_10
REMARK    5  A    between atoms: C_11  and  C_13
REMARK                            x       y       z     vdW  Elec       q    Type
REMARK                         _______ _______ _______ _____ _____    ______ ____
ROOT
ATOM      1  N   UNL     1       8.339   6.999  18.834  0.00  0.00    +0.000 N 
ATOM      2  C   UNL     1       8.050   7.932  17.862  0.00  0.00    +0.000 C 
ATOM      3  O   UNL     1       7.527   7.666  16.784  0.00  0.00    +0.000 OA
ATOM      4  H   UNL     1       8.375   7.286  19.804  0.00  0.00    +0.000 HD
ENDROOT
BRANCH   2   5
ATOM      5  C   UNL     1       8.453   9.282  18.204  0.00  0.00    +0.000 A 
ATOM      6  C   UNL     1       8.211  10.499  17.579  0.00  0.00    +0.000 A 
ATOM      7  C   UNL     1       8.806  11.510  18.361  0.00  0.00    +0.000 A 
ATOM      8 BR   UNL     1       8.730  13.326  17.902  0.00  0.00    +0.000 Br
ATOM      9  C   UNL     1       9.395  10.912  19.442  0.00  0.00    +0.000 A 
ATOM     10 BR   UNL     1      10.328  11.738  20.826  0.00  0.00    +0.000 Br
ATOM     11  N   UNL     1       9.181   9.566  19.346  0.00  0.00    +0.000 N 
ATOM     12  H   UNL     1       9.493   8.869  20.012  0.00  0.00    +0.000 HD
ENDBRANCH   2   5
BRANCH   1  13
ATOM     13  O   UNL     1       7.827   5.697  18.617  0.00  0.00    +0.000 OA
BRANCH  13  14
ATOM     14  C   UNL     1       6.663   5.534  19.438  0.00  0.00    +0.000 C 
BRANCH  14  19
ATOM     15  C   UNL     1       3.584   3.455  18.549  0.00  0.00    +0.000 A 
ATOM     16  C   UNL     1       3.643   3.469  17.151  0.00  0.00    +0.000 A 
ATOM     17  C   UNL     1       4.675   4.148  16.504  0.00  0.00    +0.000 A 
ATOM     18  C   UNL     1       5.646   4.817  17.248  0.00  0.00    +0.000 A 
ATOM     19  C   UNL     1       5.596   4.822  18.650  0.00  0.00    +0.000 A 
ATOM     20  C   UNL     1       4.559   4.130  19.295  0.00  0.00    +0.000 A 
BRANCH  15  22
ATOM     21  N   UNL     1       1.670   2.182  19.754  0.00  0.00    +0.000 NA
ATOM     22  C   UNL     1       2.529   2.749  19.216  0.00  0.00    +0.000 C 
ENDBRANCH  15  22
ENDBRANCH  14  19
ENDBRANCH  13  14
ENDBRANCH   1  13
TORSDOF 5
ENDMDL
MODEL 8
REMARK VINA RESULT:      -6.8      1.801      2.737
REMARK  Name = 
REMARK  5 active torsions:
REMARK  status: ('A' for Active; 'I' for Inactive)
REMARK    1  A    between atoms: C_2  and  C_3
REMARK    2  A    between atoms: C_7  and  C_8
REMARK    3  A    between atoms: C_8  and  O_9
REMARK    4  A    between atoms: O_9  and  N_10
REMARK    5  A    between atoms: C_11  and  C_13
REMARK                            x       y       z     vdW  Elec       q    Type
REMARK                         _______ _______ _______ _____ _____    ______ ____
ROOT
ATOM      1  N   UNL     1       5.142   5.531  17.803  0.00  0.00    +0.000 N 
ATOM      2  C   UNL     1       6.253   4.784  17.477  0.00  0.00    +0.000 C 
ATOM      3  O   UNL     1       7.035   4.316  18.300  0.00  0.00    +0.000 OA
ATOM      4  H   UNL     1       4.347   5.540  17.176  0.00  0.00    +0.000 HD
ENDROOT
BRANCH   2   5
ATOM      5  C   UNL     1       6.452   4.618  16.051  0.00  0.00    +0.000 A 
ATOM      6  C   UNL     1       5.814   3.805  15.123  0.00  0.00    +0.000 A 
ATOM      7  C   UNL     1       6.379   4.069  13.858  0.00  0.00    +0.000 A 
ATOM      8 BR   UNL     1       5.820   3.199  12.294  0.00  0.00    +0.000 Br
ATOM      9  C   UNL     1       7.342   5.029  14.021  0.00  0.00    +0.000 A 
ATOM     10 BR   UNL     1       8.422   5.785  12.707  0.00  0.00    +0.000 Br
ATOM     11  N   UNL     1       7.384   5.359  15.347  0.00  0.00    +0.000 N 
ATOM     12  H   UNL     1       7.996   6.052  15.762  0.00  0.00    +0.000 HD
ENDBRANCH   2   5
BRANCH   1  13
ATOM     13  O   UNL     1       4.816   5.591  19.179  0.00  0.00    +0.000 OA
BRANCH  13  14
ATOM     14  C   UNL     1       3.406   5.369  19.312  0.00  0.00    +0.000 C 
BRANCH  14  19
ATOM     15  C   UNL     1       1.335   8.375  20.440  0.00  0.00    +0.000 A 
ATOM     16  C   UNL     1       1.338   9.155  19.278  0.00  0.00    +0.000 A 
ATOM     17  C   UNL     1       2.006   8.707  18.139  0.00  0.00    +0.000 A 
ATOM     18  C   UNL     1       2.676   7.484  18.158  0.00  0.00    +0.000 A 
ATOM     19  C   UNL     1       2.693   6.694  19.317  0.00  0.00    +0.000 A 
ATOM     20  C   UNL     1       2.011   7.148  20.457  0.00  0.00    +0.000 A 
BRANCH  15  22
ATOM     21  N   UNL     1       0.083   9.197  22.559  0.00  0.00    +0.000 NA
ATOM     22  C   UNL     1       0.640   8.829  21.609  0.00  0.00    +0.000 C 
ENDBRANCH  15  22
ENDBRANCH  14  19
ENDBRANCH  13  14
ENDBRANCH   1  13
TORSDOF 5
ENDMDL
MODEL 9
REMARK VINA RESULT:      -6.8      2.708      3.738
REMARK  Name = 
REMARK  5 active torsions:
REMARK  status: ('A' for Active; 'I' for Inactive)
REMARK    1  A    between atoms: C_2  and  C_3
REMARK    2  A    between atoms: C_7  and  C_8
REMARK    3  A    between atoms: C_8  and  O_9
REMARK    4  A    between atoms: O_9  and  N_10
REMARK    5  A    between atoms: C_11  and  C_13
REMARK                            x       y       z     vdW  Elec       q    Type
REMARK                         _______ _______ _______ _____ _____    ______ ____
ROOT
ATOM      1  N   UNL     1       6.462   4.664  15.604  0.00  0.00    +0.000 N 
ATOM      2  C   UNL     1       6.955   4.834  14.328  0.00  0.00    +0.000 C 
ATOM      3  O   UNL     1       7.892   5.575  14.044  0.00  0.00    +0.000 OA
ATOM      4  H   UNL     1       6.006   3.794  15.849  0.00  0.00    +0.000 HD
ENDROOT
BRANCH   2   5
ATOM      5  C   UNL     1       6.243   4.079  13.317  0.00  0.00    +0.000 A 
ATOM      6  C   UNL     1       5.050   4.333  12.652  0.00  0.00    +0.000 A 
ATOM      7  C   UNL     1       4.836   3.282  11.735  0.00  0.00    +0.000 A 
ATOM      8 BR   UNL     1       3.340   3.207  10.607  0.00  0.00    +0.000 Br
ATOM      9  C   UNL     1       5.886   2.410  11.845  0.00  0.00    +0.000 A 
ATOM     10 BR   UNL     1       6.158   0.839  10.885  0.00  0.00    +0.000 Br
ATOM     11  N   UNL     1       6.734   2.894  12.801  0.00  0.00    +0.000 N 
ATOM     12  H   UNL     1       7.605   2.462  13.090  0.00  0.00    +0.000 HD
ENDBRANCH   2   5
BRANCH   1  13
ATOM     13  O   UNL     1       7.217   5.255  16.646  0.00  0.00    +0.000 OA
BRANCH  13  14
ATOM     14  C   UNL     1       6.663   4.826  17.895  0.00  0.00    +0.000 C 
BRANCH  14  19
ATOM     15  C   UNL     1       2.855   4.574  18.102  0.00  0.00    +0.000 A 
ATOM     16  C   UNL     1       2.490   5.920  17.994  0.00  0.00    +0.000 A 
ATOM     17  C   UNL     1       3.473   6.901  17.855  0.00  0.00    +0.000 A 
ATOM     18  C   UNL     1       4.819   6.541  17.828  0.00  0.00    +0.000 A 
ATOM     19  C   UNL     1       5.204   5.197  17.945  0.00  0.00    +0.000 A 
ATOM     20  C   UNL     1       4.210   4.215  18.077  0.00  0.00    +0.000 A 
BRANCH  15  22
ATOM     21  N   UNL     1       1.027   2.749  18.348  0.00  0.00    +0.000 NA
ATOM     22  C   UNL     1       1.846   3.564  18.234  0.00  0.00    +0.000 C 
ENDBRANCH  15  22
ENDBRANCH  14  19
ENDBRANCH  13  14
ENDBRANCH   1  13
TORSDOF 5
ENDMDL
