MODEL 1
REMARK VINA RESULT:      -6.2      0.000      0.000
REMARK  Name = 
REMARK  7 active torsions:
REMARK  status: ('A' for Active; 'I' for Inactive)
REMARK    1  A    between atoms: C_1  and  C_2
REMARK    2  A    between atoms: C_2  and  N_3
REMARK    3  A    between atoms: N_6  and  C_7
REMARK    4  A    between atoms: C_10  and  O_11
REMARK    5  A    between atoms: O_11  and  C_12
REMARK    6  A    between atoms: C_14  and  O_15
REMARK    7  A    between atoms: O_15  and  C_16
REMARK                            x       y       z     vdW  Elec       q    Type
REMARK                         _______ _______ _______ _____ _____    ______ ____
ROOT
ATOM      1  C   UNL     1       4.984   4.054  17.301  0.00  0.00    +0.000 A 
ATOM      2  C   UNL     1       3.585   3.961  17.274  0.00  0.00    +0.000 A 
ATOM      3  C   UNL     1       2.817   4.445  18.332  0.00  0.00    +0.000 A 
ATOM      4  C   UNL     1       3.428   5.049  19.428  0.00  0.00    +0.000 A 
ATOM      5  C   UNL     1       4.821   5.144  19.462  0.00  0.00    +0.000 A 
ATOM      6  C   UNL     1       5.607   4.642  18.410  0.00  0.00    +0.000 A 
ENDROOT
BRANCH   1  10
ATOM      7  N   UNL     1       6.409   3.322  14.068  0.00  0.00    +0.000 N 
ATOM      8  C   UNL     1       5.738   4.084  14.996  0.00  0.00    +0.000 C 
ATOM      9  O   UNL     1       5.257   5.182  14.729  0.00  0.00    +0.000 OA
ATOM     10  N   UNL     1       5.706   3.479  16.233  0.00  0.00    +0.000 N 
ATOM     11  H   UNL     1       6.221   2.331  14.157  0.00  0.00    +0.000 HD
ATOM     12  H   UNL     1       6.548   2.971  16.464  0.00  0.00    +0.000 HD
BRANCH   7  14
ATOM     13  C   UNL     1       5.532   3.198  11.768  0.00  0.00    +0.000 C 
ATOM     14  C   UNL     1       6.512   3.847  12.719  0.00  0.00    +0.000 C 
ENDBRANCH   7  14
ENDBRANCH   1  10
BRANCH   4  15
ATOM     15  O   UNL     1       2.559   5.480  20.390  0.00  0.00    +0.000 OA
ATOM     16  C   UNL     1       1.909   4.483  21.167  0.00  0.00    +0.000 C 
ENDBRANCH   4  15
BRANCH   6  17
ATOM     17  O   UNL     1       6.961   4.745  18.615  0.00  0.00    +0.000 OA
ATOM     18  C   UNL     1       7.570   5.970  18.220  0.00  0.00    +0.000 C 
ENDBRANCH   6  17
TORSDOF 4
ENDMDL
MODEL 2
REMARK VINA RESULT:      -6.1      2.378      5.734
REMARK  Name = 
REMARK  7 active torsions:
REMARK  status: ('A' for Active; 'I' for Inactive)
REMARK    1  A    between atoms: C_1  and  C_2
REMARK    2  A    between atoms: C_2  and  N_3
REMARK    3  A    between atoms: N_6  and  C_7
REMARK    4  A    between atoms: C_10  and  O_11
REMARK    5  A    between atoms: O_11  and  C_12
REMARK    6  A    between atoms: C_14  and  O_15
REMARK    7  A    between atoms: O_15  and  C_16
REMARK                            x       y       z     vdW  Elec       q    Type
REMARK                         _______ _______ _______ _____ _____    ______ ____
ROOT
ATOM      1  C   UNL     1       4.945   5.301  18.021  0.00  0.00    +0.000 A 
ATOM      2  C   UNL     1       4.537   5.562  16.705  0.00  0.00    +0.000 A 
ATOM      3  C   UNL     1       5.460   5.570  15.659  0.00  0.00    +0.000 A 
ATOM      4  C   UNL     1       6.803   5.296  15.903  0.00  0.00    +0.000 A 
ATOM      5  C   UNL     1       7.217   5.035  17.211  0.00  0.00    +0.000 A 
ATOM      6  C   UNL     1       6.299   5.045  18.277  0.00  0.00    +0.000 A 
ENDROOT
BRANCH   1  10
ATOM      7  N   UNL     1       2.153   4.669  20.216  0.00  0.00    +0.000 N 
ATOM      8  C   UNL     1       3.074   4.359  19.243  0.00  0.00    +0.000 C 
ATOM      9  O   UNL     1       3.083   3.279  18.658  0.00  0.00    +0.000 OA
ATOM     10  N   UNL     1       3.974   5.382  19.042  0.00  0.00    +0.000 N 
ATOM     11  H   UNL     1       1.844   5.632  20.179  0.00  0.00    +0.000 HD
ATOM     12  H   UNL     1       4.231   5.876  19.885  0.00  0.00    +0.000 HD
BRANCH   7  14
ATOM     13  C   UNL     1       1.545   2.773  21.669  0.00  0.00    +0.000 C 
ATOM     14  C   UNL     1       1.143   3.673  20.523  0.00  0.00    +0.000 C 
ENDBRANCH   7  14
ENDBRANCH   1  10
BRANCH   4  15
ATOM     15  O   UNL     1       7.596   5.333  14.791  0.00  0.00    +0.000 OA
ATOM     16  C   UNL     1       7.086   4.721  13.614  0.00  0.00    +0.000 C 
ENDBRANCH   4  15
BRANCH   6  17
ATOM     17  O   UNL     1       6.862   4.839  19.511  0.00  0.00    +0.000 OA
ATOM     18  C   UNL     1       8.024   5.605  19.813  0.00  0.00    +0.000 C 
ENDBRANCH   6  17
TORSDOF 4
ENDMDL
MODEL 3
REMARK VINA RESULT:      -6.1      2.206      5.466
REMARK  Name = 
REMARK  7 active torsions:
REMARK  status: ('A' for Active; 'I' for Inactive)
REMARK    1  A    between atoms: C_1  and  C_2
REMARK    2  A    between atoms: C_2  and  N_3
REMARK    3  A    between atoms: N_6  and  C_7
REMARK    4  A    between atoms: C_10  and  O_11
REMARK    5  A    between atoms: O_11  and  C_12
REMARK    6  A    between atoms: C_14  and  O_15
REMARK    7  A    between atoms: O_15  and  C_16
REMARK                            x       y       z     vdW  Elec       q    Type
REMARK                         _______ _______ _______ _____ _____    ______ ____
ROOT
ATOM      1  C   UNL     1       5.731   4.331  18.054  0.00  0.00    +0.000 A 
ATOM      2  C   UNL     1       6.173   5.320  18.944  0.00  0.00    +0.000 A 
ATOM      3  C   UNL     1       6.957   6.384  18.499  0.00  0.00    +0.000 A 
ATOM      4  C   UNL     1       7.296   6.493  17.152  0.00  0.00    +0.000 A 
ATOM      5  C   UNL     1       6.858   5.512  16.259  0.00  0.00    +0.000 A 
ATOM      6  C   UNL     1       6.085   4.424  16.701  0.00  0.00    +0.000 A 
ENDROOT
BRANCH   1  10
ATOM      7  N   UNL     1       3.127   2.191  19.341  0.00  0.00    +0.000 N 
ATOM      8  C   UNL     1       3.635   3.308  18.720  0.00  0.00    +0.000 C 
ATOM      9  O   UNL     1       2.923   4.227  18.322  0.00  0.00    +0.000 OA
ATOM     10  N   UNL     1       5.004   3.243  18.582  0.00  0.00    +0.000 N 
ATOM     11  H   UNL     1       3.709   1.859  20.100  0.00  0.00    +0.000 HD
ATOM     12  H   UNL     1       5.354   2.316  18.389  0.00  0.00    +0.000 HD
BRANCH   7  14
ATOM     13  C   UNL     1       1.273   2.758  20.863  0.00  0.00    +0.000 C 
ATOM     14  C   UNL     1       1.692   2.136  19.551  0.00  0.00    +0.000 C 
ENDBRANCH   7  14
ENDBRANCH   1  10
BRANCH   4  15
ATOM     15  O   UNL     1       8.063   7.583  16.852  0.00  0.00    +0.000 OA
ATOM     16  C   UNL     1       8.071   8.646  17.794  0.00  0.00    +0.000 C 
ENDBRANCH   4  15
BRANCH   6  17
ATOM     17  O   UNL     1       5.787   3.507  15.724  0.00  0.00    +0.000 OA
ATOM     18  C   UNL     1       5.986   3.927  14.378  0.00  0.00    +0.000 C 
ENDBRANCH   6  17
TORSDOF 4
ENDMDL
MODEL 4
REMARK VINA RESULT:      -6.1      2.178      5.744
REMARK  Name = 
REMARK  7 active torsions:
REMARK  status: ('A' for Active; 'I' for Inactive)
REMARK    1  A    between atoms: C_1  and  C_2
REMARK    2  A    between atoms: C_2  and  N_3
REMARK    3  A    between atoms: N_6  and  C_7
REMARK    4  A    between atoms: C_10  and  O_11
REMARK    5  A    between atoms: O_11  and  C_12
REMARK    6  A    between atoms: C_14  and  O_15
REMARK    7  A    between atoms: O_15  and  C_16
REMARK                            x       y       z     vdW  Elec       q    Type
REMARK                         _______ _______ _______ _____ _____    ______ ____
ROOT
ATOM      1  C   UNL     1       5.253   4.588  17.695  0.00  0.00    +0.000 A 
ATOM      2  C   UNL     1       4.525   4.535  16.498  0.00  0.00    +0.000 A 
ATOM      3  C   UNL     1       5.177   4.486  15.266  0.00  0.00    +0.000 A 
ATOM      4  C   UNL     1       6.568   4.467  15.206  0.00  0.00    +0.000 A 
ATOM      5  C   UNL     1       7.301   4.520  16.395  0.00  0.00    +0.000 A 
ATOM      6  C   UNL     1       6.654   4.590  17.642  0.00  0.00    +0.000 A 
ENDROOT
BRANCH   1  10
ATOM      7  N   UNL     1       3.250   3.942  20.625  0.00  0.00    +0.000 N 
ATOM      8  C   UNL     1       3.993   3.604  19.519  0.00  0.00    +0.000 C 
ATOM      9  O   UNL     1       4.159   2.440  19.163  0.00  0.00    +0.000 OA
ATOM     10  N   UNL     1       4.533   4.711  18.902  0.00  0.00    +0.000 N 
ATOM     11  H   UNL     1       2.700   4.782  20.493  0.00  0.00    +0.000 HD
ATOM     12  H   UNL     1       4.823   5.437  19.542  0.00  0.00    +0.000 HD
BRANCH   7  14
ATOM     13  C   UNL     1       1.132   2.785  21.123  0.00  0.00    +0.000 C 
ATOM     14  C   UNL     1       2.622   2.864  21.366  0.00  0.00    +0.000 C 
ENDBRANCH   7  14
ENDBRANCH   1  10
BRANCH   4  15
ATOM     15  O   UNL     1       7.076   4.415  13.939  0.00  0.00    +0.000 OA
ATOM     16  C   UNL     1       6.301   3.736  12.961  0.00  0.00    +0.000 C 
ENDBRANCH   4  15
BRANCH   6  17
ATOM     17  O   UNL     1       7.503   4.705  18.714  0.00  0.00    +0.000 OA
ATOM     18  C   UNL     1       7.892   6.027  19.075  0.00  0.00    +0.000 C 
ENDBRANCH   6  17
TORSDOF 4
ENDMDL
MODEL 5
REMARK VINA RESULT:      -6.0      2.022      5.588
REMARK  Name = 
REMARK  7 active torsions:
REMARK  status: ('A' for Active; 'I' for Inactive)
REMARK    1  A    between atoms: C_1  and  C_2
REMARK    2  A    between atoms: C_2  and  N_3
REMARK    3  A    between atoms: N_6  and  C_7
REMARK    4  A    between atoms: C_10  and  O_11
REMARK    5  A    between atoms: O_11  and  C_12
REMARK    6  A    between atoms: C_14  and  O_15
REMARK    7  A    between atoms: O_15  and  C_16
REMARK                            x       y       z     vdW  Elec       q    Type
REMARK                         _______ _______ _______ _____ _____    ______ ____
ROOT
ATOM      1  C   UNL     1       5.298   3.722  16.713  0.00  0.00    +0.000 A 
ATOM      2  C   UNL     1       5.144   3.728  15.319  0.00  0.00    +0.000 A 
ATOM      3  C   UNL     1       6.063   4.386  14.502  0.00  0.00    +0.000 A 
ATOM      4  C   UNL     1       7.165   5.031  15.058  0.00  0.00    +0.000 A 
ATOM      5  C   UNL     1       7.326   5.028  16.445  0.00  0.00    +0.000 A 
ATOM      6  C   UNL     1       6.394   4.386  17.281  0.00  0.00    +0.000 A 
ENDROOT
BRANCH   1  10
ATOM      7  N   UNL     1       2.389   3.060  18.742  0.00  0.00    +0.000 N 
ATOM      8  C   UNL     1       3.200   3.814  17.926  0.00  0.00    +0.000 C 
ATOM      9  O   UNL     1       2.940   4.976  17.624  0.00  0.00    +0.000 OA
ATOM     10  N   UNL     1       4.293   3.102  17.486  0.00  0.00    +0.000 N 
ATOM     11  H   UNL     1       2.907   2.461  19.373  0.00  0.00    +0.000 HD
ATOM     12  H   UNL     1       4.101   2.128  17.298  0.00  0.00    +0.000 HD
BRANCH   7  14
ATOM     13  C   UNL     1       1.270   3.888  20.776  0.00  0.00    +0.000 C 
ATOM     14  C   UNL     1       1.200   3.697  19.278  0.00  0.00    +0.000 C 
ENDBRANCH   7  14
ENDBRANCH   1  10
BRANCH   4  15
ATOM     15  O   UNL     1       7.986   5.630  14.145  0.00  0.00    +0.000 OA
ATOM     16  C   UNL     1       7.855   5.219  12.791  0.00  0.00    +0.000 C 
ENDBRANCH   4  15
BRANCH   6  17
ATOM     17  O   UNL     1       6.646   4.526  18.623  0.00  0.00    +0.000 OA
ATOM     18  C   UNL     1       7.426   5.653  19.007  0.00  0.00    +0.000 C 
ENDBRANCH   6  17
TORSDOF 4
ENDMDL
MODEL 6
REMARK VINA RESULT:      -6.0      2.307      5.687
REMARK  Name = 
REMARK  7 active torsions:
REMARK  status: ('A' for Active; 'I' for Inactive)
REMARK    1  A    between atoms: C_1  and  C_2
REMARK    2  A    between atoms: C_2  and  N_3
REMARK    3  A    between atoms: N_6  and  C_7
REMARK    4  A    between atoms: C_10  and  O_11
REMARK    5  A    between atoms: O_11  and  C_12
REMARK    6  A    between atoms: C_14  and  O_15
REMARK    7  A    between atoms: O_15  and  C_16
REMARK                            x       y       z     vdW  Elec       q    Type
REMARK                         _______ _______ _______ _____ _____    ______ ____
ROOT
ATOM      1  C   UNL     1       6.124   4.900  18.376  0.00  0.00    +0.000 A 
ATOM      2  C   UNL     1       7.069   5.537  19.194  0.00  0.00    +0.000 A 
ATOM      3  C   UNL     1       7.750   6.670  18.750  0.00  0.00    +0.000 A 
ATOM      4  C   UNL     1       7.486   7.202  17.490  0.00  0.00    +0.000 A 
ATOM      5  C   UNL     1       6.546   6.573  16.670  0.00  0.00    +0.000 A 
ATOM      6  C   UNL     1       5.868   5.418  17.099  0.00  0.00    +0.000 A 
ENDROOT
BRANCH   1  10
ATOM      7  N   UNL     1       3.843   2.486  19.787  0.00  0.00    +0.000 N 
ATOM      8  C   UNL     1       4.209   3.704  19.263  0.00  0.00    +0.000 C 
ATOM      9  O   UNL     1       3.425   4.644  19.159  0.00  0.00    +0.000 OA
ATOM     10  N   UNL     1       5.525   3.716  18.857  0.00  0.00    +0.000 N 
ATOM     11  H   UNL     1       4.566   2.066  20.358  0.00  0.00    +0.000 HD
ATOM     12  H   UNL     1       5.840   2.843  18.456  0.00  0.00    +0.000 HD
BRANCH   7  14
ATOM     13  C   UNL     1       2.324   2.713  21.714  0.00  0.00    +0.000 C 
ATOM     14  C   UNL     1       2.478   2.343  20.256  0.00  0.00    +0.000 C 
ENDBRANCH   7  14
ENDBRANCH   1  10
BRANCH   4  15
ATOM     15  O   UNL     1       8.220   8.312  17.183  0.00  0.00    +0.000 OA
ATOM     16  C   UNL     1       8.407   9.268  18.218  0.00  0.00    +0.000 C 
ENDBRANCH   4  15
BRANCH   6  17
ATOM     17  O   UNL     1       5.027   4.873  16.161  0.00  0.00    +0.000 OA
ATOM     18  C   UNL     1       5.631   4.040  15.176  0.00  0.00    +0.000 C 
ENDBRANCH   6  17
TORSDOF 4
ENDMDL
MODEL 7
REMARK VINA RESULT:      -5.9      3.114      5.184
REMARK  Name = 
REMARK  7 active torsions:
REMARK  status: ('A' for Active; 'I' for Inactive)
REMARK    1  A    between atoms: C_1  and  C_2
REMARK    2  A    between atoms: C_2  and  N_3
REMARK    3  A    between atoms: N_6  and  C_7
REMARK    4  A    between atoms: C_10  and  O_11
REMARK    5  A    between atoms: O_11  and  C_12
REMARK    6  A    between atoms: C_14  and  O_15
REMARK    7  A    between atoms: O_15  and  C_16
REMARK                            x       y       z     vdW  Elec       q    Type
REMARK                         _______ _______ _______ _____ _____    ______ ____
ROOT
ATOM      1  C   UNL     1       6.031   6.319  17.026  0.00  0.00    +0.000 A 
ATOM      2  C   UNL     1       4.983   6.079  17.926  0.00  0.00    +0.000 A 
ATOM      3  C   UNL     1       4.323   4.851  17.943  0.00  0.00    +0.000 A 
ATOM      4  C   UNL     1       4.710   3.831  17.077  0.00  0.00    +0.000 A 
ATOM      5  C   UNL     1       5.753   4.063  16.177  0.00  0.00    +0.000 A 
ATOM      6  C   UNL     1       6.412   5.304  16.137  0.00  0.00    +0.000 A 
ENDROOT
BRANCH   1  10
ATOM      7  N   UNL     1       7.983   9.260  17.770  0.00  0.00    +0.000 N 
ATOM      8  C   UNL     1       7.627   7.936  17.875  0.00  0.00    +0.000 C 
ATOM      9  O   UNL     1       8.188   7.157  18.641  0.00  0.00    +0.000 OA
ATOM     10  N   UNL     1       6.607   7.607  17.010  0.00  0.00    +0.000 N 
ATOM     11  H   UNL     1       7.190   9.877  17.645  0.00  0.00    +0.000 HD
ATOM     12  H   UNL     1       6.655   8.081  16.118  0.00  0.00    +0.000 HD
BRANCH   7  14
ATOM     13  C   UNL     1       9.586  11.082  18.202  0.00  0.00    +0.000 C 
ATOM     14  C   UNL     1       9.048   9.737  18.633  0.00  0.00    +0.000 C 
ENDBRANCH   7  14
ENDBRANCH   1  10
BRANCH   4  15
ATOM     15  O   UNL     1       3.983   2.681  17.202  0.00  0.00    +0.000 OA
ATOM     16  C   UNL     1       3.240   2.514  18.401  0.00  0.00    +0.000 C 
ENDBRANCH   4  15
BRANCH   6  17
ATOM     17  O   UNL     1       7.367   5.407  15.157  0.00  0.00    +0.000 OA
ATOM     18  C   UNL     1       7.079   4.762  13.920  0.00  0.00    +0.000 C 
ENDBRANCH   6  17
TORSDOF 4
ENDMDL
MODEL 8
REMARK VINA RESULT:      -5.9      2.392      4.305
REMARK  Name = 
REMARK  7 active torsions:
REMARK  status: ('A' for Active; 'I' for Inactive)
REMARK    1  A    between atoms: C_1  and  C_2
REMARK    2  A    between atoms: C_2  and  N_3
REMARK    3  A    between atoms: N_6  and  C_7
REMARK    4  A    between atoms: C_10  and  O_11
REMARK    5  A    between atoms: O_11  and  C_12
REMARK    6  A    between atoms: C_14  and  O_15
REMARK    7  A    between atoms: O_15  and  C_16
REMARK                            x       y       z     vdW  Elec       q    Type
REMARK                         _______ _______ _______ _____ _____    ______ ____
ROOT
ATOM      1  C   UNL     1       4.359   5.548  17.128  0.00  0.00    +0.000 A 
ATOM      2  C   UNL     1       3.160   5.918  17.753  0.00  0.00    +0.000 A 
ATOM      3  C   UNL     1       2.162   4.974  17.997  0.00  0.00    +0.000 A 
ATOM      4  C   UNL     1       2.351   3.641  17.643  0.00  0.00    +0.000 A 
ATOM      5  C   UNL     1       3.544   3.266  17.020  0.00  0.00    +0.000 A 
ATOM      6  C   UNL     1       4.548   4.212  16.750  0.00  0.00    +0.000 A 
ENDROOT
BRANCH   1  10
ATOM      7  N   UNL     1       7.122   7.865  17.269  0.00  0.00    +0.000 N 
ATOM      8  C   UNL     1       6.386   6.771  17.660  0.00  0.00    +0.000 C 
ATOM      9  O   UNL     1       6.702   6.065  18.615  0.00  0.00    +0.000 OA
ATOM     10  N   UNL     1       5.296   6.565  16.843  0.00  0.00    +0.000 N 
ATOM     11  H   UNL     1       6.549   8.641  16.963  0.00  0.00    +0.000 HD
ATOM     12  H   UNL     1       5.466   6.777  15.870  0.00  0.00    +0.000 HD
BRANCH   7  14
ATOM     13  C   UNL     1       8.536   9.684  18.144  0.00  0.00    +0.000 C 
ATOM     14  C   UNL     1       8.299   8.194  18.053  0.00  0.00    +0.000 C 
ENDBRANCH   7  14
ENDBRANCH   1  10
BRANCH   4  15
ATOM     15  O   UNL     1       1.298   2.824  17.942  0.00  0.00    +0.000 OA
ATOM     16  C   UNL     1       0.832   2.837  19.284  0.00  0.00    +0.000 C 
ENDBRANCH   4  15
BRANCH   6  17
ATOM     17  O   UNL     1       5.632   3.710  16.073  0.00  0.00    +0.000 OA
ATOM     18  C   UNL     1       5.726   4.042  14.692  0.00  0.00    +0.000 C 
ENDBRANCH   6  17
TORSDOF 4
ENDMDL
MODEL 9
REMARK VINA RESULT:      -5.9      3.230      6.700
REMARK  Name = 
REMARK  7 active torsions:
REMARK  status: ('A' for Active; 'I' for Inactive)
REMARK    1  A    between atoms: C_1  and  C_2
REMARK    2  A    between atoms: C_2  and  N_3
REMARK    3  A    between atoms: N_6  and  C_7
REMARK    4  A    between atoms: C_10  and  O_11
REMARK    5  A    between atoms: O_11  and  C_12
REMARK    6  A    between atoms: C_14  and  O_15
REMARK    7  A    between atoms: O_15  and  C_16
REMARK                            x       y       z     vdW  Elec       q    Type
REMARK                         _______ _______ _______ _____ _____    ______ ____
ROOT
ATOM      1  C   UNL     1       3.433   5.307  18.979  0.00  0.00    +0.000 A 
ATOM      2  C   UNL     1       4.815   5.518  18.867  0.00  0.00    +0.000 A 
ATOM      3  C   UNL     1       5.551   4.902  17.855  0.00  0.00    +0.000 A 
ATOM      4  C   UNL     1       4.920   4.081  16.924  0.00  0.00    +0.000 A 
ATOM      5  C   UNL     1       3.543   3.867  17.030  0.00  0.00    +0.000 A 
ATOM      6  C   UNL     1       2.794   4.466  18.058  0.00  0.00    +0.000 A 
ENDROOT
BRANCH   1  10
ATOM      7  N   UNL     1       1.674   7.593  21.147  0.00  0.00    +0.000 N 
ATOM      8  C   UNL     1       2.195   7.152  19.953  0.00  0.00    +0.000 C 
ATOM      9  O   UNL     1       2.125   7.807  18.917  0.00  0.00    +0.000 OA
ATOM     10  N   UNL     1       2.761   5.901  20.069  0.00  0.00    +0.000 N 
ATOM     11  H   UNL     1       2.253   7.357  21.944  0.00  0.00    +0.000 HD
ATOM     12  H   UNL     1       2.270   5.284  20.701  0.00  0.00    +0.000 HD
BRANCH   7  14
ATOM     13  C   UNL     1      -0.176   8.951  22.045  0.00  0.00    +0.000 C 
ATOM     14  C   UNL     1       1.050   8.903  21.162  0.00  0.00    +0.000 C 
ENDBRANCH   7  14
ENDBRANCH   1  10
BRANCH   4  15
ATOM     15  O   UNL     1       5.757   3.545  15.987  0.00  0.00    +0.000 OA
ATOM     16  C   UNL     1       6.692   4.425  15.378  0.00  0.00    +0.000 C 
ENDBRANCH   4  15
BRANCH   6  17
ATOM     17  O   UNL     1       1.469   4.109  18.075  0.00  0.00    +0.000 OA
ATOM     18  C   UNL     1       1.170   2.806  18.565  0.00  0.00    +0.000 C 
ENDBRANCH   6  17
TORSDOF 4
ENDMDL
