MODEL 1
REMARK VINA RESULT:      -7.7      0.000      0.000
REMARK  Name = 
REMARK  4 active torsions:
REMARK  status: ('A' for Active; 'I' for Inactive)
REMARK    1  A    between atoms: C_1  and  O_2
REMARK    2  A    between atoms: O_2  and  C_3
REMARK    3  A    between atoms: N_16  and  C_17
REMARK    4  A    between atoms: C_22  and  C_23
REMARK                            x       y       z     vdW  Elec       q    Type
REMARK                         _______ _______ _______ _____ _____    ______ ____
ROOT
ATOM      1  C   UNL     1       1.139   8.609  19.942  0.00  0.00    +0.000 A 
ATOM      2  C   UNL     1       1.315   9.618  19.021  0.00  0.00    +0.000 A 
ATOM      3  C   UNL     1       2.190   9.393  17.956  0.00  0.00    +0.000 A 
ATOM      4  C   UNL     1       2.890   8.160  17.819  0.00  0.00    +0.000 A 
ATOM      5  C   UNL     1       2.755   7.096  18.747  0.00  0.00    +0.000 A 
ATOM      6  C   UNL     1       3.434   5.780  18.789  0.00  0.00    +0.000 A 
ATOM      7  C   UNL     1       3.028   4.936  19.855  0.00  0.00    +0.000 A 
ATOM      8  C   UNL     1       2.055   5.337  20.758  0.00  0.00    +0.000 A 
ATOM      9  N   UNL     1       1.473   6.522  20.742  0.00  0.00    +0.000 NA
ATOM     10  C   UNL     1       1.815   7.382  19.802  0.00  0.00    +0.000 A 
ATOM     11  C   UNL     1       3.578   3.604  20.216  0.00  0.00    +0.000 C 
ATOM     12  C   UNL     1       4.471   2.999  19.199  0.00  0.00    +0.000 C 
ATOM     13  C   UNL     1       5.072   3.961  18.223  0.00  0.00    +0.000 C 
ATOM     14  N   UNL     1       4.356   5.234  17.835  0.00  0.00    +0.000 N 
ENDROOT
BRANCH  14  15
ATOM     15  C   UNL     1       5.198   5.752  16.689  0.00  0.00    +0.000 A 
ATOM     16  C   UNL     1       4.741   5.273  15.428  0.00  0.00    +0.000 A 
ATOM     17  C   UNL     1       5.556   4.445  14.635  0.00  0.00    +0.000 A 
ATOM     18  C   UNL     1       6.894   4.273  14.961  0.00  0.00    +0.000 A 
ATOM     19  C   UNL     1       7.435   5.042  15.985  0.00  0.00    +0.000 A 
ATOM     20  C   UNL     1       6.607   5.824  16.826  0.00  0.00    +0.000 A 
ATOM     21  C   UNL     1       7.273   6.864  17.678  0.00  0.00    +0.000 C 
ENDBRANCH  14  15
BRANCH   1  23
ATOM     22  C   UNL     1       0.343   9.928  21.830  0.00  0.00    +0.000 C 
ATOM     23  O   UNL     1       0.381   8.724  21.095  0.00  0.00    +0.000 OA
ENDBRANCH   1  23
TORSDOF 2
ENDMDL
MODEL 2
REMARK VINA RESULT:      -7.5      1.808      4.391
REMARK  Name = 
REMARK  4 active torsions:
REMARK  status: ('A' for Active; 'I' for Inactive)
REMARK    1  A    between atoms: C_1  and  O_2
REMARK    2  A    between atoms: O_2  and  C_3
REMARK    3  A    between atoms: N_16  and  C_17
REMARK    4  A    between atoms: C_22  and  C_23
REMARK                            x       y       z     vdW  Elec       q    Type
REMARK                         _______ _______ _______ _____ _____    ______ ____
ROOT
ATOM      1  C   UNL     1       1.824   8.538  19.511  0.00  0.00    +0.000 A 
ATOM      2  C   UNL     1       1.081   8.151  20.604  0.00  0.00    +0.000 A 
ATOM      3  C   UNL     1       1.100   6.804  20.972  0.00  0.00    +0.000 A 
ATOM      4  C   UNL     1       1.860   5.846  20.239  0.00  0.00    +0.000 A 
ATOM      5  C   UNL     1       2.630   6.190  19.100  0.00  0.00    +0.000 A 
ATOM      6  C   UNL     1       3.431   5.329  18.199  0.00  0.00    +0.000 A 
ATOM      7  C   UNL     1       4.109   6.022  17.162  0.00  0.00    +0.000 A 
ATOM      8  C   UNL     1       4.020   7.400  17.042  0.00  0.00    +0.000 A 
ATOM      9  N   UNL     1       3.280   8.165  17.823  0.00  0.00    +0.000 NA
ATOM     10  C   UNL     1       2.591   7.599  18.795  0.00  0.00    +0.000 A 
ATOM     11  C   UNL     1       4.914   5.438  16.058  0.00  0.00    +0.000 C 
ATOM     12  C   UNL     1       5.240   4.001  16.214  0.00  0.00    +0.000 C 
ATOM     13  C   UNL     1       4.351   3.240  17.148  0.00  0.00    +0.000 C 
ATOM     14  N   UNL     1       3.680   3.921  18.318  0.00  0.00    +0.000 N 
ENDROOT
BRANCH  14  15
ATOM     15  C   UNL     1       3.096   2.757  19.088  0.00  0.00    +0.000 A 
ATOM     16  C   UNL     1       1.697   2.609  18.860  0.00  0.00    +0.000 A 
ATOM     17  C   UNL     1       0.777   2.766  19.912  0.00  0.00    +0.000 A 
ATOM     18  C   UNL     1       1.229   2.838  21.223  0.00  0.00    +0.000 A 
ATOM     19  C   UNL     1       2.575   2.606  21.478  0.00  0.00    +0.000 A 
ATOM     20  C   UNL     1       3.513   2.514  20.421  0.00  0.00    +0.000 A 
ATOM     21  C   UNL     1       4.862   1.944  20.743  0.00  0.00    +0.000 C 
ENDBRANCH  14  15
BRANCH   1  23
ATOM     22  C   UNL     1       0.764  10.713  19.220  0.00  0.00    +0.000 C 
ATOM     23  O   UNL     1       1.825   9.814  18.975  0.00  0.00    +0.000 OA
ENDBRANCH   1  23
TORSDOF 2
ENDMDL
MODEL 3
REMARK VINA RESULT:      -7.0      2.407      6.232
REMARK  Name = 
REMARK  4 active torsions:
REMARK  status: ('A' for Active; 'I' for Inactive)
REMARK    1  A    between atoms: C_1  and  O_2
REMARK    2  A    between atoms: O_2  and  C_3
REMARK    3  A    between atoms: N_16  and  C_17
REMARK    4  A    between atoms: C_22  and  C_23
REMARK                            x       y       z     vdW  Elec       q    Type
REMARK                         _______ _______ _______ _____ _____    ______ ____
ROOT
ATOM      1  C   UNL     1       5.634   4.737  16.084  0.00  0.00    +0.000 A 
ATOM      2  C   UNL     1       6.242   5.961  15.918  0.00  0.00    +0.000 A 
ATOM      3  C   UNL     1       5.801   7.029  16.704  0.00  0.00    +0.000 A 
ATOM      4  C   UNL     1       4.748   6.867  17.651  0.00  0.00    +0.000 A 
ATOM      5  C   UNL     1       4.080   5.632  17.849  0.00  0.00    +0.000 A 
ATOM      6  C   UNL     1       2.945   5.298  18.741  0.00  0.00    +0.000 A 
ATOM      7  C   UNL     1       2.546   3.936  18.709  0.00  0.00    +0.000 A 
ATOM      8  C   UNL     1       3.202   3.014  17.908  0.00  0.00    +0.000 A 
ATOM      9  N   UNL     1       4.190   3.317  17.088  0.00  0.00    +0.000 NA
ATOM     10  C   UNL     1       4.605   4.568  17.030  0.00  0.00    +0.000 A 
ATOM     11  C   UNL     1       1.398   3.312  19.417  0.00  0.00    +0.000 C 
ATOM     12  C   UNL     1       0.765   4.162  20.453  0.00  0.00    +0.000 C 
ATOM     13  C   UNL     1       1.019   5.631  20.319  0.00  0.00    +0.000 C 
ATOM     14  N   UNL     1       2.290   6.151  19.690  0.00  0.00    +0.000 N 
ENDROOT
BRANCH  14  15
ATOM     15  C   UNL     1       2.218   7.635  19.976  0.00  0.00    +0.000 A 
ATOM     16  C   UNL     1       1.928   7.905  21.344  0.00  0.00    +0.000 A 
ATOM     17  C   UNL     1       0.739   8.562  21.711  0.00  0.00    +0.000 A 
ATOM     18  C   UNL     1      -0.052   9.158  20.738  0.00  0.00    +0.000 A 
ATOM     19  C   UNL     1       0.426   9.217  19.435  0.00  0.00    +0.000 A 
ATOM     20  C   UNL     1       1.586   8.502  19.049  0.00  0.00    +0.000 A 
ATOM     21  C   UNL     1       2.220   8.869  17.740  0.00  0.00    +0.000 C 
ENDBRANCH  14  15
BRANCH   1  23
ATOM     22  C   UNL     1       6.227   3.734  13.944  0.00  0.00    +0.000 C 
ATOM     23  O   UNL     1       5.899   3.619  15.312  0.00  0.00    +0.000 OA
ENDBRANCH   1  23
TORSDOF 2
ENDMDL
MODEL 4
REMARK VINA RESULT:      -6.9      1.082      2.004
REMARK  Name = 
REMARK  4 active torsions:
REMARK  status: ('A' for Active; 'I' for Inactive)
REMARK    1  A    between atoms: C_1  and  O_2
REMARK    2  A    between atoms: O_2  and  C_3
REMARK    3  A    between atoms: N_16  and  C_17
REMARK    4  A    between atoms: C_22  and  C_23
REMARK                            x       y       z     vdW  Elec       q    Type
REMARK                         _______ _______ _______ _____ _____    ______ ____
ROOT
ATOM      1  C   UNL     1       1.600   8.506  19.267  0.00  0.00    +0.000 A 
ATOM      2  C   UNL     1       2.206   9.231  18.265  0.00  0.00    +0.000 A 
ATOM      3  C   UNL     1       3.243   8.628  17.550  0.00  0.00    +0.000 A 
ATOM      4  C   UNL     1       3.674   7.301  17.844  0.00  0.00    +0.000 A 
ATOM      5  C   UNL     1       3.093   6.520  18.875  0.00  0.00    +0.000 A 
ATOM      6  C   UNL     1       3.443   5.160  19.348  0.00  0.00    +0.000 A 
ATOM      7  C   UNL     1       2.620   4.664  20.391  0.00  0.00    +0.000 A 
ATOM      8  C   UNL     1       1.567   5.413  20.893  0.00  0.00    +0.000 A 
ATOM      9  N   UNL     1       1.275   6.638  20.497  0.00  0.00    +0.000 NA
ATOM     10  C   UNL     1       2.010   7.189  19.551  0.00  0.00    +0.000 A 
ATOM     11  C   UNL     1       2.767   3.383  21.131  0.00  0.00    +0.000 C 
ATOM     12  C   UNL     1       3.727   2.424  20.535  0.00  0.00    +0.000 C 
ATOM     13  C   UNL     1       4.739   3.024  19.609  0.00  0.00    +0.000 C 
ATOM     14  N   UNL     1       4.429   4.266  18.809  0.00  0.00    +0.000 N 
ENDROOT
BRANCH  14  15
ATOM     15  C   UNL     1       5.613   4.363  17.873  0.00  0.00    +0.000 A 
ATOM     16  C   UNL     1       6.792   4.803  18.541  0.00  0.00    +0.000 A 
ATOM     17  C   UNL     1       7.402   6.022  18.195  0.00  0.00    +0.000 A 
ATOM     18  C   UNL     1       7.001   6.696  17.049  0.00  0.00    +0.000 A 
ATOM     19  C   UNL     1       6.103   6.075  16.190  0.00  0.00    +0.000 A 
ATOM     20  C   UNL     1       5.438   4.883  16.566  0.00  0.00    +0.000 A 
ATOM     21  C   UNL     1       4.750   4.105  15.483  0.00  0.00    +0.000 C 
ENDBRANCH  14  15
BRANCH   1  23
ATOM     22  C   UNL     1      -0.040  10.216  19.836  0.00  0.00    +0.000 C 
ATOM     23  O   UNL     1       0.629   9.005  20.118  0.00  0.00    +0.000 OA
ENDBRANCH   1  23
TORSDOF 2
ENDMDL
MODEL 5
REMARK VINA RESULT:      -6.5      1.779      4.142
REMARK  Name = 
REMARK  4 active torsions:
REMARK  status: ('A' for Active; 'I' for Inactive)
REMARK    1  A    between atoms: C_1  and  O_2
REMARK    2  A    between atoms: O_2  and  C_3
REMARK    3  A    between atoms: N_16  and  C_17
REMARK    4  A    between atoms: C_22  and  C_23
REMARK                            x       y       z     vdW  Elec       q    Type
REMARK                         _______ _______ _______ _____ _____    ______ ____
ROOT
ATOM      1  C   UNL     1       3.152   3.186  21.040  0.00  0.00    +0.000 A 
ATOM      2  C   UNL     1       4.161   2.324  20.672  0.00  0.00    +0.000 A 
ATOM      3  C   UNL     1       5.035   2.725  19.660  0.00  0.00    +0.000 A 
ATOM      4  C   UNL     1       4.893   3.989  19.015  0.00  0.00    +0.000 A 
ATOM      5  C   UNL     1       3.864   4.905  19.348  0.00  0.00    +0.000 A 
ATOM      6  C   UNL     1       3.539   6.224  18.755  0.00  0.00    +0.000 A 
ATOM      7  C   UNL     1       2.447   6.895  19.364  0.00  0.00    +0.000 A 
ATOM      8  C   UNL     1       1.771   6.339  20.439  0.00  0.00    +0.000 A 
ATOM      9  N   UNL     1       2.037   5.150  20.946  0.00  0.00    +0.000 NA
ATOM     10  C   UNL     1       3.018   4.443  20.419  0.00  0.00    +0.000 A 
ATOM     11  C   UNL     1       1.828   8.181  18.949  0.00  0.00    +0.000 C 
ATOM     12  C   UNL     1       2.602   8.953  17.947  0.00  0.00    +0.000 C 
ATOM     13  C   UNL     1       3.592   8.158  17.153  0.00  0.00    +0.000 C 
ATOM     14  N   UNL     1       4.254   6.930  17.732  0.00  0.00    +0.000 N 
ENDROOT
BRANCH  14  15
ATOM     15  C   UNL     1       5.312   6.607  16.699  0.00  0.00    +0.000 A 
ATOM     16  C   UNL     1       4.835   5.704  15.705  0.00  0.00    +0.000 A 
ATOM     17  C   UNL     1       5.406   4.427  15.562  0.00  0.00    +0.000 A 
ATOM     18  C   UNL     1       6.585   4.116  16.226  0.00  0.00    +0.000 A 
ATOM     19  C   UNL     1       7.254   5.126  16.905  0.00  0.00    +0.000 A 
ATOM     20  C   UNL     1       6.653   6.392  17.108  0.00  0.00    +0.000 A 
ATOM     21  C   UNL     1       7.543   7.517  17.547  0.00  0.00    +0.000 C 
ENDBRANCH  14  15
BRANCH   1  23
ATOM     22  C   UNL     1       0.959   2.258  21.556  0.00  0.00    +0.000 C 
ATOM     23  O   UNL     1       2.158   2.885  21.956  0.00  0.00    +0.000 OA
ENDBRANCH   1  23
TORSDOF 2
ENDMDL
MODEL 6
REMARK VINA RESULT:      -6.5      3.987      6.873
REMARK  Name = 
REMARK  4 active torsions:
REMARK  status: ('A' for Active; 'I' for Inactive)
REMARK    1  A    between atoms: C_1  and  O_2
REMARK    2  A    between atoms: O_2  and  C_3
REMARK    3  A    between atoms: N_16  and  C_17
REMARK    4  A    between atoms: C_22  and  C_23
REMARK                            x       y       z     vdW  Elec       q    Type
REMARK                         _______ _______ _______ _____ _____    ______ ____
ROOT
ATOM      1  C   UNL     1       7.221   4.883  13.543  0.00  0.00    +0.000 A 
ATOM      2  C   UNL     1       6.484   4.119  12.666  0.00  0.00    +0.000 A 
ATOM      3  C   UNL     1       5.323   3.504  13.142  0.00  0.00    +0.000 A 
ATOM      4  C   UNL     1       4.906   3.655  14.497  0.00  0.00    +0.000 A 
ATOM      5  C   UNL     1       5.637   4.419  15.441  0.00  0.00    +0.000 A 
ATOM      6  C   UNL     1       5.383   4.641  16.884  0.00  0.00    +0.000 A 
ATOM      7  C   UNL     1       6.312   5.501  17.525  0.00  0.00    +0.000 A 
ATOM      8  C   UNL     1       7.353   6.086  16.821  0.00  0.00    +0.000 A 
ATOM      9  N   UNL     1       7.601   5.863  15.544  0.00  0.00    +0.000 NA
ATOM     10  C   UNL     1       6.804   5.050  14.878  0.00  0.00    +0.000 A 
ATOM     11  C   UNL     1       6.379   5.848  18.969  0.00  0.00    +0.000 C 
ATOM     12  C   UNL     1       5.195   5.445  19.765  0.00  0.00    +0.000 C 
ATOM     13  C   UNL     1       4.358   4.360  19.161  0.00  0.00    +0.000 C 
ATOM     14  N   UNL     1       4.269   4.182  17.664  0.00  0.00    +0.000 N 
ENDROOT
BRANCH  14  15
ATOM     15  C   UNL     1       3.166   3.157  17.517  0.00  0.00    +0.000 A 
ATOM     16  C   UNL     1       1.902   3.762  17.256  0.00  0.00    +0.000 A 
ATOM     17  C   UNL     1       0.842   3.635  18.172  0.00  0.00    +0.000 A 
ATOM     18  C   UNL     1       0.939   2.733  19.224  0.00  0.00    +0.000 A 
ATOM     19  C   UNL     1       2.026   1.869  19.262  0.00  0.00    +0.000 A 
ATOM     20  C   UNL     1       3.124   2.036  18.384  0.00  0.00    +0.000 A 
ATOM     21  C   UNL     1       4.089   0.895  18.258  0.00  0.00    +0.000 C 
ENDBRANCH  14  15
BRANCH   1  23
ATOM     22  C   UNL     1       8.595   6.280  12.094  0.00  0.00    +0.000 C 
ATOM     23  O   UNL     1       8.438   5.470  13.240  0.00  0.00    +0.000 OA
ENDBRANCH   1  23
TORSDOF 2
ENDMDL
MODEL 7
REMARK VINA RESULT:      -6.5      1.688      4.161
REMARK  Name = 
REMARK  4 active torsions:
REMARK  status: ('A' for Active; 'I' for Inactive)
REMARK    1  A    between atoms: C_1  and  O_2
REMARK    2  A    between atoms: O_2  and  C_3
REMARK    3  A    between atoms: N_16  and  C_17
REMARK    4  A    between atoms: C_22  and  C_23
REMARK                            x       y       z     vdW  Elec       q    Type
REMARK                         _______ _______ _______ _____ _____    ______ ____
ROOT
ATOM      1  C   UNL     1       0.783   9.532  20.016  0.00  0.00    +0.000 A 
ATOM      2  C   UNL     1       0.210   9.060  21.175  0.00  0.00    +0.000 A 
ATOM      3  C   UNL     1       0.543   7.771  21.598  0.00  0.00    +0.000 A 
ATOM      4  C   UNL     1       1.448   6.958  20.855  0.00  0.00    +0.000 A 
ATOM      5  C   UNL     1       2.053   7.392  19.649  0.00  0.00    +0.000 A 
ATOM      6  C   UNL     1       2.966   6.671  18.731  0.00  0.00    +0.000 A 
ATOM      7  C   UNL     1       3.412   7.432  17.620  0.00  0.00    +0.000 A 
ATOM      8  C   UNL     1       3.020   8.750  17.447  0.00  0.00    +0.000 A 
ATOM      9  N   UNL     1       2.180   9.383  18.245  0.00  0.00    +0.000 NA
ATOM     10  C   UNL     1       1.691   8.740  19.288  0.00  0.00    +0.000 A 
ATOM     11  C   UNL     1       4.257   6.971  16.486  0.00  0.00    +0.000 C 
ATOM     12  C   UNL     1       4.896   5.648  16.680  0.00  0.00    +0.000 C 
ATOM     13  C   UNL     1       4.251   4.771  17.707  0.00  0.00    +0.000 C 
ATOM     14  N   UNL     1       3.521   5.358  18.892  0.00  0.00    +0.000 N 
ENDROOT
BRANCH  14  15
ATOM     15  C   UNL     1       3.252   4.143  19.752  0.00  0.00    +0.000 A 
ATOM     16  C   UNL     1       4.420   3.350  19.943  0.00  0.00    +0.000 A 
ATOM     17  C   UNL     1       4.482   2.032  19.454  0.00  0.00    +0.000 A 
ATOM     18  C   UNL     1       3.331   1.411  18.987  0.00  0.00    +0.000 A 
ATOM     19  C   UNL     1       2.113   2.059  19.148  0.00  0.00    +0.000 A 
ATOM     20  C   UNL     1       2.053   3.407  19.577  0.00  0.00    +0.000 A 
ATOM     21  C   UNL     1       0.724   3.927  20.039  0.00  0.00    +0.000 C 
ENDBRANCH  14  15
BRANCH   1  23
ATOM     22  C   UNL     1      -0.859  11.098  19.128  0.00  0.00    +0.000 C 
ATOM     23  O   UNL     1       0.475  10.747  19.427  0.00  0.00    +0.000 OA
ENDBRANCH   1  23
TORSDOF 2
ENDMDL
MODEL 8
REMARK VINA RESULT:      -6.3      8.269     12.399
REMARK  Name = 
REMARK  4 active torsions:
REMARK  status: ('A' for Active; 'I' for Inactive)
REMARK    1  A    between atoms: C_1  and  O_2
REMARK    2  A    between atoms: O_2  and  C_3
REMARK    3  A    between atoms: N_16  and  C_17
REMARK    4  A    between atoms: C_22  and  C_23
REMARK                            x       y       z     vdW  Elec       q    Type
REMARK                         _______ _______ _______ _____ _____    ______ ____
ROOT
ATOM      1  C   UNL     1      -3.524  11.392  17.245  0.00  0.00    +0.000 A 
ATOM      2  C   UNL     1      -4.743  11.557  16.626  0.00  0.00    +0.000 A 
ATOM      3  C   UNL     1      -5.781  12.140  17.357  0.00  0.00    +0.000 A 
ATOM      4  C   UNL     1      -5.595  12.553  18.708  0.00  0.00    +0.000 A 
ATOM      5  C   UNL     1      -4.365  12.393  19.394  0.00  0.00    +0.000 A 
ATOM      6  C   UNL     1      -4.011  12.713  20.797  0.00  0.00    +0.000 A 
ATOM      7  C   UNL     1      -2.660  12.451  21.144  0.00  0.00    +0.000 A 
ATOM      8  C   UNL     1      -1.764  11.950  20.212  0.00  0.00    +0.000 A 
ATOM      9  N   UNL     1      -2.086  11.632  18.972  0.00  0.00    +0.000 NA
ATOM     10  C   UNL     1      -3.330  11.815  18.574  0.00  0.00    +0.000 A 
ATOM     11  C   UNL     1      -2.025  12.584  22.481  0.00  0.00    +0.000 C 
ATOM     12  C   UNL     1      -2.838  13.304  23.490  0.00  0.00    +0.000 C 
ATOM     13  C   UNL     1      -4.307  13.361  23.206  0.00  0.00    +0.000 C 
ATOM     14  N   UNL     1      -4.832  13.345  21.790  0.00  0.00    +0.000 N 
ENDROOT
BRANCH  14  15
ATOM     15  C   UNL     1      -6.302  13.649  21.978  0.00  0.00    +0.000 A 
ATOM     16  C   UNL     1      -6.513  14.901  22.625  0.00  0.00    +0.000 A 
ATOM     17  C   UNL     1      -7.131  14.963  23.887  0.00  0.00    +0.000 A 
ATOM     18  C   UNL     1      -7.748  13.835  24.412  0.00  0.00    +0.000 A 
ATOM     19  C   UNL     1      -7.867  12.706  23.611  0.00  0.00    +0.000 A 
ATOM     20  C   UNL     1      -7.191  12.617  22.370  0.00  0.00    +0.000 A 
ATOM     21  C   UNL     1      -7.620  11.533  21.426  0.00  0.00    +0.000 C 
ENDBRANCH  14  15
BRANCH   1  23
ATOM     22  C   UNL     1      -2.574   9.979  15.502  0.00  0.00    +0.000 C 
ATOM     23  O   UNL     1      -2.438  10.746  16.679  0.00  0.00    +0.000 OA
ENDBRANCH   1  23
TORSDOF 2
ENDMDL
MODEL 9
REMARK VINA RESULT:      -6.3      2.669      7.200
REMARK  Name = 
REMARK  4 active torsions:
REMARK  status: ('A' for Active; 'I' for Inactive)
REMARK    1  A    between atoms: C_1  and  O_2
REMARK    2  A    between atoms: O_2  and  C_3
REMARK    3  A    between atoms: N_16  and  C_17
REMARK    4  A    between atoms: C_22  and  C_23
REMARK                            x       y       z     vdW  Elec       q    Type
REMARK                         _______ _______ _______ _____ _____    ______ ____
ROOT
ATOM      1  C   UNL     1       2.883   6.167  18.909  0.00  0.00    +0.000 A 
ATOM      2  C   UNL     1       3.456   6.507  17.704  0.00  0.00    +0.000 A 
ATOM      3  C   UNL     1       3.270   7.808  17.229  0.00  0.00    +0.000 A 
ATOM      4  C   UNL     1       2.507   8.763  17.963  0.00  0.00    +0.000 A 
ATOM      5  C   UNL     1       1.887   8.458  19.200  0.00  0.00    +0.000 A 
ATOM      6  C   UNL     1       1.026   9.300  20.064  0.00  0.00    +0.000 A 
ATOM      7  C   UNL     1       0.599   8.677  21.265  0.00  0.00    +0.000 A 
ATOM      8  C   UNL     1       0.991   7.385  21.582  0.00  0.00    +0.000 A 
ATOM      9  N   UNL     1       1.729   6.622  20.798  0.00  0.00    +0.000 NA
ATOM     10  C   UNL     1       2.144   7.112  19.646  0.00  0.00    +0.000 A 
ATOM     11  C   UNL     1      -0.331   9.222  22.288  0.00  0.00    +0.000 C 
ATOM     12  C   UNL     1      -0.639  10.665  22.148  0.00  0.00    +0.000 C 
ATOM     13  C   UNL     1      -0.393  11.242  20.788  0.00  0.00    +0.000 C 
ATOM     14  N   UNL     1       0.674  10.679  19.880  0.00  0.00    +0.000 N 
ENDROOT
BRANCH  14  15
ATOM     15  C   UNL     1       0.719  11.690  18.755  0.00  0.00    +0.000 A 
ATOM     16  C   UNL     1       1.966  12.377  18.701  0.00  0.00    +0.000 A 
ATOM     17  C   UNL     1       2.032  13.765  18.917  0.00  0.00    +0.000 A 
ATOM     18  C   UNL     1       0.865  14.517  18.955  0.00  0.00    +0.000 A 
ATOM     19  C   UNL     1      -0.337  13.898  18.634  0.00  0.00    +0.000 A 
ATOM     20  C   UNL     1      -0.417  12.493  18.482  0.00  0.00    +0.000 A 
ATOM     21  C   UNL     1      -1.645  11.938  17.823  0.00  0.00    +0.000 C 
ENDBRANCH  14  15
BRANCH   1  23
ATOM     22  C   UNL     1       4.017   4.044  19.291  0.00  0.00    +0.000 C 
ATOM     23  O   UNL     1       2.902   4.894  19.455  0.00  0.00    +0.000 OA
ENDBRANCH   1  23
TORSDOF 2
ENDMDL
