MODEL 1
REMARK VINA RESULT:      -8.0      0.000      0.000
REMARK  Name = 
REMARK  12 active torsions:
REMARK  status: ('A' for Active; 'I' for Inactive)
REMARK    1  A    between atoms: C_1  and  O_2
REMARK    2  A    between atoms: O_2  and  C_3
REMARK    3  A    between atoms: C_6  and  S_7
REMARK    4  A    between atoms: S_7  and  N_10
REMARK    5  A    between atoms: N_10  and  C_11
REMARK    6  A    between atoms: N_10  and  C_18
REMARK    7  A    between atoms: C_11  and  C_12
REMARK    8  A    between atoms: C_18  and  C_19
REMARK    9  A    between atoms: C_18  and  C_23
REMARK   10  A    between atoms: C_19  and  C_20
REMARK   11  A    between atoms: C_20  and  O_22
REMARK   12  A    between atoms: N_25  and  O_26
REMARK                            x       y       z     vdW  Elec       q    Type
REMARK                         _______ _______ _______ _____ _____    ______ ____
ROOT
ATOM      1  N   UNL     1       4.497   4.737  16.649  0.00  0.00    +0.000 NA
ENDROOT
BRANCH   1   2
ATOM      2  S   UNL     1       4.814   6.417  16.900  0.00  0.00    +0.000 S 
ATOM      3  O   UNL     1       4.899   7.129  15.653  0.00  0.00    +0.000 OA
ATOM      4  O   UNL     1       5.904   6.476  17.857  0.00  0.00    +0.000 OA
BRANCH   2   8
ATOM      5  C   UNL     1       1.611   8.368  19.544  0.00  0.00    +0.000 A 
ATOM      6  C   UNL     1       2.280   7.219  19.952  0.00  0.00    +0.000 A 
ATOM      7  C   UNL     1       3.196   6.608  19.100  0.00  0.00    +0.000 A 
ATOM      8  C   UNL     1       3.446   7.128  17.816  0.00  0.00    +0.000 A 
ATOM      9  C   UNL     1       2.763   8.269  17.399  0.00  0.00    +0.000 A 
ATOM     10  C   UNL     1       1.833   8.878  18.262  0.00  0.00    +0.000 A 
BRANCH   5  12
ATOM     11  C   UNL     1      -0.005  10.014  20.040  0.00  0.00    +0.000 C 
ATOM     12  O   UNL     1       0.753   8.890  20.471  0.00  0.00    +0.000 OA
ENDBRANCH   5  12
ENDBRANCH   2   8
ENDBRANCH   1   2
BRANCH   1  13
ATOM     13  C   UNL     1       5.706   3.933  16.185  0.00  0.00    +0.000 C 
BRANCH  13  14
ATOM     14  C   UNL     1       6.172   4.064  14.747  0.00  0.00    +0.000 A 
ATOM     15  C   UNL     1       5.524   3.420  13.681  0.00  0.00    +0.000 A 
ATOM     16  C   UNL     1       5.976   3.569  12.366  0.00  0.00    +0.000 A 
ATOM     17  C   UNL     1       7.078   4.375  12.092  0.00  0.00    +0.000 A 
ATOM     18  C   UNL     1       7.717   5.042  13.129  0.00  0.00    +0.000 A 
ATOM     19  C   UNL     1       7.259   4.898  14.441  0.00  0.00    +0.000 A 
ENDBRANCH  13  14
ENDBRANCH   1  13
BRANCH   1  20
ATOM     20  C   UNL     1       3.717   4.023  17.774  0.00  0.00    +0.000 C 
BRANCH  20  21
ATOM     21  C   UNL     1       4.614   3.308  18.793  0.00  0.00    +0.000 C 
ATOM     22  O   UNL     1       5.466   3.906  19.452  0.00  0.00    +0.000 OA
ATOM     23  N   UNL     1       4.388   1.967  18.971  0.00  0.00    +0.000 N 
ATOM     24  H   UNL     1       3.666   1.427  18.503  0.00  0.00    +0.000 HD
BRANCH  23  25
ATOM     25  O   UNL     1       5.216   1.293  19.890  0.00  0.00    +0.000 OA
ATOM     26  H   UNL     1       5.624   0.591  19.338  0.00  0.00    +0.000 HD
ENDBRANCH  23  25
ENDBRANCH  20  21
BRANCH  20  27
ATOM     27  C   UNL     1       2.671   2.970  17.374  0.00  0.00    +0.000 C 
BRANCH  27  28
ATOM     28  C   UNL     1       1.537   2.852  18.352  0.00  0.00    +0.000 C 
ATOM     29  O   UNL     1       0.989   3.808  18.868  0.00  0.00    +0.000 OA
BRANCH  28  30
ATOM     30  O   UNL     1       1.202   1.577  18.649  0.00  0.00    +0.000 OA
ATOM     31  H   UNL     1       0.268   1.494  18.941  0.00  0.00    +0.000 HD
ENDBRANCH  28  30
ENDBRANCH  27  28
ENDBRANCH  20  27
ENDBRANCH   1  20
TORSDOF 11
ENDMDL
MODEL 2
REMARK VINA RESULT:      -7.9      3.017      5.577
REMARK  Name = 
REMARK  12 active torsions:
REMARK  status: ('A' for Active; 'I' for Inactive)
REMARK    1  A    between atoms: C_1  and  O_2
REMARK    2  A    between atoms: O_2  and  C_3
REMARK    3  A    between atoms: C_6  and  S_7
REMARK    4  A    between atoms: S_7  and  N_10
REMARK    5  A    between atoms: N_10  and  C_11
REMARK    6  A    between atoms: N_10  and  C_18
REMARK    7  A    between atoms: C_11  and  C_12
REMARK    8  A    between atoms: C_18  and  C_19
REMARK    9  A    between atoms: C_18  and  C_23
REMARK   10  A    between atoms: C_19  and  C_20
REMARK   11  A    between atoms: C_20  and  O_22
REMARK   12  A    between atoms: N_25  and  O_26
REMARK                            x       y       z     vdW  Elec       q    Type
REMARK                         _______ _______ _______ _____ _____    ______ ____
ROOT
ATOM      1  N   UNL     1       4.170   5.157  18.729  0.00  0.00    +0.000 NA
ENDROOT
BRANCH   1   2
ATOM      2  S   UNL     1       5.612   4.788  17.850  0.00  0.00    +0.000 S 
ATOM      3  O   UNL     1       5.325   4.490  16.473  0.00  0.00    +0.000 OA
ATOM      4  O   UNL     1       6.346   3.841  18.670  0.00  0.00    +0.000 OA
BRANCH   2   8
ATOM      5  C   UNL     1       8.005   8.696  18.082  0.00  0.00    +0.000 A 
ATOM      6  C   UNL     1       6.910   8.571  17.235  0.00  0.00    +0.000 A 
ATOM      7  C   UNL     1       6.245   7.352  17.132  0.00  0.00    +0.000 A 
ATOM      8  C   UNL     1       6.677   6.231  17.863  0.00  0.00    +0.000 A 
ATOM      9  C   UNL     1       7.786   6.348  18.699  0.00  0.00    +0.000 A 
ATOM     10  C   UNL     1       8.458   7.581  18.793  0.00  0.00    +0.000 A 
BRANCH   5  12
ATOM     11  C   UNL     1       9.291  10.256  19.298  0.00  0.00    +0.000 C 
ATOM     12  O   UNL     1       8.563   9.943  18.116  0.00  0.00    +0.000 OA
ENDBRANCH   5  12
ENDBRANCH   2   8
ENDBRANCH   1   2
BRANCH   1  13
ATOM     13  C   UNL     1       3.105   5.879  17.912  0.00  0.00    +0.000 C 
BRANCH  13  14
ATOM     14  C   UNL     1       2.553   7.198  18.421  0.00  0.00    +0.000 A 
ATOM     15  C   UNL     1       2.432   8.332  17.603  0.00  0.00    +0.000 A 
ATOM     16  C   UNL     1       1.912   9.530  18.103  0.00  0.00    +0.000 A 
ATOM     17  C   UNL     1       1.490   9.611  19.427  0.00  0.00    +0.000 A 
ATOM     18  C   UNL     1       1.576   8.492  20.246  0.00  0.00    +0.000 A 
ATOM     19  C   UNL     1       2.089   7.294  19.742  0.00  0.00    +0.000 A 
ENDBRANCH  13  14
ENDBRANCH   1  13
BRANCH   1  20
ATOM     20  C   UNL     1       3.581   4.004  19.570  0.00  0.00    +0.000 C 
BRANCH  20  21
ATOM     21  C   UNL     1       3.591   2.646  18.855  0.00  0.00    +0.000 C 
ATOM     22  O   UNL     1       2.893   2.420  17.864  0.00  0.00    +0.000 OA
ATOM     23  N   UNL     1       4.454   1.703  19.348  0.00  0.00    +0.000 N 
ATOM     24  H   UNL     1       5.095   1.842  20.123  0.00  0.00    +0.000 HD
BRANCH  23  25
ATOM     25  O   UNL     1       4.461   0.444  18.713  0.00  0.00    +0.000 OA
ATOM     26  H   UNL     1       4.349   0.680  17.767  0.00  0.00    +0.000 HD
ENDBRANCH  23  25
ENDBRANCH  20  21
BRANCH  20  27
ATOM     27  C   UNL     1       2.144   4.153  20.095  0.00  0.00    +0.000 C 
BRANCH  27  28
ATOM     28  C   UNL     1       1.838   3.261  21.265  0.00  0.00    +0.000 C 
ATOM     29  O   UNL     1       2.641   2.999  22.141  0.00  0.00    +0.000 OA
BRANCH  28  30
ATOM     30  O   UNL     1       0.596   2.729  21.237  0.00  0.00    +0.000 OA
ATOM     31  H   UNL     1       0.550   1.863  21.696  0.00  0.00    +0.000 HD
ENDBRANCH  28  30
ENDBRANCH  27  28
ENDBRANCH  20  27
ENDBRANCH   1  20
TORSDOF 11
ENDMDL
MODEL 3
REMARK VINA RESULT:      -7.9      1.867      6.285
REMARK  Name = 
REMARK  12 active torsions:
REMARK  status: ('A' for Active; 'I' for Inactive)
REMARK    1  A    between atoms: C_1  and  O_2
REMARK    2  A    between atoms: O_2  and  C_3
REMARK    3  A    between atoms: C_6  and  S_7
REMARK    4  A    between atoms: S_7  and  N_10
REMARK    5  A    between atoms: N_10  and  C_11
REMARK    6  A    between atoms: N_10  and  C_18
REMARK    7  A    between atoms: C_11  and  C_12
REMARK    8  A    between atoms: C_18  and  C_19
REMARK    9  A    between atoms: C_18  and  C_23
REMARK   10  A    between atoms: C_19  and  C_20
REMARK   11  A    between atoms: C_20  and  O_22
REMARK   12  A    between atoms: N_25  and  O_26
REMARK                            x       y       z     vdW  Elec       q    Type
REMARK                         _______ _______ _______ _____ _____    ______ ____
ROOT
ATOM      1  N   UNL     1       4.139   5.462  19.124  0.00  0.00    +0.000 NA
ENDROOT
BRANCH   1   2
ATOM      2  S   UNL     1       5.780   5.157  18.676  0.00  0.00    +0.000 S 
ATOM      3  O   UNL     1       6.286   3.969  19.309  0.00  0.00    +0.000 OA
ATOM      4  O   UNL     1       6.475   6.423  18.828  0.00  0.00    +0.000 OA
BRANCH   2   8
ATOM      5  C   UNL     1       6.360   4.273  14.211  0.00  0.00    +0.000 A 
ATOM      6  C   UNL     1       7.094   5.267  14.850  0.00  0.00    +0.000 A 
ATOM      7  C   UNL     1       6.847   5.562  16.189  0.00  0.00    +0.000 A 
ATOM      8  C   UNL     1       5.849   4.878  16.906  0.00  0.00    +0.000 A 
ATOM      9  C   UNL     1       5.101   3.894  16.263  0.00  0.00    +0.000 A 
ATOM     10  C   UNL     1       5.349   3.606  14.908  0.00  0.00    +0.000 A 
BRANCH   5  12
ATOM     11  C   UNL     1       5.826   3.212  12.173  0.00  0.00    +0.000 C 
ATOM     12  O   UNL     1       6.704   4.058  12.906  0.00  0.00    +0.000 OA
ENDBRANCH   5  12
ENDBRANCH   2   8
ENDBRANCH   1   2
BRANCH   1  13
ATOM     13  C   UNL     1       3.337   6.233  18.081  0.00  0.00    +0.000 C 
BRANCH  13  14
ATOM     14  C   UNL     1       2.556   7.460  18.510  0.00  0.00    +0.000 A 
ATOM     15  C   UNL     1       2.264   8.515  17.631  0.00  0.00    +0.000 A 
ATOM     16  C   UNL     1       1.535   9.629  18.057  0.00  0.00    +0.000 A 
ATOM     17  C   UNL     1       1.073   9.703  19.368  0.00  0.00    +0.000 A 
ATOM     18  C   UNL     1       1.328   8.658  20.247  0.00  0.00    +0.000 A 
ATOM     19  C   UNL     1       2.050   7.542  19.816  0.00  0.00    +0.000 A 
ENDBRANCH  13  14
ENDBRANCH   1  13
BRANCH   1  20
ATOM     20  C   UNL     1       3.359   4.254  19.686  0.00  0.00    +0.000 C 
BRANCH  20  21
ATOM     21  C   UNL     1       2.441   3.576  18.660  0.00  0.00    +0.000 C 
ATOM     22  O   UNL     1       1.381   4.085  18.289  0.00  0.00    +0.000 OA
ATOM     23  N   UNL     1       2.882   2.388  18.137  0.00  0.00    +0.000 N 
ATOM     24  H   UNL     1       3.768   1.944  18.357  0.00  0.00    +0.000 HD
BRANCH  23  25
ATOM     25  O   UNL     1       2.040   1.744  17.207  0.00  0.00    +0.000 OA
ATOM     26  H   UNL     1       1.804   0.912  17.671  0.00  0.00    +0.000 HD
ENDBRANCH  23  25
ENDBRANCH  20  21
BRANCH  20  27
ATOM     27  C   UNL     1       2.464   4.480  20.915  0.00  0.00    +0.000 C 
BRANCH  27  28
ATOM     28  C   UNL     1       1.957   3.204  21.528  0.00  0.00    +0.000 C 
ATOM     29  O   UNL     1       2.637   2.475  22.225  0.00  0.00    +0.000 OA
BRANCH  28  30
ATOM     30  O   UNL     1       0.680   2.909  21.199  0.00  0.00    +0.000 OA
ATOM     31  H   UNL     1       0.398   3.346  20.366  0.00  0.00    +0.000 HD
ENDBRANCH  28  30
ENDBRANCH  27  28
ENDBRANCH  20  27
ENDBRANCH   1  20
TORSDOF 11
ENDMDL
MODEL 4
REMARK VINA RESULT:      -7.9      0.820      1.398
REMARK  Name = 
REMARK  12 active torsions:
REMARK  status: ('A' for Active; 'I' for Inactive)
REMARK    1  A    between atoms: C_1  and  O_2
REMARK    2  A    between atoms: O_2  and  C_3
REMARK    3  A    between atoms: C_6  and  S_7
REMARK    4  A    between atoms: S_7  and  N_10
REMARK    5  A    between atoms: N_10  and  C_11
REMARK    6  A    between atoms: N_10  and  C_18
REMARK    7  A    between atoms: C_11  and  C_12
REMARK    8  A    between atoms: C_18  and  C_19
REMARK    9  A    between atoms: C_18  and  C_23
REMARK   10  A    between atoms: C_19  and  C_20
REMARK   11  A    between atoms: C_20  and  O_22
REMARK   12  A    between atoms: N_25  and  O_26
REMARK                            x       y       z     vdW  Elec       q    Type
REMARK                         _______ _______ _______ _____ _____    ______ ____
ROOT
ATOM      1  N   UNL     1       4.232   4.698  16.791  0.00  0.00    +0.000 NA
ENDROOT
BRANCH   1   2
ATOM      2  S   UNL     1       4.699   6.317  17.178  0.00  0.00    +0.000 S 
ATOM      3  O   UNL     1       4.981   7.080  15.992  0.00  0.00    +0.000 OA
ATOM      4  O   UNL     1       5.690   6.202  18.232  0.00  0.00    +0.000 OA
BRANCH   2   8
ATOM      5  C   UNL     1       1.490   8.530  19.598  0.00  0.00    +0.000 A 
ATOM      6  C   UNL     1       2.120   7.398  20.103  0.00  0.00    +0.000 A 
ATOM      7  C   UNL     1       3.038   6.704  19.319  0.00  0.00    +0.000 A 
ATOM      8  C   UNL     1       3.330   7.125  18.008  0.00  0.00    +0.000 A 
ATOM      9  C   UNL     1       2.687   8.249  17.494  0.00  0.00    +0.000 A 
ATOM     10  C   UNL     1       1.754   8.941  18.289  0.00  0.00    +0.000 A 
BRANCH   5  12
ATOM     11  C   UNL     1       0.893   8.927  21.846  0.00  0.00    +0.000 C 
ATOM     12  O   UNL     1       0.626   9.138  20.465  0.00  0.00    +0.000 OA
ENDBRANCH   5  12
ENDBRANCH   2   8
ENDBRANCH   1   2
BRANCH   1  13
ATOM     13  C   UNL     1       5.379   3.810  16.320  0.00  0.00    +0.000 C 
BRANCH  13  14
ATOM     14  C   UNL     1       5.968   4.034  14.940  0.00  0.00    +0.000 A 
ATOM     15  C   UNL     1       7.123   4.802  14.728  0.00  0.00    +0.000 A 
ATOM     16  C   UNL     1       7.643   4.983  13.442  0.00  0.00    +0.000 A 
ATOM     17  C   UNL     1       7.024   4.387  12.347  0.00  0.00    +0.000 A 
ATOM     18  C   UNL     1       5.895   3.601  12.539  0.00  0.00    +0.000 A 
ATOM     19  C   UNL     1       5.382   3.416  13.825  0.00  0.00    +0.000 A 
ENDBRANCH  13  14
ENDBRANCH   1  13
BRANCH   1  20
ATOM     20  C   UNL     1       3.332   3.990  17.827  0.00  0.00    +0.000 C 
BRANCH  20  21
ATOM     21  C   UNL     1       3.920   2.680  18.368  0.00  0.00    +0.000 C 
ATOM     22  O   UNL     1       3.712   1.593  17.826  0.00  0.00    +0.000 OA
ATOM     23  N   UNL     1       4.734   2.784  19.466  0.00  0.00    +0.000 N 
ATOM     24  H   UNL     1       4.991   3.651  19.926  0.00  0.00    +0.000 HD
BRANCH  23  25
ATOM     25  O   UNL     1       5.266   1.586  19.986  0.00  0.00    +0.000 OA
ATOM     26  H   UNL     1       5.660   1.164  19.192  0.00  0.00    +0.000 HD
ENDBRANCH  23  25
ENDBRANCH  20  21
BRANCH  20  27
ATOM     27  C   UNL     1       1.898   3.627  17.411  0.00  0.00    +0.000 C 
BRANCH  27  28
ATOM     28  C   UNL     1       1.040   3.173  18.558  0.00  0.00    +0.000 C 
ATOM     29  O   UNL     1       0.354   2.168  18.530  0.00  0.00    +0.000 OA
BRANCH  28  30
ATOM     30  O   UNL     1       1.058   4.010  19.619  0.00  0.00    +0.000 OA
ATOM     31  H   UNL     1       0.178   4.092  20.046  0.00  0.00    +0.000 HD
ENDBRANCH  28  30
ENDBRANCH  27  28
ENDBRANCH  20  27
ENDBRANCH   1  20
TORSDOF 11
ENDMDL
MODEL 5
REMARK VINA RESULT:      -7.9      0.526      1.049
REMARK  Name = 
REMARK  12 active torsions:
REMARK  status: ('A' for Active; 'I' for Inactive)
REMARK    1  A    between atoms: C_1  and  O_2
REMARK    2  A    between atoms: O_2  and  C_3
REMARK    3  A    between atoms: C_6  and  S_7
REMARK    4  A    between atoms: S_7  and  N_10
REMARK    5  A    between atoms: N_10  and  C_11
REMARK    6  A    between atoms: N_10  and  C_18
REMARK    7  A    between atoms: C_11  and  C_12
REMARK    8  A    between atoms: C_18  and  C_19
REMARK    9  A    between atoms: C_18  and  C_23
REMARK   10  A    between atoms: C_19  and  C_20
REMARK   11  A    between atoms: C_20  and  O_22
REMARK   12  A    between atoms: N_25  and  O_26
REMARK                            x       y       z     vdW  Elec       q    Type
REMARK                         _______ _______ _______ _____ _____    ______ ____
ROOT
ATOM      1  N   UNL     1       4.599   4.722  16.649  0.00  0.00    +0.000 NA
ENDROOT
BRANCH   1   2
ATOM      2  S   UNL     1       4.860   6.407  16.933  0.00  0.00    +0.000 S 
ATOM      3  O   UNL     1       4.907   7.147  15.701  0.00  0.00    +0.000 OA
ATOM      4  O   UNL     1       5.958   6.485  17.880  0.00  0.00    +0.000 OA
BRANCH   2   8
ATOM      5  C   UNL     1       1.616   8.156  19.667  0.00  0.00    +0.000 A 
ATOM      6  C   UNL     1       2.267   6.970  19.989  0.00  0.00    +0.000 A 
ATOM      7  C   UNL     1       3.197   6.425  19.107  0.00  0.00    +0.000 A 
ATOM      8  C   UNL     1       3.478   7.051  17.878  0.00  0.00    +0.000 A 
ATOM      9  C   UNL     1       2.814   8.230  17.546  0.00  0.00    +0.000 A 
ATOM     10  C   UNL     1       1.870   8.771  18.438  0.00  0.00    +0.000 A 
BRANCH   5  12
ATOM     11  C   UNL     1       1.325   8.970  21.862  0.00  0.00    +0.000 C 
ATOM     12  O   UNL     1       0.742   8.605  20.617  0.00  0.00    +0.000 OA
ENDBRANCH   5  12
ENDBRANCH   2   8
ENDBRANCH   1   2
BRANCH   1  13
ATOM     13  C   UNL     1       5.836   3.967  16.176  0.00  0.00    +0.000 C 
BRANCH  13  14
ATOM     14  C   UNL     1       6.291   4.125  14.737  0.00  0.00    +0.000 A 
ATOM     15  C   UNL     1       7.361   4.956  14.370  0.00  0.00    +0.000 A 
ATOM     16  C   UNL     1       7.759   5.072  13.035  0.00  0.00    +0.000 A 
ATOM     17  C   UNL     1       7.102   4.350  12.043  0.00  0.00    +0.000 A 
ATOM     18  C   UNL     1       6.057   3.501  12.389  0.00  0.00    +0.000 A 
ATOM     19  C   UNL     1       5.667   3.380  13.724  0.00  0.00    +0.000 A 
ENDBRANCH  13  14
ENDBRANCH   1  13
BRANCH   1  20
ATOM     20  C   UNL     1       3.839   3.963  17.758  0.00  0.00    +0.000 C 
BRANCH  20  21
ATOM     21  C   UNL     1       4.754   3.322  18.811  0.00  0.00    +0.000 C 
ATOM     22  O   UNL     1       5.652   3.953  19.371  0.00  0.00    +0.000 OA
ATOM     23  N   UNL     1       4.491   2.016  19.134  0.00  0.00    +0.000 N 
ATOM     24  H   UNL     1       3.734   1.458  18.753  0.00  0.00    +0.000 HD
BRANCH  23  25
ATOM     25  O   UNL     1       5.336   1.409  20.087  0.00  0.00    +0.000 OA
ATOM     26  H   UNL     1       6.203   1.832  19.906  0.00  0.00    +0.000 HD
ENDBRANCH  23  25
ENDBRANCH  20  21
BRANCH  20  27
ATOM     27  C   UNL     1       2.885   2.834  17.338  0.00  0.00    +0.000 C 
BRANCH  27  28
ATOM     28  C   UNL     1       1.586   2.835  18.094  0.00  0.00    +0.000 C 
ATOM     29  O   UNL     1       0.793   3.758  18.070  0.00  0.00    +0.000 OA
BRANCH  28  30
ATOM     30  O   UNL     1       1.392   1.731  18.849  0.00  0.00    +0.000 OA
ATOM     31  H   UNL     1       0.454   1.622  19.117  0.00  0.00    +0.000 HD
ENDBRANCH  28  30
ENDBRANCH  27  28
ENDBRANCH  20  27
ENDBRANCH   1  20
TORSDOF 11
ENDMDL
MODEL 6
REMARK VINA RESULT:      -7.8      1.942      6.051
REMARK  Name = 
REMARK  12 active torsions:
REMARK  status: ('A' for Active; 'I' for Inactive)
REMARK    1  A    between atoms: C_1  and  O_2
REMARK    2  A    between atoms: O_2  and  C_3
REMARK    3  A    between atoms: C_6  and  S_7
REMARK    4  A    between atoms: S_7  and  N_10
REMARK    5  A    between atoms: N_10  and  C_11
REMARK    6  A    between atoms: N_10  and  C_18
REMARK    7  A    between atoms: C_11  and  C_12
REMARK    8  A    between atoms: C_18  and  C_19
REMARK    9  A    between atoms: C_18  and  C_23
REMARK   10  A    between atoms: C_19  and  C_20
REMARK   11  A    between atoms: C_20  and  O_22
REMARK   12  A    between atoms: N_25  and  O_26
REMARK                            x       y       z     vdW  Elec       q    Type
REMARK                         _______ _______ _______ _____ _____    ______ ____
ROOT
ATOM      1  N   UNL     1       4.180   5.555  19.161  0.00  0.00    +0.000 NA
ENDROOT
BRANCH   1   2
ATOM      2  S   UNL     1       5.818   5.365  18.644  0.00  0.00    +0.000 S 
ATOM      3  O   UNL     1       6.440   4.232  19.275  0.00  0.00    +0.000 OA
ATOM      4  O   UNL     1       6.420   6.683  18.740  0.00  0.00    +0.000 OA
BRANCH   2   8
ATOM      5  C   UNL     1       5.483   4.321  14.188  0.00  0.00    +0.000 A 
ATOM      6  C   UNL     1       5.830   3.358  15.130  0.00  0.00    +0.000 A 
ATOM      7  C   UNL     1       5.993   3.718  16.465  0.00  0.00    +0.000 A 
ATOM      8  C   UNL     1       5.829   5.053  16.878  0.00  0.00    +0.000 A 
ATOM      9  C   UNL     1       5.500   6.023  15.933  0.00  0.00    +0.000 A 
ATOM     10  C   UNL     1       5.343   5.654  14.584  0.00  0.00    +0.000 A 
BRANCH   5  12
ATOM     11  C   UNL     1       6.537   3.552  12.223  0.00  0.00    +0.000 C 
ATOM     12  O   UNL     1       5.330   3.848  12.916  0.00  0.00    +0.000 OA
ENDBRANCH   5  12
ENDBRANCH   2   8
ENDBRANCH   1   2
BRANCH   1  13
ATOM     13  C   UNL     1       3.271   6.223  18.134  0.00  0.00    +0.000 C 
BRANCH  13  14
ATOM     14  C   UNL     1       2.505   7.471  18.528  0.00  0.00    +0.000 A 
ATOM     15  C   UNL     1       2.241   8.512  17.623  0.00  0.00    +0.000 A 
ATOM     16  C   UNL     1       1.525   9.646  18.018  0.00  0.00    +0.000 A 
ATOM     17  C   UNL     1       1.049   9.755  19.321  0.00  0.00    +0.000 A 
ATOM     18  C   UNL     1       1.277   8.725  20.225  0.00  0.00    +0.000 A 
ATOM     19  C   UNL     1       1.985   7.588  19.826  0.00  0.00    +0.000 A 
ENDBRANCH  13  14
ENDBRANCH   1  13
BRANCH   1  20
ATOM     20  C   UNL     1       3.526   4.311  19.799  0.00  0.00    +0.000 C 
BRANCH  20  21
ATOM     21  C   UNL     1       3.455   3.097  18.861  0.00  0.00    +0.000 C 
ATOM     22  O   UNL     1       2.720   3.074  17.872  0.00  0.00    +0.000 OA
ATOM     23  N   UNL     1       4.290   2.051  19.153  0.00  0.00    +0.000 N 
ATOM     24  H   UNL     1       4.958   2.029  19.917  0.00  0.00    +0.000 HD
BRANCH  23  25
ATOM     25  O   UNL     1       4.223   0.922  18.312  0.00  0.00    +0.000 OA
ATOM     26  H   UNL     1       5.166   0.666  18.218  0.00  0.00    +0.000 HD
ENDBRANCH  23  25
ENDBRANCH  20  21
BRANCH  20  27
ATOM     27  C   UNL     1       2.102   4.449  20.359  0.00  0.00    +0.000 C 
BRANCH  27  28
ATOM     28  C   UNL     1       1.704   3.319  21.268  0.00  0.00    +0.000 C 
ATOM     29  O   UNL     1       2.378   2.942  22.208  0.00  0.00    +0.000 OA
BRANCH  28  30
ATOM     30  O   UNL     1       0.543   2.722  20.921  0.00  0.00    +0.000 OA
ATOM     31  H   UNL     1      -0.213   3.029  21.465  0.00  0.00    +0.000 HD
ENDBRANCH  28  30
ENDBRANCH  27  28
ENDBRANCH  20  27
ENDBRANCH   1  20
TORSDOF 11
ENDMDL
MODEL 7
REMARK VINA RESULT:      -7.7      1.802      6.255
REMARK  Name = 
REMARK  12 active torsions:
REMARK  status: ('A' for Active; 'I' for Inactive)
REMARK    1  A    between atoms: C_1  and  O_2
REMARK    2  A    between atoms: O_2  and  C_3
REMARK    3  A    between atoms: C_6  and  S_7
REMARK    4  A    between atoms: S_7  and  N_10
REMARK    5  A    between atoms: N_10  and  C_11
REMARK    6  A    between atoms: N_10  and  C_18
REMARK    7  A    between atoms: C_11  and  C_12
REMARK    8  A    between atoms: C_18  and  C_19
REMARK    9  A    between atoms: C_18  and  C_23
REMARK   10  A    between atoms: C_19  and  C_20
REMARK   11  A    between atoms: C_20  and  O_22
REMARK   12  A    between atoms: N_25  and  O_26
REMARK                            x       y       z     vdW  Elec       q    Type
REMARK                         _______ _______ _______ _____ _____    ______ ____
ROOT
ATOM      1  N   UNL     1       3.596   5.483  19.078  0.00  0.00    +0.000 NA
ENDROOT
BRANCH   1   2
ATOM      2  S   UNL     1       5.141   4.727  18.904  0.00  0.00    +0.000 S 
ATOM      3  O   UNL     1       5.076   3.323  19.208  0.00  0.00    +0.000 OA
ATOM      4  O   UNL     1       6.084   5.587  19.597  0.00  0.00    +0.000 OA
BRANCH   2   8
ATOM      5  C   UNL     1       6.867   4.952  14.659  0.00  0.00    +0.000 A 
ATOM      6  C   UNL     1       7.273   5.839  15.650  0.00  0.00    +0.000 A 
ATOM      7  C   UNL     1       6.682   5.794  16.909  0.00  0.00    +0.000 A 
ATOM      8  C   UNL     1       5.660   4.869  17.193  0.00  0.00    +0.000 A 
ATOM      9  C   UNL     1       5.239   3.991  16.196  0.00  0.00    +0.000 A 
ATOM     10  C   UNL     1       5.835   4.047  14.923  0.00  0.00    +0.000 A 
BRANCH   5  12
ATOM     11  C   UNL     1       7.053   4.258  12.412  0.00  0.00    +0.000 C 
ATOM     12  O   UNL     1       7.532   5.077  13.472  0.00  0.00    +0.000 OA
ENDBRANCH   5  12
ENDBRANCH   2   8
ENDBRANCH   1   2
BRANCH   1  13
ATOM     13  C   UNL     1       3.401   6.719  18.207  0.00  0.00    +0.000 C 
BRANCH  13  14
ATOM     14  C   UNL     1       2.430   7.794  18.658  0.00  0.00    +0.000 A 
ATOM     15  C   UNL     1       1.914   8.761  17.781  0.00  0.00    +0.000 A 
ATOM     16  C   UNL     1       1.013   9.733  18.229  0.00  0.00    +0.000 A 
ATOM     17  C   UNL     1       0.603   9.747  19.559  0.00  0.00    +0.000 A 
ATOM     18  C   UNL     1       1.081   8.782  20.437  0.00  0.00    +0.000 A 
ATOM     19  C   UNL     1       1.974   7.807  19.985  0.00  0.00    +0.000 A 
ENDBRANCH  13  14
ENDBRANCH   1  13
BRANCH   1  20
ATOM     20  C   UNL     1       2.376   4.539  19.033  0.00  0.00    +0.000 C 
BRANCH  20  21
ATOM     21  C   UNL     1       1.948   4.011  20.410  0.00  0.00    +0.000 C 
ATOM     22  O   UNL     1       0.864   4.303  20.917  0.00  0.00    +0.000 OA
ATOM     23  N   UNL     1       2.819   3.155  21.032  0.00  0.00    +0.000 N 
ATOM     24  H   UNL     1       3.700   2.830  20.646  0.00  0.00    +0.000 HD
BRANCH  23  25
ATOM     25  O   UNL     1       2.448   2.677  22.306  0.00  0.00    +0.000 OA
ATOM     26  H   UNL     1       3.286   2.294  22.644  0.00  0.00    +0.000 HD
ENDBRANCH  23  25
ENDBRANCH  20  21
BRANCH  20  27
ATOM     27  C   UNL     1       2.463   3.285  18.149  0.00  0.00    +0.000 C 
BRANCH  27  28
ATOM     28  C   UNL     1       1.426   2.247  18.478  0.00  0.00    +0.000 C 
ATOM     29  O   UNL     1       0.233   2.409  18.304  0.00  0.00    +0.000 OA
BRANCH  28  30
ATOM     30  O   UNL     1       1.934   1.124  19.031  0.00  0.00    +0.000 OA
ATOM     31  H   UNL     1       2.188   1.252  19.971  0.00  0.00    +0.000 HD
ENDBRANCH  28  30
ENDBRANCH  27  28
ENDBRANCH  20  27
ENDBRANCH   1  20
TORSDOF 11
ENDMDL
MODEL 8
REMARK VINA RESULT:      -7.6      0.562      1.402
REMARK  Name = 
REMARK  12 active torsions:
REMARK  status: ('A' for Active; 'I' for Inactive)
REMARK    1  A    between atoms: C_1  and  O_2
REMARK    2  A    between atoms: O_2  and  C_3
REMARK    3  A    between atoms: C_6  and  S_7
REMARK    4  A    between atoms: S_7  and  N_10
REMARK    5  A    between atoms: N_10  and  C_11
REMARK    6  A    between atoms: N_10  and  C_18
REMARK    7  A    between atoms: C_11  and  C_12
REMARK    8  A    between atoms: C_18  and  C_19
REMARK    9  A    between atoms: C_18  and  C_23
REMARK   10  A    between atoms: C_19  and  C_20
REMARK   11  A    between atoms: C_20  and  O_22
REMARK   12  A    between atoms: N_25  and  O_26
REMARK                            x       y       z     vdW  Elec       q    Type
REMARK                         _______ _______ _______ _____ _____    ______ ____
ROOT
ATOM      1  N   UNL     1       4.318   4.740  16.682  0.00  0.00    +0.000 NA
ENDROOT
BRANCH   1   2
ATOM      2  S   UNL     1       4.877   6.350  16.969  0.00  0.00    +0.000 S 
ATOM      3  O   UNL     1       4.955   7.106  15.748  0.00  0.00    +0.000 OA
ATOM      4  O   UNL     1       6.040   6.219  17.829  0.00  0.00    +0.000 OA
BRANCH   2   8
ATOM      5  C   UNL     1       1.547   8.389  19.379  0.00  0.00    +0.000 A 
ATOM      6  C   UNL     1       1.994   8.921  18.174  0.00  0.00    +0.000 A 
ATOM      7  C   UNL     1       3.054   8.321  17.499  0.00  0.00    +0.000 A 
ATOM      8  C   UNL     1       3.696   7.187  18.029  0.00  0.00    +0.000 A 
ATOM      9  C   UNL     1       3.261   6.663  19.244  0.00  0.00    +0.000 A 
ATOM     10  C   UNL     1       2.194   7.278  19.925  0.00  0.00    +0.000 A 
BRANCH   5  12
ATOM     11  C   UNL     1       0.001  10.163  19.199  0.00  0.00    +0.000 C 
ATOM     12  O   UNL     1       0.489   9.049  19.938  0.00  0.00    +0.000 OA
ENDBRANCH   5  12
ENDBRANCH   2   8
ENDBRANCH   1   2
BRANCH   1  13
ATOM     13  C   UNL     1       5.390   3.786  16.167  0.00  0.00    +0.000 C 
BRANCH  13  14
ATOM     14  C   UNL     1       5.987   4.019  14.792  0.00  0.00    +0.000 A 
ATOM     15  C   UNL     1       7.137   4.798  14.590  0.00  0.00    +0.000 A 
ATOM     16  C   UNL     1       7.665   4.986  13.309  0.00  0.00    +0.000 A 
ATOM     17  C   UNL     1       7.059   4.389  12.207  0.00  0.00    +0.000 A 
ATOM     18  C   UNL     1       5.934   3.593  12.389  0.00  0.00    +0.000 A 
ATOM     19  C   UNL     1       5.414   3.399  13.671  0.00  0.00    +0.000 A 
ENDBRANCH  13  14
ENDBRANCH   1  13
BRANCH   1  20
ATOM     20  C   UNL     1       3.468   4.112  17.807  0.00  0.00    +0.000 C 
BRANCH  20  21
ATOM     21  C   UNL     1       4.150   2.935  18.517  0.00  0.00    +0.000 C 
ATOM     22  O   UNL     1       4.910   3.096  19.474  0.00  0.00    +0.000 OA
ATOM     23  N   UNL     1       3.835   1.681  18.060  0.00  0.00    +0.000 N 
ATOM     24  H   UNL     1       3.176   1.476  17.316  0.00  0.00    +0.000 HD
BRANCH  23  25
ATOM     25  O   UNL     1       4.469   0.591  18.691  0.00  0.00    +0.000 OA
ATOM     26  H   UNL     1       5.187   1.025  19.201  0.00  0.00    +0.000 HD
ENDBRANCH  23  25
ENDBRANCH  20  21
BRANCH  20  27
ATOM     27  C   UNL     1       2.068   3.588  17.450  0.00  0.00    +0.000 C 
BRANCH  27  28
ATOM     28  C   UNL     1       1.248   3.206  18.650  0.00  0.00    +0.000 C 
ATOM     29  O   UNL     1       1.004   3.965  19.569  0.00  0.00    +0.000 OA
BRANCH  28  30
ATOM     30  O   UNL     1       0.836   1.918  18.643  0.00  0.00    +0.000 OA
ATOM     31  H   UNL     1       1.193   1.416  17.879  0.00  0.00    +0.000 HD
ENDBRANCH  28  30
ENDBRANCH  27  28
ENDBRANCH  20  27
ENDBRANCH   1  20
TORSDOF 11
ENDMDL
MODEL 9
REMARK VINA RESULT:      -7.6      1.955      6.148
REMARK  Name = 
REMARK  12 active torsions:
REMARK  status: ('A' for Active; 'I' for Inactive)
REMARK    1  A    between atoms: C_1  and  O_2
REMARK    2  A    between atoms: O_2  and  C_3
REMARK    3  A    between atoms: C_6  and  S_7
REMARK    4  A    between atoms: S_7  and  N_10
REMARK    5  A    between atoms: N_10  and  C_11
REMARK    6  A    between atoms: N_10  and  C_18
REMARK    7  A    between atoms: C_11  and  C_12
REMARK    8  A    between atoms: C_18  and  C_19
REMARK    9  A    between atoms: C_18  and  C_23
REMARK   10  A    between atoms: C_19  and  C_20
REMARK   11  A    between atoms: C_20  and  O_22
REMARK   12  A    between atoms: N_25  and  O_26
REMARK                            x       y       z     vdW  Elec       q    Type
REMARK                         _______ _______ _______ _____ _____    ______ ____
ROOT
ATOM      1  N   UNL     1       4.228   5.252  19.259  0.00  0.00    +0.000 NA
ENDROOT
BRANCH   1   2
ATOM      2  S   UNL     1       5.870   5.141  18.729  0.00  0.00    +0.000 S 
ATOM      3  O   UNL     1       6.546   4.030  19.342  0.00  0.00    +0.000 OA
ATOM      4  O   UNL     1       6.413   6.483  18.836  0.00  0.00    +0.000 OA
BRANCH   2   8
ATOM      5  C   UNL     1       6.329   4.289  14.244  0.00  0.00    +0.000 A 
ATOM      6  C   UNL     1       6.943   5.388  14.835  0.00  0.00    +0.000 A 
ATOM      7  C   UNL     1       6.729   5.663  16.183  0.00  0.00    +0.000 A 
ATOM      8  C   UNL     1       5.882   4.850  16.959  0.00  0.00    +0.000 A 
ATOM      9  C   UNL     1       5.253   3.758  16.365  0.00  0.00    +0.000 A 
ATOM     10  C   UNL     1       5.467   3.490  15.000  0.00  0.00    +0.000 A 
BRANCH   5  12
ATOM     11  C   UNL     1       7.611   4.990  12.391  0.00  0.00    +0.000 C 
ATOM     12  O   UNL     1       6.629   4.108  12.923  0.00  0.00    +0.000 OA
ENDBRANCH   5  12
ENDBRANCH   2   8
ENDBRANCH   1   2
BRANCH   1  13
ATOM     13  C   UNL     1       3.276   5.855  18.231  0.00  0.00    +0.000 C 
BRANCH  13  14
ATOM     14  C   UNL     1       2.548   7.142  18.566  0.00  0.00    +0.000 A 
ATOM     15  C   UNL     1       2.084   7.433  19.858  0.00  0.00    +0.000 A 
ATOM     16  C   UNL     1       1.423   8.634  20.134  0.00  0.00    +0.000 A 
ATOM     17  C   UNL     1       1.224   9.572  19.125  0.00  0.00    +0.000 A 
ATOM     18  C   UNL     1       1.699   9.315  17.844  0.00  0.00    +0.000 A 
ATOM     19  C   UNL     1       2.367   8.118  17.574  0.00  0.00    +0.000 A 
ENDBRANCH  13  14
ENDBRANCH   1  13
BRANCH   1  20
ATOM     20  C   UNL     1       3.647   3.984  19.920  0.00  0.00    +0.000 C 
BRANCH  20  21
ATOM     21  C   UNL     1       3.410   2.826  18.940  0.00  0.00    +0.000 C 
ATOM     22  O   UNL     1       2.506   2.849  18.103  0.00  0.00    +0.000 OA
ATOM     23  N   UNL     1       4.288   1.776  19.013  0.00  0.00    +0.000 N 
ATOM     24  H   UNL     1       5.085   1.719  19.639  0.00  0.00    +0.000 HD
BRANCH  23  25
ATOM     25  O   UNL     1       4.071   0.696  18.132  0.00  0.00    +0.000 OA
ATOM     26  H   UNL     1       4.415   1.042  17.280  0.00  0.00    +0.000 HD
ENDBRANCH  23  25
ENDBRANCH  20  21
BRANCH  20  27
ATOM     27  C   UNL     1       2.325   4.112  20.693  0.00  0.00    +0.000 C 
BRANCH  27  28
ATOM     28  C   UNL     1       2.083   2.984  21.656  0.00  0.00    +0.000 C 
ATOM     29  O   UNL     1       0.999   2.742  22.152  0.00  0.00    +0.000 OA
BRANCH  28  30
ATOM     30  O   UNL     1       3.195   2.280  21.963  0.00  0.00    +0.000 OA
ATOM     31  H   UNL     1       3.621   2.596  22.789  0.00  0.00    +0.000 HD
ENDBRANCH  28  30
ENDBRANCH  27  28
ENDBRANCH  20  27
ENDBRANCH   1  20
TORSDOF 11
ENDMDL
