MODEL 1
REMARK VINA RESULT:      -7.9      0.000      0.000
REMARK  Name = 
REMARK  9 active torsions:
REMARK  status: ('A' for Active; 'I' for Inactive)
REMARK    1  A    between atoms: C_1  and  C_2
REMARK    2  A    between atoms: C_2  and  C_3
REMARK    3  A    between atoms: N_5  and  C_6
REMARK    4  A    between atoms: C_6  and  C_7
REMARK    5  A    between atoms: C_7  and  O_8
REMARK    6  A    between atoms: C_9  and  N_10
REMARK    7  A    between atoms: C_11  and  C_13
REMARK    8  A    between atoms: C_19  and  C_20
REMARK    9  A    between atoms: C_20  and  C_21
REMARK                            x       y       z     vdW  Elec       q    Type
REMARK                         _______ _______ _______ _____ _____    ______ ____
ROOT
ATOM      1  C   UNL     1       2.002   7.459  20.224  0.00  0.00    +0.000 A 
ATOM      2  N   UNL     1       2.082   6.267  20.831  0.00  0.00    +0.000 NA
ATOM      3  N   UNL     1       2.570   5.438  19.897  0.00  0.00    +0.000 N 
ATOM      4  C   UNL     1       2.728   6.053  18.676  0.00  0.00    +0.000 A 
ATOM      5  C   UNL     1       2.450   7.403  18.864  0.00  0.00    +0.000 A 
ENDROOT
BRANCH   4   6
ATOM      6  N   UNL     1       2.980   5.306  17.538  0.00  0.00    +0.000 N 
ATOM      7  C   UNL     1       4.268   4.954  17.153  0.00  0.00    +0.000 C 
ATOM      8  O   UNL     1       4.408   4.011  16.375  0.00  0.00    +0.000 OA
ATOM      9  H   UNL     1       2.324   4.559  17.325  0.00  0.00    +0.000 HD
BRANCH   7  10
ATOM     10  C   UNL     1       5.480   5.672  17.641  0.00  0.00    +0.000 A 
ATOM     11  C   UNL     1       6.288   5.271  18.703  0.00  0.00    +0.000 A 
ATOM     12  C   UNL     1       7.480   5.924  18.988  0.00  0.00    +0.000 A 
ATOM     13  C   UNL     1       7.813   7.015  18.217  0.00  0.00    +0.000 A 
ATOM     14  N   UNL     1       7.032   7.489  17.222  0.00  0.00    +0.000 NA
ATOM     15  C   UNL     1       5.879   6.816  16.964  0.00  0.00    +0.000 A 
ENDBRANCH   7  10
ENDBRANCH   4   6
BRANCH   1  17
ATOM     16  C   UNL     1      -0.018   8.358  21.420  0.00  0.00    +0.000 C 
ATOM     17  C   UNL     1       1.418   8.606  20.988  0.00  0.00    +0.000 C 
ENDBRANCH   1  17
BRANCH   3  18
ATOM     18  C   UNL     1       2.718   4.026  20.209  0.00  0.00    +0.000 C 
BRANCH  18  19
ATOM     19  C   UNL     1       1.489   3.383  20.847  0.00  0.00    +0.000 C 
BRANCH  19  20
ATOM     20  O   UNL     1       0.293   3.864  20.236  0.00  0.00    +0.000 OA
ATOM     21  H   UNL     1      -0.139   4.472  20.861  0.00  0.00    +0.000 HD
ENDBRANCH  19  20
ENDBRANCH  18  19
ENDBRANCH   3  18
BRANCH   5  22
ATOM     22  C   UNL     1       2.448   8.519  17.870  0.00  0.00    +0.000 C 
BRANCH  22  23
ATOM     23  C   UNL     1       1.275   9.461  18.081  0.00  0.00    +0.000 A 
ATOM     24  C   UNL     1      -0.066   9.180  17.779  0.00  0.00    +0.000 A 
ATOM     25  C   UNL     1      -1.061  10.150  17.957  0.00  0.00    +0.000 A 
ATOM     26 CL   UNL     1      -2.694   9.770  17.565  0.00  0.00    +0.000 Cl
ATOM     27  C   UNL     1      -0.751  11.419  18.435  0.00  0.00    +0.000 A 
ATOM     28  C   UNL     1       0.571  11.712  18.746  0.00  0.00    +0.000 A 
ATOM     29 CL   UNL     1       0.983  13.277  19.331  0.00  0.00    +0.000 Cl
ATOM     30  C   UNL     1       1.573  10.749  18.577  0.00  0.00    +0.000 A 
ENDBRANCH  22  23
ENDBRANCH   5  22
TORSDOF 8
ENDMDL
MODEL 2
REMARK VINA RESULT:      -7.7      0.541      1.781
REMARK  Name = 
REMARK  9 active torsions:
REMARK  status: ('A' for Active; 'I' for Inactive)
REMARK    1  A    between atoms: C_1  and  C_2
REMARK    2  A    between atoms: C_2  and  C_3
REMARK    3  A    between atoms: N_5  and  C_6
REMARK    4  A    between atoms: C_6  and  C_7
REMARK    5  A    between atoms: C_7  and  O_8
REMARK    6  A    between atoms: C_9  and  N_10
REMARK    7  A    between atoms: C_11  and  C_13
REMARK    8  A    between atoms: C_19  and  C_20
REMARK    9  A    between atoms: C_20  and  C_21
REMARK                            x       y       z     vdW  Elec       q    Type
REMARK                         _______ _______ _______ _____ _____    ______ ____
ROOT
ATOM      1  C   UNL     1       1.883   7.503  20.262  0.00  0.00    +0.000 A 
ATOM      2  N   UNL     1       1.787   6.295  20.834  0.00  0.00    +0.000 NA
ATOM      3  N   UNL     1       2.223   5.437  19.900  0.00  0.00    +0.000 N 
ATOM      4  C   UNL     1       2.521   6.059  18.710  0.00  0.00    +0.000 A 
ATOM      5  C   UNL     1       2.396   7.428  18.926  0.00  0.00    +0.000 A 
ENDROOT
BRANCH   4   6
ATOM      6  N   UNL     1       2.744   5.317  17.563  0.00  0.00    +0.000 N 
ATOM      7  C   UNL     1       4.017   4.914  17.178  0.00  0.00    +0.000 C 
ATOM      8  O   UNL     1       4.119   3.975  16.388  0.00  0.00    +0.000 OA
ATOM      9  H   UNL     1       2.057   4.601  17.338  0.00  0.00    +0.000 HD
BRANCH   7  10
ATOM     10  C   UNL     1       5.257   5.572  17.679  0.00  0.00    +0.000 A 
ATOM     11  C   UNL     1       5.994   5.172  18.792  0.00  0.00    +0.000 A 
ATOM     12  C   UNL     1       7.218   5.756  19.093  0.00  0.00    +0.000 A 
ATOM     13  C   UNL     1       7.656   6.779  18.282  0.00  0.00    +0.000 A 
ATOM     14  N   UNL     1       6.949   7.252  17.233  0.00  0.00    +0.000 NA
ATOM     15  C   UNL     1       5.762   6.647  16.962  0.00  0.00    +0.000 A 
ENDBRANCH   7  10
ENDBRANCH   4   6
BRANCH   1  17
ATOM     16  C   UNL     1      -0.064   8.583  21.429  0.00  0.00    +0.000 C 
ATOM     17  C   UNL     1       1.399   8.692  21.031  0.00  0.00    +0.000 C 
ENDBRANCH   1  17
BRANCH   3  18
ATOM     18  C   UNL     1       2.184   4.010  20.175  0.00  0.00    +0.000 C 
BRANCH  18  19
ATOM     19  C   UNL     1       0.899   3.312  19.733  0.00  0.00    +0.000 C 
BRANCH  19  20
ATOM     20  O   UNL     1       0.989   2.906  18.369  0.00  0.00    +0.000 OA
ATOM     21  H   UNL     1       0.273   2.269  18.198  0.00  0.00    +0.000 HD
ENDBRANCH  19  20
ENDBRANCH  18  19
ENDBRANCH   3  18
BRANCH   5  22
ATOM     22  C   UNL     1       2.582   8.561  17.969  0.00  0.00    +0.000 C 
BRANCH  22  23
ATOM     23  C   UNL     1       1.513   9.627  18.141  0.00  0.00    +0.000 A 
ATOM     24  C   UNL     1       1.712  10.908  18.677  0.00  0.00    +0.000 A 
ATOM     25  C   UNL     1       0.638  11.790  18.846  0.00  0.00    +0.000 A 
ATOM     26 CL   UNL     1       0.921  13.351  19.518  0.00  0.00    +0.000 Cl
ATOM     27  C   UNL     1      -0.656  11.424  18.493  0.00  0.00    +0.000 A 
ATOM     28  C   UNL     1      -0.870  10.162  17.953  0.00  0.00    +0.000 A 
ATOM     29 CL   UNL     1      -2.464   9.681  17.514  0.00  0.00    +0.000 Cl
ATOM     30  C   UNL     1       0.196   9.274  17.774  0.00  0.00    +0.000 A 
ENDBRANCH  22  23
ENDBRANCH   5  22
TORSDOF 8
ENDMDL
MODEL 3
REMARK VINA RESULT:      -7.6      4.265      7.059
REMARK  Name = 
REMARK  9 active torsions:
REMARK  status: ('A' for Active; 'I' for Inactive)
REMARK    1  A    between atoms: C_1  and  C_2
REMARK    2  A    between atoms: C_2  and  C_3
REMARK    3  A    between atoms: N_5  and  C_6
REMARK    4  A    between atoms: C_6  and  C_7
REMARK    5  A    between atoms: C_7  and  O_8
REMARK    6  A    between atoms: C_9  and  N_10
REMARK    7  A    between atoms: C_11  and  C_13
REMARK    8  A    between atoms: C_19  and  C_20
REMARK    9  A    between atoms: C_20  and  C_21
REMARK                            x       y       z     vdW  Elec       q    Type
REMARK                         _______ _______ _______ _____ _____    ______ ____
ROOT
ATOM      1  C   UNL     1       6.232   4.953  17.976  0.00  0.00    +0.000 A 
ATOM      2  N   UNL     1       6.112   4.126  19.023  0.00  0.00    +0.000 NA
ATOM      3  N   UNL     1       4.959   3.475  18.817  0.00  0.00    +0.000 N 
ATOM      4  C   UNL     1       4.291   3.923  17.700  0.00  0.00    +0.000 A 
ATOM      5  C   UNL     1       5.130   4.834  17.067  0.00  0.00    +0.000 A 
ENDROOT
BRANCH   4   6
ATOM      6  N   UNL     1       2.979   3.551  17.467  0.00  0.00    +0.000 N 
ATOM      7  C   UNL     1       1.912   4.410  17.702  0.00  0.00    +0.000 C 
ATOM      8  O   UNL     1       0.839   4.176  17.146  0.00  0.00    +0.000 OA
ATOM      9  H   UNL     1       2.803   2.976  16.646  0.00  0.00    +0.000 HD
BRANCH   7  10
ATOM     10  C   UNL     1       2.015   5.597  18.598  0.00  0.00    +0.000 A 
ATOM     11  C   UNL     1       2.276   6.903  18.187  0.00  0.00    +0.000 A 
ATOM     12  C   UNL     1       2.205   7.966  19.078  0.00  0.00    +0.000 A 
ATOM     13  C   UNL     1       1.917   7.680  20.394  0.00  0.00    +0.000 A 
ATOM     14  N   UNL     1       1.725   6.427  20.859  0.00  0.00    +0.000 NA
ATOM     15  C   UNL     1       1.790   5.413  19.954  0.00  0.00    +0.000 A 
ENDBRANCH   7  10
ENDBRANCH   4   6
BRANCH   1  17
ATOM     16  C   UNL     1       8.090   6.024  19.287  0.00  0.00    +0.000 C 
ATOM     17  C   UNL     1       7.399   5.888  17.940  0.00  0.00    +0.000 C 
ENDBRANCH   1  17
BRANCH   3  18
ATOM     18  C   UNL     1       4.486   2.535  19.820  0.00  0.00    +0.000 C 
BRANCH  18  19
ATOM     19  C   UNL     1       4.732   1.065  19.481  0.00  0.00    +0.000 C 
BRANCH  19  20
ATOM     20  O   UNL     1       3.995   0.686  18.321  0.00  0.00    +0.000 OA
ATOM     21  H   UNL     1       4.527   0.920  17.539  0.00  0.00    +0.000 HD
ENDBRANCH  19  20
ENDBRANCH  18  19
ENDBRANCH   3  18
BRANCH   5  22
ATOM     22  C   UNL     1       4.897   5.635  15.826  0.00  0.00    +0.000 C 
BRANCH  22  23
ATOM     23  C   UNL     1       5.649   5.066  14.636  0.00  0.00    +0.000 A 
ATOM     24  C   UNL     1       5.214   4.009  13.822  0.00  0.00    +0.000 A 
ATOM     25  C   UNL     1       6.020   3.522  12.785  0.00  0.00    +0.000 A 
ATOM     26 CL   UNL     1       5.455   2.217  11.814  0.00  0.00    +0.000 Cl
ATOM     27  C   UNL     1       7.275   4.067  12.533  0.00  0.00    +0.000 A 
ATOM     28  C   UNL     1       7.718   5.119  13.325  0.00  0.00    +0.000 A 
ATOM     29 CL   UNL     1       9.271   5.805  13.040  0.00  0.00    +0.000 Cl
ATOM     30  C   UNL     1       6.919   5.617  14.360  0.00  0.00    +0.000 A 
ENDBRANCH  22  23
ENDBRANCH   5  22
TORSDOF 8
ENDMDL
MODEL 4
REMARK VINA RESULT:      -7.6      0.876      1.119
REMARK  Name = 
REMARK  9 active torsions:
REMARK  status: ('A' for Active; 'I' for Inactive)
REMARK    1  A    between atoms: C_1  and  C_2
REMARK    2  A    between atoms: C_2  and  C_3
REMARK    3  A    between atoms: N_5  and  C_6
REMARK    4  A    between atoms: C_6  and  C_7
REMARK    5  A    between atoms: C_7  and  O_8
REMARK    6  A    between atoms: C_9  and  N_10
REMARK    7  A    between atoms: C_11  and  C_13
REMARK    8  A    between atoms: C_19  and  C_20
REMARK    9  A    between atoms: C_20  and  C_21
REMARK                            x       y       z     vdW  Elec       q    Type
REMARK                         _______ _______ _______ _____ _____    ______ ____
ROOT
ATOM      1  C   UNL     1       1.906   7.547  20.382  0.00  0.00    +0.000 A 
ATOM      2  N   UNL     1       1.875   6.355  20.992  0.00  0.00    +0.000 NA
ATOM      3  N   UNL     1       2.241   5.475  20.048  0.00  0.00    +0.000 N 
ATOM      4  C   UNL     1       2.429   6.067  18.820  0.00  0.00    +0.000 A 
ATOM      5  C   UNL     1       2.304   7.439  19.009  0.00  0.00    +0.000 A 
ENDROOT
BRANCH   4   6
ATOM      6  N   UNL     1       2.563   5.295  17.679  0.00  0.00    +0.000 N 
ATOM      7  C   UNL     1       3.775   4.721  17.313  0.00  0.00    +0.000 C 
ATOM      8  O   UNL     1       3.758   3.773  16.528  0.00  0.00    +0.000 OA
ATOM      9  H   UNL     1       1.789   4.678  17.447  0.00  0.00    +0.000 HD
BRANCH   7  10
ATOM     10  C   UNL     1       5.086   5.207  17.828  0.00  0.00    +0.000 A 
ATOM     11  C   UNL     1       5.843   6.238  17.276  0.00  0.00    +0.000 A 
ATOM     12  C   UNL     1       6.979   6.720  17.913  0.00  0.00    +0.000 A 
ATOM     13  C   UNL     1       7.362   6.109  19.086  0.00  0.00    +0.000 A 
ATOM     14  N   UNL     1       6.706   5.060  19.628  0.00  0.00    +0.000 NA
ATOM     15  C   UNL     1       5.591   4.625  18.983  0.00  0.00    +0.000 A 
ENDBRANCH   7  10
ENDBRANCH   4   6
BRANCH   1  17
ATOM     16  C   UNL     1       0.002   8.713  21.536  0.00  0.00    +0.000 C 
ATOM     17  C   UNL     1       1.473   8.752  21.156  0.00  0.00    +0.000 C 
ENDBRANCH   1  17
BRANCH   3  18
ATOM     18  C   UNL     1       2.245   4.056  20.364  0.00  0.00    +0.000 C 
BRANCH  18  19
ATOM     19  C   UNL     1       0.946   3.326  20.028  0.00  0.00    +0.000 C 
BRANCH  19  20
ATOM     20  O   UNL     1       0.982   2.821  18.694  0.00  0.00    +0.000 OA
ATOM     21  H   UNL     1       1.685   2.149  18.648  0.00  0.00    +0.000 HD
ENDBRANCH  19  20
ENDBRANCH  18  19
ENDBRANCH   3  18
BRANCH   5  22
ATOM     22  C   UNL     1       2.393   8.547  18.009  0.00  0.00    +0.000 C 
BRANCH  22  23
ATOM     23  C   UNL     1       1.237   9.523  18.143  0.00  0.00    +0.000 A 
ATOM     24  C   UNL     1      -0.101   9.258  17.815  0.00  0.00    +0.000 A 
ATOM     25  C   UNL     1      -1.078  10.256  17.921  0.00  0.00    +0.000 A 
ATOM     26 CL   UNL     1      -2.708   9.894  17.499  0.00  0.00    +0.000 Cl
ATOM     27  C   UNL     1      -0.752  11.538  18.349  0.00  0.00    +0.000 A 
ATOM     28  C   UNL     1       0.567  11.817  18.685  0.00  0.00    +0.000 A 
ATOM     29 CL   UNL     1       0.997  13.398  19.210  0.00  0.00    +0.000 Cl
ATOM     30  C   UNL     1       1.550  10.826  18.588  0.00  0.00    +0.000 A 
ENDBRANCH  22  23
ENDBRANCH   5  22
TORSDOF 8
ENDMDL
MODEL 5
REMARK VINA RESULT:      -7.5      0.901      2.043
REMARK  Name = 
REMARK  9 active torsions:
REMARK  status: ('A' for Active; 'I' for Inactive)
REMARK    1  A    between atoms: C_1  and  C_2
REMARK    2  A    between atoms: C_2  and  C_3
REMARK    3  A    between atoms: N_5  and  C_6
REMARK    4  A    between atoms: C_6  and  C_7
REMARK    5  A    between atoms: C_7  and  O_8
REMARK    6  A    between atoms: C_9  and  N_10
REMARK    7  A    between atoms: C_11  and  C_13
REMARK    8  A    between atoms: C_19  and  C_20
REMARK    9  A    between atoms: C_20  and  C_21
REMARK                            x       y       z     vdW  Elec       q    Type
REMARK                         _______ _______ _______ _____ _____    ______ ____
ROOT
ATOM      1  C   UNL     1       1.981   7.375  20.154  0.00  0.00    +0.000 A 
ATOM      2  N   UNL     1       1.898   6.153  20.697  0.00  0.00    +0.000 NA
ATOM      3  N   UNL     1       2.339   5.321  19.742  0.00  0.00    +0.000 N 
ATOM      4  C   UNL     1       2.626   5.974  18.565  0.00  0.00    +0.000 A 
ATOM      5  C   UNL     1       2.490   7.336  18.814  0.00  0.00    +0.000 A 
ENDROOT
BRANCH   4   6
ATOM      6  N   UNL     1       2.852   5.261  17.401  0.00  0.00    +0.000 N 
ATOM      7  C   UNL     1       4.104   4.749  17.077  0.00  0.00    +0.000 C 
ATOM      8  O   UNL     1       4.166   3.839  16.251  0.00  0.00    +0.000 OA
ATOM      9  H   UNL     1       2.116   4.627  17.100  0.00  0.00    +0.000 HD
BRANCH   7  10
ATOM     10  C   UNL     1       5.365   5.259  17.685  0.00  0.00    +0.000 A 
ATOM     11  C   UNL     1       6.139   6.308  17.189  0.00  0.00    +0.000 A 
ATOM     12  C   UNL     1       7.217   6.809  17.906  0.00  0.00    +0.000 A 
ATOM     13  C   UNL     1       7.528   6.202  19.102  0.00  0.00    +0.000 A 
ATOM     14  N   UNL     1       6.856   5.139  19.595  0.00  0.00    +0.000 NA
ATOM     15  C   UNL     1       5.799   4.684  18.871  0.00  0.00    +0.000 A 
ENDBRANCH   7  10
ENDBRANCH   4   6
BRANCH   1  17
ATOM     16  C   UNL     1       0.037   8.395  21.378  0.00  0.00    +0.000 C 
ATOM     17  C   UNL     1       1.488   8.541  20.952  0.00  0.00    +0.000 C 
ENDBRANCH   1  17
BRANCH   3  18
ATOM     18  C   UNL     1       2.314   3.888  19.983  0.00  0.00    +0.000 C 
BRANCH  18  19
ATOM     19  C   UNL     1       1.404   3.451  21.130  0.00  0.00    +0.000 C 
BRANCH  19  20
ATOM     20  O   UNL     1       2.163   3.217  22.314  0.00  0.00    +0.000 OA
ATOM     21  H   UNL     1       3.035   3.634  22.198  0.00  0.00    +0.000 HD
ENDBRANCH  19  20
ENDBRANCH  18  19
ENDBRANCH   3  18
BRANCH   5  22
ATOM     22  C   UNL     1       2.662   8.493  17.883  0.00  0.00    +0.000 C 
BRANCH  22  23
ATOM     23  C   UNL     1       1.602   9.558  18.104  0.00  0.00    +0.000 A 
ATOM     24  C   UNL     1       1.812  10.814  18.694  0.00  0.00    +0.000 A 
ATOM     25  C   UNL     1       0.745  11.696  18.904  0.00  0.00    +0.000 A 
ATOM     26 CL   UNL     1       1.042  13.224  19.640  0.00  0.00    +0.000 Cl
ATOM     27  C   UNL     1      -0.553  11.355  18.540  0.00  0.00    +0.000 A 
ATOM     28  C   UNL     1      -0.778  10.118  17.948  0.00  0.00    +0.000 A 
ATOM     29 CL   UNL     1      -2.376   9.669  17.495  0.00  0.00    +0.000 Cl
ATOM     30  C   UNL     1       0.281   9.231  17.728  0.00  0.00    +0.000 A 
ENDBRANCH  22  23
ENDBRANCH   5  22
TORSDOF 8
ENDMDL
MODEL 6
REMARK VINA RESULT:      -7.4      4.188      7.156
REMARK  Name = 
REMARK  9 active torsions:
REMARK  status: ('A' for Active; 'I' for Inactive)
REMARK    1  A    between atoms: C_1  and  C_2
REMARK    2  A    between atoms: C_2  and  C_3
REMARK    3  A    between atoms: N_5  and  C_6
REMARK    4  A    between atoms: C_6  and  C_7
REMARK    5  A    between atoms: C_7  and  O_8
REMARK    6  A    between atoms: C_9  and  N_10
REMARK    7  A    between atoms: C_11  and  C_13
REMARK    8  A    between atoms: C_19  and  C_20
REMARK    9  A    between atoms: C_20  and  C_21
REMARK                            x       y       z     vdW  Elec       q    Type
REMARK                         _______ _______ _______ _____ _____    ______ ____
ROOT
ATOM      1  C   UNL     1       6.173   4.689  18.077  0.00  0.00    +0.000 A 
ATOM      2  N   UNL     1       6.010   3.832  19.094  0.00  0.00    +0.000 NA
ATOM      3  N   UNL     1       4.832   3.236  18.857  0.00  0.00    +0.000 N 
ATOM      4  C   UNL     1       4.194   3.751  17.752  0.00  0.00    +0.000 A 
ATOM      5  C   UNL     1       5.075   4.648  17.157  0.00  0.00    +0.000 A 
ENDROOT
BRANCH   4   6
ATOM      6  N   UNL     1       2.869   3.442  17.497  0.00  0.00    +0.000 N 
ATOM      7  C   UNL     1       1.850   4.376  17.642  0.00  0.00    +0.000 C 
ATOM      8  O   UNL     1       0.782   4.170  17.065  0.00  0.00    +0.000 OA
ATOM      9  H   UNL     1       2.684   2.828  16.708  0.00  0.00    +0.000 HD
BRANCH   7  10
ATOM     10  C   UNL     1       1.997   5.609  18.466  0.00  0.00    +0.000 A 
ATOM     11  C   UNL     1       2.292   6.881  17.979  0.00  0.00    +0.000 A 
ATOM     12  C   UNL     1       2.262   7.995  18.807  0.00  0.00    +0.000 A 
ATOM     13  C   UNL     1       1.978   7.795  20.139  0.00  0.00    +0.000 A 
ATOM     14  N   UNL     1       1.754   6.577  20.678  0.00  0.00    +0.000 NA
ATOM     15  C   UNL     1       1.779   5.511  19.833  0.00  0.00    +0.000 A 
ENDBRANCH   7  10
ENDBRANCH   4   6
BRANCH   1  17
ATOM     16  C   UNL     1       7.942   5.799  19.476  0.00  0.00    +0.000 C 
ATOM     17  C   UNL     1       7.378   5.575  18.082  0.00  0.00    +0.000 C 
ENDBRANCH   1  17
BRANCH   3  18
ATOM     18  C   UNL     1       4.313   2.282  19.823  0.00  0.00    +0.000 C 
BRANCH  18  19
ATOM     19  C   UNL     1       3.102   2.773  20.614  0.00  0.00    +0.000 C 
BRANCH  19  20
ATOM     20  O   UNL     1       3.135   2.272  21.949  0.00  0.00    +0.000 OA
ATOM     21  H   UNL     1       2.284   1.833  22.125  0.00  0.00    +0.000 HD
ENDBRANCH  19  20
ENDBRANCH  18  19
ENDBRANCH   3  18
BRANCH   5  22
ATOM     22  C   UNL     1       4.885   5.501  15.944  0.00  0.00    +0.000 C 
BRANCH  22  23
ATOM     23  C   UNL     1       5.770   5.053  14.794  0.00  0.00    +0.000 A 
ATOM     24  C   UNL     1       7.024   5.590  14.468  0.00  0.00    +0.000 A 
ATOM     25  C   UNL     1       7.728   5.139  13.343  0.00  0.00    +0.000 A 
ATOM     26 CL   UNL     1       9.260   5.831  12.970  0.00  0.00    +0.000 Cl
ATOM     27  C   UNL     1       7.205   4.151  12.516  0.00  0.00    +0.000 A 
ATOM     28  C   UNL     1       5.967   3.603  12.829  0.00  0.00    +0.000 A 
ATOM     29 CL   UNL     1       5.294   2.385  11.816  0.00  0.00    +0.000 Cl
ATOM     30  C   UNL     1       5.257   4.041  13.952  0.00  0.00    +0.000 A 
ENDBRANCH  22  23
ENDBRANCH   5  22
TORSDOF 8
ENDMDL
MODEL 7
REMARK VINA RESULT:      -7.3      4.279      7.170
REMARK  Name = 
REMARK  9 active torsions:
REMARK  status: ('A' for Active; 'I' for Inactive)
REMARK    1  A    between atoms: C_1  and  C_2
REMARK    2  A    between atoms: C_2  and  C_3
REMARK    3  A    between atoms: N_5  and  C_6
REMARK    4  A    between atoms: C_6  and  C_7
REMARK    5  A    between atoms: C_7  and  O_8
REMARK    6  A    between atoms: C_9  and  N_10
REMARK    7  A    between atoms: C_11  and  C_13
REMARK    8  A    between atoms: C_19  and  C_20
REMARK    9  A    between atoms: C_20  and  C_21
REMARK                            x       y       z     vdW  Elec       q    Type
REMARK                         _______ _______ _______ _____ _____    ______ ____
ROOT
ATOM      1  C   UNL     1       6.141   4.988  18.087  0.00  0.00    +0.000 A 
ATOM      2  N   UNL     1       6.012   4.167  19.138  0.00  0.00    +0.000 NA
ATOM      3  N   UNL     1       4.900   3.460  18.888  0.00  0.00    +0.000 N 
ATOM      4  C   UNL     1       4.265   3.865  17.737  0.00  0.00    +0.000 A 
ATOM      5  C   UNL     1       5.089   4.808  17.131  0.00  0.00    +0.000 A 
ENDROOT
BRANCH   4   6
ATOM      6  N   UNL     1       2.983   3.429  17.448  0.00  0.00    +0.000 N 
ATOM      7  C   UNL     1       1.862   4.212  17.697  0.00  0.00    +0.000 C 
ATOM      8  O   UNL     1       0.819   3.944  17.100  0.00  0.00    +0.000 OA
ATOM      9  H   UNL     1       2.863   2.889  16.596  0.00  0.00    +0.000 HD
BRANCH   7  10
ATOM     10  C   UNL     1       1.871   5.354  18.654  0.00  0.00    +0.000 A 
ATOM     11  C   UNL     1       1.681   5.260  20.031  0.00  0.00    +0.000 A 
ATOM     12  C   UNL     1       1.856   6.361  20.860  0.00  0.00    +0.000 A 
ATOM     13  C   UNL     1       2.175   7.563  20.268  0.00  0.00    +0.000 A 
ATOM     14  N   UNL     1       2.302   7.725  18.934  0.00  0.00    +0.000 NA
ATOM     15  C   UNL     1       2.136   6.622  18.156  0.00  0.00    +0.000 A 
ENDBRANCH   7  10
ENDBRANCH   4   6
BRANCH   1  17
ATOM     16  C   UNL     1       8.078   5.940  19.376  0.00  0.00    +0.000 C 
ATOM     17  C   UNL     1       7.264   5.976  18.093  0.00  0.00    +0.000 C 
ENDBRANCH   1  17
BRANCH   3  18
ATOM     18  C   UNL     1       4.426   2.509  19.880  0.00  0.00    +0.000 C 
BRANCH  18  19
ATOM     19  C   UNL     1       4.726   1.047  19.555  0.00  0.00    +0.000 C 
BRANCH  19  20
ATOM     20  O   UNL     1       4.022   0.636  18.384  0.00  0.00    +0.000 OA
ATOM     21  H   UNL     1       4.652   0.631  17.643  0.00  0.00    +0.000 HD
ENDBRANCH  19  20
ENDBRANCH  18  19
ENDBRANCH   3  18
BRANCH   5  22
ATOM     22  C   UNL     1       4.876   5.585  15.871  0.00  0.00    +0.000 C 
BRANCH  22  23
ATOM     23  C   UNL     1       5.780   5.102  14.750  0.00  0.00    +0.000 A 
ATOM     24  C   UNL     1       7.051   5.613  14.445  0.00  0.00    +0.000 A 
ATOM     25  C   UNL     1       7.773   5.131  13.345  0.00  0.00    +0.000 A 
ATOM     26 CL   UNL     1       9.325   5.791  12.998  0.00  0.00    +0.000 Cl
ATOM     27  C   UNL     1       7.253   4.138  12.523  0.00  0.00    +0.000 A 
ATOM     28  C   UNL     1       5.999   3.616  12.815  0.00  0.00    +0.000 A 
ATOM     29 CL   UNL     1       5.330   2.392  11.807  0.00  0.00    +0.000 Cl
ATOM     30  C   UNL     1       5.271   4.085  13.913  0.00  0.00    +0.000 A 
ENDBRANCH  22  23
ENDBRANCH   5  22
TORSDOF 8
ENDMDL
MODEL 8
REMARK VINA RESULT:      -7.0      4.187      7.420
REMARK  Name = 
REMARK  9 active torsions:
REMARK  status: ('A' for Active; 'I' for Inactive)
REMARK    1  A    between atoms: C_1  and  C_2
REMARK    2  A    between atoms: C_2  and  C_3
REMARK    3  A    between atoms: N_5  and  C_6
REMARK    4  A    between atoms: C_6  and  C_7
REMARK    5  A    between atoms: C_7  and  O_8
REMARK    6  A    between atoms: C_9  and  N_10
REMARK    7  A    between atoms: C_11  and  C_13
REMARK    8  A    between atoms: C_19  and  C_20
REMARK    9  A    between atoms: C_20  and  C_21
REMARK                            x       y       z     vdW  Elec       q    Type
REMARK                         _______ _______ _______ _____ _____    ______ ____
ROOT
ATOM      1  C   UNL     1       5.948   6.305  17.536  0.00  0.00    +0.000 A 
ATOM      2  N   UNL     1       5.082   7.233  17.968  0.00  0.00    +0.000 NA
ATOM      3  N   UNL     1       3.876   6.658  17.850  0.00  0.00    +0.000 N 
ATOM      4  C   UNL     1       3.940   5.410  17.275  0.00  0.00    +0.000 A 
ATOM      5  C   UNL     1       5.288   5.100  17.131  0.00  0.00    +0.000 A 
ENDROOT
BRANCH   4   6
ATOM      6  N   UNL     1       2.789   4.772  16.846  0.00  0.00    +0.000 N 
ATOM      7  C   UNL     1       1.909   4.159  17.730  0.00  0.00    +0.000 C 
ATOM      8  O   UNL     1       0.757   3.943  17.352  0.00  0.00    +0.000 OA
ATOM      9  H   UNL     1       2.282   5.206  16.077  0.00  0.00    +0.000 HD
BRANCH   7  10
ATOM     10  C   UNL     1       2.303   3.753  19.108  0.00  0.00    +0.000 A 
ATOM     11  C   UNL     1       1.753   4.248  20.289  0.00  0.00    +0.000 A 
ATOM     12  C   UNL     1       2.080   3.700  21.522  0.00  0.00    +0.000 A 
ATOM     13  C   UNL     1       3.007   2.682  21.544  0.00  0.00    +0.000 A 
ATOM     14  N   UNL     1       3.624   2.212  20.438  0.00  0.00    +0.000 NA
ATOM     15  C   UNL     1       3.268   2.764  19.247  0.00  0.00    +0.000 A 
ENDBRANCH   7  10
ENDBRANCH   4   6
BRANCH   1  17
ATOM     16  C   UNL     1       7.645   8.157  17.626  0.00  0.00    +0.000 C 
ATOM     17  C   UNL     1       7.398   6.665  17.472  0.00  0.00    +0.000 C 
ENDBRANCH   1  17
BRANCH   3  18
ATOM     18  C   UNL     1       2.688   7.431  18.174  0.00  0.00    +0.000 C 
BRANCH  18  19
ATOM     19  C   UNL     1       2.757   8.903  17.771  0.00  0.00    +0.000 C 
BRANCH  19  20
ATOM     20  O   UNL     1       1.472   9.377  17.371  0.00  0.00    +0.000 OA
ATOM     21  H   UNL     1       0.823   8.679  17.565  0.00  0.00    +0.000 HD
ENDBRANCH  19  20
ENDBRANCH  18  19
ENDBRANCH   3  18
BRANCH   5  22
ATOM     22  C   UNL     1       5.924   3.880  16.544  0.00  0.00    +0.000 C 
BRANCH  22  23
ATOM     23  C   UNL     1       6.305   4.087  15.088  0.00  0.00    +0.000 A 
ATOM     24  C   UNL     1       7.375   4.867  14.625  0.00  0.00    +0.000 A 
ATOM     25  C   UNL     1       7.597   5.039  13.252  0.00  0.00    +0.000 A 
ATOM     26 CL   UNL     1       8.915   6.013  12.723  0.00  0.00    +0.000 Cl
ATOM     27  C   UNL     1       6.765   4.445  12.310  0.00  0.00    +0.000 A 
ATOM     28  C   UNL     1       5.705   3.663  12.751  0.00  0.00    +0.000 A 
ATOM     29 CL   UNL     1       4.656   2.924  11.604  0.00  0.00    +0.000 Cl
ATOM     30  C   UNL     1       5.477   3.480  14.119  0.00  0.00    +0.000 A 
ENDBRANCH  22  23
ENDBRANCH   5  22
TORSDOF 8
ENDMDL
MODEL 9
REMARK VINA RESULT:      -7.0      4.077      7.076
REMARK  Name = 
REMARK  9 active torsions:
REMARK  status: ('A' for Active; 'I' for Inactive)
REMARK    1  A    between atoms: C_1  and  C_2
REMARK    2  A    between atoms: C_2  and  C_3
REMARK    3  A    between atoms: N_5  and  C_6
REMARK    4  A    between atoms: C_6  and  C_7
REMARK    5  A    between atoms: C_7  and  O_8
REMARK    6  A    between atoms: C_9  and  N_10
REMARK    7  A    between atoms: C_11  and  C_13
REMARK    8  A    between atoms: C_19  and  C_20
REMARK    9  A    between atoms: C_20  and  C_21
REMARK                            x       y       z     vdW  Elec       q    Type
REMARK                         _______ _______ _______ _____ _____    ______ ____
ROOT
ATOM      1  C   UNL     1       5.774   6.407  17.591  0.00  0.00    +0.000 A 
ATOM      2  N   UNL     1       4.854   7.293  17.995  0.00  0.00    +0.000 NA
ATOM      3  N   UNL     1       3.680   6.660  17.853  0.00  0.00    +0.000 N 
ATOM      4  C   UNL     1       3.819   5.413  17.288  0.00  0.00    +0.000 A 
ATOM      5  C   UNL     1       5.183   5.168  17.179  0.00  0.00    +0.000 A 
ENDROOT
BRANCH   4   6
ATOM      6  N   UNL     1       2.711   4.717  16.837  0.00  0.00    +0.000 N 
ATOM      7  C   UNL     1       1.863   4.033  17.701  0.00  0.00    +0.000 C 
ATOM      8  O   UNL     1       0.729   3.757  17.309  0.00  0.00    +0.000 OA
ATOM      9  H   UNL     1       2.185   5.135  16.073  0.00  0.00    +0.000 HD
BRANCH   7  10
ATOM     10  C   UNL     1       2.271   3.622  19.074  0.00  0.00    +0.000 A 
ATOM     11  C   UNL     1       1.547   3.858  20.241  0.00  0.00    +0.000 A 
ATOM     12  C   UNL     1       1.936   3.305  21.454  0.00  0.00    +0.000 A 
ATOM     13  C   UNL     1       3.091   2.556  21.475  0.00  0.00    +0.000 A 
ATOM     14  N   UNL     1       3.868   2.355  20.389  0.00  0.00    +0.000 NA
ATOM     15  C   UNL     1       3.448   2.900  19.217  0.00  0.00    +0.000 A 
ENDBRANCH   7  10
ENDBRANCH   4   6
BRANCH   1  17
ATOM     16  C   UNL     1       7.986   6.388  18.785  0.00  0.00    +0.000 C 
ATOM     17  C   UNL     1       7.206   6.837  17.560  0.00  0.00    +0.000 C 
ENDBRANCH   1  17
BRANCH   3  18
ATOM     18  C   UNL     1       2.448   7.375  18.143  0.00  0.00    +0.000 C 
BRANCH  18  19
ATOM     19  C   UNL     1       2.118   7.498  19.629  0.00  0.00    +0.000 C 
BRANCH  19  20
ATOM     20  O   UNL     1       2.954   6.640  20.404  0.00  0.00    +0.000 OA
ATOM     21  H   UNL     1       3.441   6.063  19.789  0.00  0.00    +0.000 HD
ENDBRANCH  19  20
ENDBRANCH  18  19
ENDBRANCH   3  18
BRANCH   5  22
ATOM     22  C   UNL     1       5.892   3.977  16.617  0.00  0.00    +0.000 C 
BRANCH  22  23
ATOM     23  C   UNL     1       6.118   4.109  15.121  0.00  0.00    +0.000 A 
ATOM     24  C   UNL     1       5.345   3.502  14.119  0.00  0.00    +0.000 A 
ATOM     25  C   UNL     1       5.683   3.643  12.766  0.00  0.00    +0.000 A 
ATOM     26 CL   UNL     1       4.716   2.875  11.567  0.00  0.00    +0.000 Cl
ATOM     27  C   UNL     1       6.794   4.384  12.377  0.00  0.00    +0.000 A 
ATOM     28  C   UNL     1       7.566   4.998  13.355  0.00  0.00    +0.000 A 
ATOM     29 CL   UNL     1       8.950   5.914  12.899  0.00  0.00    +0.000 Cl
ATOM     30  C   UNL     1       7.235   4.869  14.708  0.00  0.00    +0.000 A 
ENDBRANCH  22  23
ENDBRANCH   5  22
TORSDOF 8
ENDMDL
