MODEL 1
REMARK VINA RESULT:      -8.6      0.000      0.000
REMARK  Name = 
REMARK  4 active torsions:
REMARK  status: ('A' for Active; 'I' for Inactive)
REMARK    1  A    between atoms: C_1  and  N_2
REMARK    2  A    between atoms: C_6  and  C_7
REMARK    3  A    between atoms: N_9  and  N_10
REMARK    4  A    between atoms: C_11  and  C_13
REMARK                            x       y       z     vdW  Elec       q    Type
REMARK                         _______ _______ _______ _____ _____    ______ ____
ROOT
ATOM      1  N   UNL     1       1.650   7.176  20.907  0.00  0.00    +0.000 N 
ATOM      2  C   UNL     1       2.194   6.846  19.667  0.00  0.00    +0.000 C 
ATOM      3  O   UNL     1       2.428   7.723  18.842  0.00  0.00    +0.000 OA
ATOM      4  H   UNL     1       1.500   6.511  21.661  0.00  0.00    +0.000 HD
ENDROOT
BRANCH   2   5
ATOM      5  C   UNL     1       2.427   5.341  19.410  0.00  0.00    +0.000 C 
ATOM      6  C   UNL     1       1.594   4.496  20.405  0.00  0.00    +0.000 C 
ATOM      7  C   UNL     1       1.803   2.991  20.156  0.00  0.00    +0.000 C 
ATOM      8  C   UNL     1       1.369   2.643  18.724  0.00  0.00    +0.000 C 
ATOM      9  C   UNL     1       2.204   3.448  17.714  0.00  0.00    +0.000 C 
ATOM     10  C   UNL     1       3.693   3.109  17.897  0.00  0.00    +0.000 C 
ATOM     11  C   UNL     1       4.137   3.461  19.326  0.00  0.00    +0.000 C 
ATOM     12  C   UNL     1       3.293   2.650  20.325  0.00  0.00    +0.000 C 
ATOM     13  C   UNL     1       3.920   4.966  19.578  0.00  0.00    +0.000 C 
ATOM     14  C   UNL     1       1.994   4.953  17.969  0.00  0.00    +0.000 C 
ENDBRANCH   2   5
BRANCH   1  17
ATOM     15  C   UNL     1       0.115   8.903  21.601  0.00  0.00    +0.000 C 
ATOM     16  O   UNL     1      -0.801   8.124  21.844  0.00  0.00    +0.000 OA
ATOM     17  N   UNL     1       1.366   8.528  21.153  0.00  0.00    +0.000 N 
ATOM     18  H   UNL     1       2.159   9.154  21.013  0.00  0.00    +0.000 HD
BRANCH  15  24
ATOM     19  C   UNL     1       1.271  13.579  20.503  0.00  0.00    +0.000 C 
ATOM     20  N   UNL     1       0.440  12.617  21.256  0.00  0.00    +0.000 N 
ATOM     21  C   UNL     1      -0.457  13.079  22.159  0.00  0.00    +0.000 A 
ATOM     22  C   UNL     1      -1.175  12.193  22.953  0.00  0.00    +0.000 A 
ATOM     23  C   UNL     1      -0.987  10.824  22.801  0.00  0.00    +0.000 A 
ATOM     24  C   UNL     1      -0.109  10.356  21.825  0.00  0.00    +0.000 A 
ATOM     25  C   UNL     1       0.616  11.282  21.067  0.00  0.00    +0.000 A 
ENDBRANCH  15  24
ENDBRANCH   1  17
TORSDOF 3
ENDMDL
MODEL 2
REMARK VINA RESULT:      -8.6      0.081      1.556
REMARK  Name = 
REMARK  4 active torsions:
REMARK  status: ('A' for Active; 'I' for Inactive)
REMARK    1  A    between atoms: C_1  and  N_2
REMARK    2  A    between atoms: C_6  and  C_7
REMARK    3  A    between atoms: N_9  and  N_10
REMARK    4  A    between atoms: C_11  and  C_13
REMARK                            x       y       z     vdW  Elec       q    Type
REMARK                         _______ _______ _______ _____ _____    ______ ____
ROOT
ATOM      1  N   UNL     1       1.624   7.194  20.846  0.00  0.00    +0.000 N 
ATOM      2  C   UNL     1       2.235   6.869  19.637  0.00  0.00    +0.000 C 
ATOM      3  O   UNL     1       2.528   7.750  18.836  0.00  0.00    +0.000 OA
ATOM      4  H   UNL     1       1.422   6.524  21.584  0.00  0.00    +0.000 HD
ENDROOT
BRANCH   2   5
ATOM      5  C   UNL     1       2.465   5.364  19.378  0.00  0.00    +0.000 C 
ATOM      6  C   UNL     1       1.991   4.991  17.951  0.00  0.00    +0.000 C 
ATOM      7  C   UNL     1       2.224   3.496  17.669  0.00  0.00    +0.000 C 
ATOM      8  C   UNL     1       3.722   3.178  17.793  0.00  0.00    +0.000 C 
ATOM      9  C   UNL     1       4.212   3.511  19.212  0.00  0.00    +0.000 C 
ATOM     10  C   UNL     1       3.422   2.676  20.234  0.00  0.00    +0.000 C 
ATOM     11  C   UNL     1       1.922   2.993  20.121  0.00  0.00    +0.000 C 
ATOM     12  C   UNL     1       1.447   2.657  18.696  0.00  0.00    +0.000 C 
ATOM     13  C   UNL     1       1.690   4.492  20.396  0.00  0.00    +0.000 C 
ATOM     14  C   UNL     1       3.973   5.008  19.492  0.00  0.00    +0.000 C 
ENDBRANCH   2   5
BRANCH   1  17
ATOM     15  C   UNL     1       0.115   8.919  21.601  0.00  0.00    +0.000 C 
ATOM     16  O   UNL     1      -0.780   8.136  21.905  0.00  0.00    +0.000 OA
ATOM     17  N   UNL     1       1.342   8.547  21.089  0.00  0.00    +0.000 N 
ATOM     18  H   UNL     1       2.121   9.177  20.897  0.00  0.00    +0.000 HD
BRANCH  15  24
ATOM     19  C   UNL     1       1.251  13.588  20.455  0.00  0.00    +0.000 C 
ATOM     20  N   UNL     1       0.431  12.631  21.225  0.00  0.00    +0.000 N 
ATOM     21  C   UNL     1      -0.456  13.098  22.135  0.00  0.00    +0.000 A 
ATOM     22  C   UNL     1      -1.164  12.217  22.944  0.00  0.00    +0.000 A 
ATOM     23  C   UNL     1      -0.975  10.847  22.799  0.00  0.00    +0.000 A 
ATOM     24  C   UNL     1      -0.108  10.373  21.817  0.00  0.00    +0.000 A 
ATOM     25  C   UNL     1       0.606  11.294  21.043  0.00  0.00    +0.000 A 
ENDBRANCH  15  24
ENDBRANCH   1  17
TORSDOF 3
ENDMDL
MODEL 3
REMARK VINA RESULT:      -8.6      0.076      1.589
REMARK  Name = 
REMARK  4 active torsions:
REMARK  status: ('A' for Active; 'I' for Inactive)
REMARK    1  A    between atoms: C_1  and  N_2
REMARK    2  A    between atoms: C_6  and  C_7
REMARK    3  A    between atoms: N_9  and  N_10
REMARK    4  A    between atoms: C_11  and  C_13
REMARK                            x       y       z     vdW  Elec       q    Type
REMARK                         _______ _______ _______ _____ _____    ______ ____
ROOT
ATOM      1  N   UNL     1       1.626   7.185  20.839  0.00  0.00    +0.000 N 
ATOM      2  C   UNL     1       2.249   6.862  19.635  0.00  0.00    +0.000 C 
ATOM      3  O   UNL     1       2.558   7.745  18.842  0.00  0.00    +0.000 OA
ATOM      4  H   UNL     1       1.410   6.514  21.570  0.00  0.00    +0.000 HD
ENDROOT
BRANCH   2   5
ATOM      5  C   UNL     1       2.471   5.356  19.372  0.00  0.00    +0.000 C 
ATOM      6  C   UNL     1       3.976   5.010  19.500  0.00  0.00    +0.000 C 
ATOM      7  C   UNL     1       4.217   3.510  19.254  0.00  0.00    +0.000 C 
ATOM      8  C   UNL     1       3.429   2.688  20.286  0.00  0.00    +0.000 C 
ATOM      9  C   UNL     1       1.927   2.990  20.159  0.00  0.00    +0.000 C 
ATOM     10  C   UNL     1       1.451   2.629  18.741  0.00  0.00    +0.000 C 
ATOM     11  C   UNL     1       2.231   3.453  17.703  0.00  0.00    +0.000 C 
ATOM     12  C   UNL     1       3.731   3.142  17.843  0.00  0.00    +0.000 C 
ATOM     13  C   UNL     1       1.996   4.955  17.955  0.00  0.00    +0.000 C 
ATOM     14  C   UNL     1       1.690   4.494  20.402  0.00  0.00    +0.000 C 
ENDBRANCH   2   5
BRANCH   1  17
ATOM     15  C   UNL     1       0.122   8.917  21.588  0.00  0.00    +0.000 C 
ATOM     16  O   UNL     1      -0.780   8.139  21.882  0.00  0.00    +0.000 OA
ATOM     17  N   UNL     1       1.351   8.540  21.085  0.00  0.00    +0.000 N 
ATOM     18  H   UNL     1       2.135   9.165  20.901  0.00  0.00    +0.000 HD
BRANCH  15  24
ATOM     19  C   UNL     1       1.314  13.583  20.487  0.00  0.00    +0.000 C 
ATOM     20  N   UNL     1       0.473  12.628  21.238  0.00  0.00    +0.000 N 
ATOM     21  C   UNL     1      -0.426  13.098  22.135  0.00  0.00    +0.000 A 
ATOM     22  C   UNL     1      -1.153  12.218  22.928  0.00  0.00    +0.000 A 
ATOM     23  C   UNL     1      -0.973  10.847  22.779  0.00  0.00    +0.000 A 
ATOM     24  C   UNL     1      -0.094  10.372  21.809  0.00  0.00    +0.000 A 
ATOM     25  C   UNL     1       0.641  11.292  21.052  0.00  0.00    +0.000 A 
ENDBRANCH  15  24
ENDBRANCH   1  17
TORSDOF 3
ENDMDL
MODEL 4
REMARK VINA RESULT:      -8.3      0.619      1.413
REMARK  Name = 
REMARK  4 active torsions:
REMARK  status: ('A' for Active; 'I' for Inactive)
REMARK    1  A    between atoms: C_1  and  N_2
REMARK    2  A    between atoms: C_6  and  C_7
REMARK    3  A    between atoms: N_9  and  N_10
REMARK    4  A    between atoms: C_11  and  C_13
REMARK                            x       y       z     vdW  Elec       q    Type
REMARK                         _______ _______ _______ _____ _____    ______ ____
ROOT
ATOM      1  N   UNL     1       1.741   7.086  20.873  0.00  0.00    +0.000 N 
ATOM      2  C   UNL     1       2.225   6.661  19.638  0.00  0.00    +0.000 C 
ATOM      3  O   UNL     1       2.457   7.475  18.750  0.00  0.00    +0.000 OA
ATOM      4  H   UNL     1       1.598   6.476  21.673  0.00  0.00    +0.000 HD
ENDROOT
BRANCH   2   5
ATOM      5  C   UNL     1       2.399   5.135  19.469  0.00  0.00    +0.000 C 
ATOM      6  C   UNL     1       1.575   4.384  20.545  0.00  0.00    +0.000 C 
ATOM      7  C   UNL     1       1.725   2.860  20.385  0.00  0.00    +0.000 C 
ATOM      8  C   UNL     1       1.225   2.439  18.994  0.00  0.00    +0.000 C 
ATOM      9  C   UNL     1       2.049   3.149  17.906  0.00  0.00    +0.000 C 
ATOM     10  C   UNL     1       3.531   2.769  18.058  0.00  0.00    +0.000 C 
ATOM     11  C   UNL     1       4.040   3.193  19.445  0.00  0.00    +0.000 C 
ATOM     12  C   UNL     1       3.207   2.477  20.523  0.00  0.00    +0.000 C 
ATOM     13  C   UNL     1       3.883   4.718  19.608  0.00  0.00    +0.000 C 
ATOM     14  C   UNL     1       1.899   4.673  18.072  0.00  0.00    +0.000 C 
ENDBRANCH   2   5
BRANCH   1  17
ATOM     15  C   UNL     1       0.278   8.910  21.470  0.00  0.00    +0.000 C 
ATOM     16  O   UNL     1      -0.667   8.183  21.759  0.00  0.00    +0.000 OA
ATOM     17  N   UNL     1       1.511   8.461  21.042  0.00  0.00    +0.000 N 
ATOM     18  H   UNL     1       2.328   9.046  20.865  0.00  0.00    +0.000 HD
BRANCH  15  24
ATOM     19  C   UNL     1      -2.141  12.719  23.481  0.00  0.00    +0.000 C 
ATOM     20  N   UNL     1      -1.049  12.216  22.623  0.00  0.00    +0.000 N 
ATOM     21  C   UNL     1      -0.269  13.098  21.955  0.00  0.00    +0.000 A 
ATOM     22  C   UNL     1       0.696  12.649  21.062  0.00  0.00    +0.000 A 
ATOM     23  C   UNL     1       0.876  11.282  20.874  0.00  0.00    +0.000 A 
ATOM     24  C   UNL     1       0.113  10.381  21.612  0.00  0.00    +0.000 A 
ATOM     25  C   UNL     1      -0.868  10.876  22.479  0.00  0.00    +0.000 A 
ENDBRANCH  15  24
ENDBRANCH   1  17
TORSDOF 3
ENDMDL
MODEL 5
REMARK VINA RESULT:      -8.3      0.618      2.101
REMARK  Name = 
REMARK  4 active torsions:
REMARK  status: ('A' for Active; 'I' for Inactive)
REMARK    1  A    between atoms: C_1  and  N_2
REMARK    2  A    between atoms: C_6  and  C_7
REMARK    3  A    between atoms: N_9  and  N_10
REMARK    4  A    between atoms: C_11  and  C_13
REMARK                            x       y       z     vdW  Elec       q    Type
REMARK                         _______ _______ _______ _____ _____    ______ ____
ROOT
ATOM      1  N   UNL     1       1.807   7.090  20.893  0.00  0.00    +0.000 N 
ATOM      2  C   UNL     1       2.208   6.668  19.628  0.00  0.00    +0.000 C 
ATOM      3  O   UNL     1       2.352   7.482  18.722  0.00  0.00    +0.000 OA
ATOM      4  H   UNL     1       1.739   6.481  21.705  0.00  0.00    +0.000 HD
ENDROOT
BRANCH   2   5
ATOM      5  C   UNL     1       2.407   5.146  19.454  0.00  0.00    +0.000 C 
ATOM      6  C   UNL     1       1.929   4.705  18.047  0.00  0.00    +0.000 C 
ATOM      7  C   UNL     1       2.132   3.192  17.849  0.00  0.00    +0.000 C 
ATOM      8  C   UNL     1       3.623   2.851  17.997  0.00  0.00    +0.000 C 
ATOM      9  C   UNL     1       4.115   3.251  19.398  0.00  0.00    +0.000 C 
ATOM     10  C   UNL     1       3.304   2.490  20.460  0.00  0.00    +0.000 C 
ATOM     11  C   UNL     1       1.812   2.832  20.323  0.00  0.00    +0.000 C 
ATOM     12  C   UNL     1       1.334   2.427  18.917  0.00  0.00    +0.000 C 
ATOM     13  C   UNL     1       1.610   4.348  20.514  0.00  0.00    +0.000 C 
ATOM     14  C   UNL     1       3.907   4.765  19.593  0.00  0.00    +0.000 C 
ENDBRANCH   2   5
BRANCH   1  17
ATOM     15  C   UNL     1       0.304   8.888  21.466  0.00  0.00    +0.000 C 
ATOM     16  O   UNL     1      -0.642   8.147  21.714  0.00  0.00    +0.000 OA
ATOM     17  N   UNL     1       1.555   8.459  21.073  0.00  0.00    +0.000 N 
ATOM     18  H   UNL     1       2.370   9.056  20.930  0.00  0.00    +0.000 HD
BRANCH  15  24
ATOM     19  C   UNL     1      -2.177  12.642  23.506  0.00  0.00    +0.000 C 
ATOM     20  N   UNL     1      -1.076  12.163  22.646  0.00  0.00    +0.000 N 
ATOM     21  C   UNL     1      -0.307  13.063  21.989  0.00  0.00    +0.000 A 
ATOM     22  C   UNL     1       0.668  12.636  21.095  0.00  0.00    +0.000 A 
ATOM     23  C   UNL     1       0.868  11.275  20.894  0.00  0.00    +0.000 A 
ATOM     24  C   UNL     1       0.116  10.356  21.622  0.00  0.00    +0.000 A 
ATOM     25  C   UNL     1      -0.874  10.827  22.490  0.00  0.00    +0.000 A 
ENDBRANCH  15  24
ENDBRANCH   1  17
TORSDOF 3
ENDMDL
MODEL 6
REMARK VINA RESULT:      -8.3      0.627      2.125
REMARK  Name = 
REMARK  4 active torsions:
REMARK  status: ('A' for Active; 'I' for Inactive)
REMARK    1  A    between atoms: C_1  and  N_2
REMARK    2  A    between atoms: C_6  and  C_7
REMARK    3  A    between atoms: N_9  and  N_10
REMARK    4  A    between atoms: C_11  and  C_13
REMARK                            x       y       z     vdW  Elec       q    Type
REMARK                         _______ _______ _______ _____ _____    ______ ____
ROOT
ATOM      1  N   UNL     1       1.798   7.073  20.888  0.00  0.00    +0.000 N 
ATOM      2  C   UNL     1       2.183   6.648  19.618  0.00  0.00    +0.000 C 
ATOM      3  O   UNL     1       2.317   7.461  18.709  0.00  0.00    +0.000 OA
ATOM      4  H   UNL     1       1.740   6.466  21.701  0.00  0.00    +0.000 HD
ENDROOT
BRANCH   2   5
ATOM      5  C   UNL     1       2.378   5.126  19.444  0.00  0.00    +0.000 C 
ATOM      6  C   UNL     1       3.874   4.759  19.612  0.00  0.00    +0.000 C 
ATOM      7  C   UNL     1       4.088   3.243  19.455  0.00  0.00    +0.000 C 
ATOM      8  C   UNL     1       3.271   2.497  20.521  0.00  0.00    +0.000 C 
ATOM      9  C   UNL     1       1.776   2.820  20.357  0.00  0.00    +0.000 C 
ATOM     10  C   UNL     1       1.311   2.388  18.956  0.00  0.00    +0.000 C 
ATOM     11  C   UNL     1       2.120   3.136  17.883  0.00  0.00    +0.000 C 
ATOM     12  C   UNL     1       3.612   2.804  18.061  0.00  0.00    +0.000 C 
ATOM     13  C   UNL     1       1.912   4.654  18.046  0.00  0.00    +0.000 C 
ATOM     14  C   UNL     1       1.568   4.340  20.511  0.00  0.00    +0.000 C 
ENDBRANCH   2   5
BRANCH   1  17
ATOM     15  C   UNL     1       0.300   8.876  21.459  0.00  0.00    +0.000 C 
ATOM     16  O   UNL     1      -0.649   8.138  21.704  0.00  0.00    +0.000 OA
ATOM     17  N   UNL     1       1.551   8.443  21.068  0.00  0.00    +0.000 N 
ATOM     18  H   UNL     1       2.368   9.037  20.928  0.00  0.00    +0.000 HD
BRANCH  15  24
ATOM     19  C   UNL     1      -2.198  12.636  23.465  0.00  0.00    +0.000 C 
ATOM     20  N   UNL     1      -1.083  12.155  22.623  0.00  0.00    +0.000 N 
ATOM     21  C   UNL     1      -0.298  13.053  21.982  0.00  0.00    +0.000 A 
ATOM     22  C   UNL     1       0.689  12.624  21.105  0.00  0.00    +0.000 A 
ATOM     23  C   UNL     1       0.887  11.261  20.904  0.00  0.00    +0.000 A 
ATOM     24  C   UNL     1       0.118  10.344  21.615  0.00  0.00    +0.000 A 
ATOM     25  C   UNL     1      -0.886  10.818  22.468  0.00  0.00    +0.000 A 
ENDBRANCH  15  24
ENDBRANCH   1  17
TORSDOF 3
ENDMDL
MODEL 7
REMARK VINA RESULT:      -7.9      1.218      2.174
REMARK  Name = 
REMARK  4 active torsions:
REMARK  status: ('A' for Active; 'I' for Inactive)
REMARK    1  A    between atoms: C_1  and  N_2
REMARK    2  A    between atoms: C_6  and  C_7
REMARK    3  A    between atoms: N_9  and  N_10
REMARK    4  A    between atoms: C_11  and  C_13
REMARK                            x       y       z     vdW  Elec       q    Type
REMARK                         _______ _______ _______ _____ _____    ______ ____
ROOT
ATOM      1  N   UNL     1       2.311   6.857  20.344  0.00  0.00    +0.000 N 
ATOM      2  C   UNL     1       1.731   5.597  20.211  0.00  0.00    +0.000 C 
ATOM      3  O   UNL     1       0.632   5.367  20.706  0.00  0.00    +0.000 OA
ATOM      4  H   UNL     1       3.180   7.137  19.900  0.00  0.00    +0.000 HD
ENDROOT
BRANCH   2   5
ATOM      5  C   UNL     1       2.570   4.543  19.457  0.00  0.00    +0.000 C 
ATOM      6  C   UNL     1       2.225   4.570  17.946  0.00  0.00    +0.000 C 
ATOM      7  C   UNL     1       3.061   3.534  17.174  0.00  0.00    +0.000 C 
ATOM      8  C   UNL     1       4.556   3.849  17.348  0.00  0.00    +0.000 C 
ATOM      9  C   UNL     1       4.930   3.797  18.839  0.00  0.00    +0.000 C 
ATOM     10  C   UNL     1       4.631   2.394  19.392  0.00  0.00    +0.000 C 
ATOM     11  C   UNL     1       3.136   2.075  19.228  0.00  0.00    +0.000 C 
ATOM     12  C   UNL     1       2.776   2.131  17.733  0.00  0.00    +0.000 C 
ATOM     13  C   UNL     1       2.299   3.117  19.995  0.00  0.00    +0.000 C 
ATOM     14  C   UNL     1       4.089   4.833  19.608  0.00  0.00    +0.000 C 
ENDBRANCH   2   5
BRANCH   1  17
ATOM     15  C   UNL     1       1.113   8.949  20.448  0.00  0.00    +0.000 C 
ATOM     16  O   UNL     1       1.214   9.176  19.247  0.00  0.00    +0.000 OA
ATOM     17  N   UNL     1       1.605   7.823  21.078  0.00  0.00    +0.000 N 
ATOM     18  H   UNL     1       1.469   7.586  22.061  0.00  0.00    +0.000 HD
BRANCH  15  24
ATOM     19  C   UNL     1      -0.001  13.653  21.467  0.00  0.00    +0.000 C 
ATOM     20  N   UNL     1      -0.169  12.214  21.757  0.00  0.00    +0.000 N 
ATOM     21  C   UNL     1      -0.929  11.834  22.812  0.00  0.00    +0.000 A 
ATOM     22  C   UNL     1      -1.018  10.494  23.168  0.00  0.00    +0.000 A 
ATOM     23  C   UNL     1      -0.340   9.537  22.419  0.00  0.00    +0.000 A 
ATOM     24  C   UNL     1       0.388   9.930  21.299  0.00  0.00    +0.000 A 
ATOM     25  C   UNL     1       0.475  11.293  20.992  0.00  0.00    +0.000 A 
ENDBRANCH  15  24
ENDBRANCH   1  17
TORSDOF 3
ENDMDL
MODEL 8
REMARK VINA RESULT:      -7.9      1.208      1.525
REMARK  Name = 
REMARK  4 active torsions:
REMARK  status: ('A' for Active; 'I' for Inactive)
REMARK    1  A    between atoms: C_1  and  N_2
REMARK    2  A    between atoms: C_6  and  C_7
REMARK    3  A    between atoms: N_9  and  N_10
REMARK    4  A    between atoms: C_11  and  C_13
REMARK                            x       y       z     vdW  Elec       q    Type
REMARK                         _______ _______ _______ _____ _____    ______ ____
ROOT
ATOM      1  N   UNL     1       2.337   6.975  20.356  0.00  0.00    +0.000 N 
ATOM      2  C   UNL     1       1.747   5.720  20.226  0.00  0.00    +0.000 C 
ATOM      3  O   UNL     1       0.648   5.498  20.725  0.00  0.00    +0.000 OA
ATOM      4  H   UNL     1       3.207   7.248  19.908  0.00  0.00    +0.000 HD
ENDROOT
BRANCH   2   5
ATOM      5  C   UNL     1       2.574   4.658  19.469  0.00  0.00    +0.000 C 
ATOM      6  C   UNL     1       2.311   3.253  20.067  0.00  0.00    +0.000 C 
ATOM      7  C   UNL     1       3.117   2.178  19.317  0.00  0.00    +0.000 C 
ATOM      8  C   UNL     1       2.710   2.172  17.835  0.00  0.00    +0.000 C 
ATOM      9  C   UNL     1       2.991   3.549  17.210  0.00  0.00    +0.000 C 
ATOM     10  C   UNL     1       4.491   3.868  17.330  0.00  0.00    +0.000 C 
ATOM     11  C   UNL     1       4.904   3.883  18.811  0.00  0.00    +0.000 C 
ATOM     12  C   UNL     1       4.617   2.500  19.423  0.00  0.00    +0.000 C 
ATOM     13  C   UNL     1       4.091   4.954  19.563  0.00  0.00    +0.000 C 
ATOM     14  C   UNL     1       2.184   4.622  17.966  0.00  0.00    +0.000 C 
ENDBRANCH   2   5
BRANCH   1  17
ATOM     15  C   UNL     1       1.063   9.023  20.447  0.00  0.00    +0.000 C 
ATOM     16  O   UNL     1       1.076   9.197  19.233  0.00  0.00    +0.000 OA
ATOM     17  N   UNL     1       1.641   7.947  21.092  0.00  0.00    +0.000 N 
ATOM     18  H   UNL     1       1.580   7.751  22.091  0.00  0.00    +0.000 HD
BRANCH  15  24
ATOM     19  C   UNL     1       0.105  13.745  21.533  0.00  0.00    +0.000 C 
ATOM     20  N   UNL     1      -0.125  12.309  21.791  0.00  0.00    +0.000 N 
ATOM     21  C   UNL     1      -0.924  11.938  22.820  0.00  0.00    +0.000 A 
ATOM     22  C   UNL     1      -1.072  10.596  23.146  0.00  0.00    +0.000 A 
ATOM     23  C   UNL     1      -0.413   9.628  22.395  0.00  0.00    +0.000 A 
ATOM     24  C   UNL     1       0.356  10.014  21.300  0.00  0.00    +0.000 A 
ATOM     25  C   UNL     1       0.502  11.378  21.023  0.00  0.00    +0.000 A 
ENDBRANCH  15  24
ENDBRANCH   1  17
TORSDOF 3
ENDMDL
MODEL 9
REMARK VINA RESULT:      -7.9      7.491     10.687
REMARK  Name = 
REMARK  4 active torsions:
REMARK  status: ('A' for Active; 'I' for Inactive)
REMARK    1  A    between atoms: C_1  and  N_2
REMARK    2  A    between atoms: C_6  and  C_7
REMARK    3  A    between atoms: N_9  and  N_10
REMARK    4  A    between atoms: C_11  and  C_13
REMARK                            x       y       z     vdW  Elec       q    Type
REMARK                         _______ _______ _______ _____ _____    ______ ____
ROOT
ATOM      1  N   UNL     1       8.581   9.176  18.201  0.00  0.00    +0.000 N 
ATOM      2  C   UNL     1       8.456  10.535  17.924  0.00  0.00    +0.000 C 
ATOM      3  O   UNL     1       7.558  10.936  17.190  0.00  0.00    +0.000 OA
ATOM      4  H   UNL     1       9.253   8.785  18.855  0.00  0.00    +0.000 HD
ENDROOT
BRANCH   2   5
ATOM      5  C   UNL     1       9.523  11.456  18.556  0.00  0.00    +0.000 C 
ATOM      6  C   UNL     1      10.836  11.388  17.737  0.00  0.00    +0.000 C 
ATOM      7  C   UNL     1      11.909  12.310  18.344  0.00  0.00    +0.000 C 
ATOM      8  C   UNL     1      11.399  13.759  18.345  0.00  0.00    +0.000 C 
ATOM      9  C   UNL     1      10.111  13.860  19.178  0.00  0.00    +0.000 C 
ATOM     10  C   UNL     1      10.399  13.415  20.621  0.00  0.00    +0.000 C 
ATOM     11  C   UNL     1      10.904  11.963  20.630  0.00  0.00    +0.000 C 
ATOM     12  C   UNL     1      12.192  11.877  19.792  0.00  0.00    +0.000 C 
ATOM     13  C   UNL     1       9.832  11.041  20.014  0.00  0.00    +0.000 C 
ATOM     14  C   UNL     1       9.041  12.933  18.569  0.00  0.00    +0.000 C 
ENDBRANCH   2   5
BRANCH   1  17
ATOM     15  C   UNL     1       7.565   6.995  18.027  0.00  0.00    +0.000 C 
ATOM     16  O   UNL     1       8.207   6.516  18.956  0.00  0.00    +0.000 OA
ATOM     17  N   UNL     1       7.667   8.301  17.593  0.00  0.00    +0.000 N 
ATOM     18  H   UNL     1       7.092   8.734  16.870  0.00  0.00    +0.000 HD
BRANCH  15  24
ATOM     19  C   UNL     1       6.463   4.129  14.157  0.00  0.00    +0.000 C 
ATOM     20  N   UNL     1       6.076   4.716  15.456  0.00  0.00    +0.000 N 
ATOM     21  C   UNL     1       4.830   4.496  15.940  0.00  0.00    +0.000 A 
ATOM     22  C   UNL     1       4.408   5.121  17.106  0.00  0.00    +0.000 A 
ATOM     23  C   UNL     1       5.281   5.959  17.793  0.00  0.00    +0.000 A 
ATOM     24  C   UNL     1       6.581   6.130  17.322  0.00  0.00    +0.000 A 
ATOM     25  C   UNL     1       6.957   5.505  16.128  0.00  0.00    +0.000 A 
ENDBRANCH  15  24
ENDBRANCH   1  17
TORSDOF 3
ENDMDL
