MODEL 1
REMARK VINA RESULT:      -8.0      0.000      0.000
REMARK  Name = 
REMARK  6 active torsions:
REMARK  status: ('A' for Active; 'I' for Inactive)
REMARK    1  A    between atoms: C_1  and  O_2
REMARK    2  A    between atoms: O_2  and  C_3
REMARK    3  A    between atoms: C_6  and  N_7
REMARK    4  A    between atoms: N_7  and  C_8
REMARK    5  A    between atoms: C_20  and  O_21
REMARK    6  A    between atoms: O_21  and  C_22
REMARK                            x       y       z     vdW  Elec       q    Type
REMARK                         _______ _______ _______ _____ _____    ______ ____
ROOT
ATOM      1  C   UNL     1       3.053   6.249  18.878  0.00  0.00    +0.000 A 
ATOM      2  C   UNL     1       2.427   7.511  18.940  0.00  0.00    +0.000 A 
ATOM      3  C   UNL     1       2.482   8.448  17.913  0.00  0.00    +0.000 A 
ATOM      4  C   UNL     1       1.843   9.677  18.072  0.00  0.00    +0.000 A 
ATOM      5  C   UNL     1       1.131   9.967  19.255  0.00  0.00    +0.000 A 
ATOM      6 CL   UNL     1       0.337  11.515  19.449  0.00  0.00    +0.000 Cl
ATOM      7  C   UNL     1       1.007   9.000  20.239  0.00  0.00    +0.000 A 
ATOM      8  C   UNL     1       1.639   7.755  20.081  0.00  0.00    +0.000 A 
ATOM      9  N   UNL     1       1.257   6.702  20.813  0.00  0.00    +0.000 NA
ATOM     10  C   UNL     1       1.883   5.508  20.590  0.00  0.00    +0.000 A 
ATOM     11  C   UNL     1       1.084   4.363  20.247  0.00  0.00    +0.000 A 
ATOM     12  C   UNL     1       1.690   3.182  19.783  0.00  0.00    +0.000 A 
ATOM     13  C   UNL     1       3.080   3.068  19.871  0.00  0.00    +0.000 A 
ATOM     14  C   UNL     1       3.783   4.229  20.100  0.00  0.00    +0.000 A 
ATOM     15  C   UNL     1       3.163   5.482  20.106  0.00  0.00    +0.000 A 
ENDROOT
BRANCH   1  16
ATOM     16  N   UNL     1       3.071   5.587  17.594  0.00  0.00    +0.000 N 
ATOM     17  H   UNL     1       2.289   5.772  16.953  0.00  0.00    +0.000 HD
BRANCH  16  21
ATOM     18  C   UNL     1       6.766   5.277  15.313  0.00  0.00    +0.000 A 
ATOM     19  C   UNL     1       6.695   6.182  16.379  0.00  0.00    +0.000 A 
ATOM     20  C   UNL     1       5.526   6.263  17.154  0.00  0.00    +0.000 A 
ATOM     21  C   UNL     1       4.389   5.445  16.918  0.00  0.00    +0.000 A 
ATOM     22  C   UNL     1       4.515   4.488  15.878  0.00  0.00    +0.000 A 
ATOM     23  C   UNL     1       5.690   4.414  15.106  0.00  0.00    +0.000 A 
BRANCH  18  25
ATOM     24  C   UNL     1       7.775   5.106  13.048  0.00  0.00    +0.000 C 
ATOM     25  O   UNL     1       7.811   5.214  14.432  0.00  0.00    +0.000 OA
ENDBRANCH  18  25
ENDBRANCH  16  21
ENDBRANCH   1  16
BRANCH  13  26
ATOM     26  O   UNL     1       3.764   1.911  19.836  0.00  0.00    +0.000 OA
ATOM     27  C   UNL     1       3.972   1.111  18.737  0.00  0.00    +0.000 C 
ENDBRANCH  13  26
TORSDOF 4
ENDMDL
MODEL 2
REMARK VINA RESULT:      -7.8      3.233      6.187
REMARK  Name = 
REMARK  6 active torsions:
REMARK  status: ('A' for Active; 'I' for Inactive)
REMARK    1  A    between atoms: C_1  and  O_2
REMARK    2  A    between atoms: O_2  and  C_3
REMARK    3  A    between atoms: C_6  and  N_7
REMARK    4  A    between atoms: N_7  and  C_8
REMARK    5  A    between atoms: C_20  and  O_21
REMARK    6  A    between atoms: O_21  and  C_22
REMARK                            x       y       z     vdW  Elec       q    Type
REMARK                         _______ _______ _______ _____ _____    ______ ____
ROOT
ATOM      1  C   UNL     1       3.469   5.089  17.803  0.00  0.00    +0.000 A 
ATOM      2  C   UNL     1       4.432   5.171  16.777  0.00  0.00    +0.000 A 
ATOM      3  C   UNL     1       5.009   6.367  16.359  0.00  0.00    +0.000 A 
ATOM      4  C   UNL     1       5.943   6.350  15.324  0.00  0.00    +0.000 A 
ATOM      5  C   UNL     1       6.316   5.135  14.714  0.00  0.00    +0.000 A 
ATOM      6 CL   UNL     1       7.485   5.124  13.411  0.00  0.00    +0.000 Cl
ATOM      7  C   UNL     1       5.804   3.938  15.190  0.00  0.00    +0.000 A 
ATOM      8  C   UNL     1       4.870   3.946  16.239  0.00  0.00    +0.000 A 
ATOM      9  N   UNL     1       4.634   2.835  16.946  0.00  0.00    +0.000 NA
ATOM     10  C   UNL     1       3.743   2.911  17.980  0.00  0.00    +0.000 A 
ATOM     11  C   UNL     1       4.175   2.522  19.294  0.00  0.00    +0.000 A 
ATOM     12  C   UNL     1       3.379   2.800  20.420  0.00  0.00    +0.000 A 
ATOM     13  C   UNL     1       2.075   3.259  20.215  0.00  0.00    +0.000 A 
ATOM     14  C   UNL     1       1.769   3.711  18.952  0.00  0.00    +0.000 A 
ATOM     15  C   UNL     1       2.740   3.842  17.956  0.00  0.00    +0.000 A 
ENDROOT
BRANCH   1  16
ATOM     16  N   UNL     1       3.620   5.992  18.921  0.00  0.00    +0.000 N 
ATOM     17  H   UNL     1       4.577   6.235  19.209  0.00  0.00    +0.000 HD
BRANCH  16  21
ATOM     18  C   UNL     1       1.005   9.428  19.470  0.00  0.00    +0.000 A 
ATOM     19  C   UNL     1       1.555   9.184  18.206  0.00  0.00    +0.000 A 
ATOM     20  C   UNL     1       2.365   8.054  18.000  0.00  0.00    +0.000 A 
ATOM     21  C   UNL     1       2.650   7.115  19.027  0.00  0.00    +0.000 A 
ATOM     22  C   UNL     1       2.021   7.349  20.277  0.00  0.00    +0.000 A 
ATOM     23  C   UNL     1       1.212   8.483  20.475  0.00  0.00    +0.000 A 
BRANCH  18  25
ATOM     24  C   UNL     1      -0.851  11.062  19.219  0.00  0.00    +0.000 C 
ATOM     25  O   UNL     1       0.309  10.560  19.795  0.00  0.00    +0.000 OA
ENDBRANCH  18  25
ENDBRANCH  16  21
ENDBRANCH   1  16
BRANCH  13  26
ATOM     26  O   UNL     1       1.087   3.209  21.126  0.00  0.00    +0.000 OA
ATOM     27  C   UNL     1       1.068   2.460  22.279  0.00  0.00    +0.000 C 
ENDBRANCH  13  26
TORSDOF 4
ENDMDL
MODEL 3
REMARK VINA RESULT:      -6.4      5.336      8.154
REMARK  Name = 
REMARK  6 active torsions:
REMARK  status: ('A' for Active; 'I' for Inactive)
REMARK    1  A    between atoms: C_1  and  O_2
REMARK    2  A    between atoms: O_2  and  C_3
REMARK    3  A    between atoms: C_6  and  N_7
REMARK    4  A    between atoms: N_7  and  C_8
REMARK    5  A    between atoms: C_20  and  O_21
REMARK    6  A    between atoms: O_21  and  C_22
REMARK                            x       y       z     vdW  Elec       q    Type
REMARK                         _______ _______ _______ _____ _____    ______ ____
ROOT
ATOM      1  C   UNL     1      -1.104  11.461  19.829  0.00  0.00    +0.000 A 
ATOM      2  C   UNL     1      -1.725  12.222  20.841  0.00  0.00    +0.000 A 
ATOM      3  C   UNL     1      -3.080  12.540  20.841  0.00  0.00    +0.000 A 
ATOM      4  C   UNL     1      -3.601  13.311  21.879  0.00  0.00    +0.000 A 
ATOM      5  C   UNL     1      -2.771  13.754  22.930  0.00  0.00    +0.000 A 
ATOM      6 CL   UNL     1      -3.433  14.727  24.226  0.00  0.00    +0.000 Cl
ATOM      7  C   UNL     1      -1.442  13.363  22.971  0.00  0.00    +0.000 A 
ATOM      8  C   UNL     1      -0.912  12.577  21.934  0.00  0.00    +0.000 A 
ATOM      9  N   UNL     1       0.227  11.899  22.111  0.00  0.00    +0.000 NA
ATOM     10  C   UNL     1       0.676  11.121  21.080  0.00  0.00    +0.000 A 
ATOM     11  C   UNL     1       0.912   9.724  21.321  0.00  0.00    +0.000 A 
ATOM     12  C   UNL     1       1.146   8.844  20.250  0.00  0.00    +0.000 A 
ATOM     13  C   UNL     1       1.360   9.384  18.979  0.00  0.00    +0.000 A 
ATOM     14  C   UNL     1       1.012  10.703  18.801  0.00  0.00    +0.000 A 
ATOM     15  C   UNL     1       0.348  11.435  19.789  0.00  0.00    +0.000 A 
ENDROOT
BRANCH   1  16
ATOM     16  N   UNL     1      -1.874  10.384  19.250  0.00  0.00    +0.000 N 
ATOM     17  H   UNL     1      -2.494   9.854  19.875  0.00  0.00    +0.000 HD
BRANCH  16  21
ATOM     18  C   UNL     1      -3.601  10.665  15.264  0.00  0.00    +0.000 A 
ATOM     19  C   UNL     1      -4.099  11.486  16.283  0.00  0.00    +0.000 A 
ATOM     20  C   UNL     1      -3.523  11.440  17.565  0.00  0.00    +0.000 A 
ATOM     21  C   UNL     1      -2.426  10.597  17.885  0.00  0.00    +0.000 A 
ATOM     22  C   UNL     1      -1.896   9.830  16.815  0.00  0.00    +0.000 A 
ATOM     23  C   UNL     1      -2.480   9.881  15.535  0.00  0.00    +0.000 A 
BRANCH  18  25
ATOM     24  C   UNL     1      -3.803   9.730  12.970  0.00  0.00    +0.000 C 
ATOM     25  O   UNL     1      -4.173  10.552  14.026  0.00  0.00    +0.000 OA
ENDBRANCH  18  25
ENDBRANCH  16  21
ENDBRANCH   1  16
BRANCH  13  26
ATOM     26  O   UNL     1       1.955   8.743  17.958  0.00  0.00    +0.000 OA
ATOM     27  C   UNL     1       2.649   7.558  18.022  0.00  0.00    +0.000 C 
ENDBRANCH  13  26
TORSDOF 4
ENDMDL
MODEL 4
REMARK VINA RESULT:      -6.3      7.358     10.645
REMARK  Name = 
REMARK  6 active torsions:
REMARK  status: ('A' for Active; 'I' for Inactive)
REMARK    1  A    between atoms: C_1  and  O_2
REMARK    2  A    between atoms: O_2  and  C_3
REMARK    3  A    between atoms: C_6  and  N_7
REMARK    4  A    between atoms: N_7  and  C_8
REMARK    5  A    between atoms: C_20  and  O_21
REMARK    6  A    between atoms: O_21  and  C_22
REMARK                            x       y       z     vdW  Elec       q    Type
REMARK                         _______ _______ _______ _____ _____    ______ ____
ROOT
ATOM      1  C   UNL     1      -4.787  12.036  19.999  0.00  0.00    +0.000 A 
ATOM      2  C   UNL     1      -5.463  12.517  21.139  0.00  0.00    +0.000 A 
ATOM      3  C   UNL     1      -4.817  13.074  22.239  0.00  0.00    +0.000 A 
ATOM      4  C   UNL     1      -5.571  13.508  23.328  0.00  0.00    +0.000 A 
ATOM      5  C   UNL     1      -6.977  13.401  23.315  0.00  0.00    +0.000 A 
ATOM      6 CL   UNL     1      -7.916  13.943  24.689  0.00  0.00    +0.000 Cl
ATOM      7  C   UNL     1      -7.622  12.925  22.184  0.00  0.00    +0.000 A 
ATOM      8  C   UNL     1      -6.869  12.495  21.079  0.00  0.00    +0.000 A 
ATOM      9  N   UNL     1      -7.440  12.375  19.875  0.00  0.00    +0.000 NA
ATOM     10  C   UNL     1      -6.650  11.988  18.828  0.00  0.00    +0.000 A 
ATOM     11  C   UNL     1      -6.584  12.831  17.666  0.00  0.00    +0.000 A 
ATOM     12  C   UNL     1      -5.617  12.601  16.671  0.00  0.00    +0.000 A 
ATOM     13  C   UNL     1      -4.874  11.418  16.725  0.00  0.00    +0.000 A 
ATOM     14  C   UNL     1      -4.908  10.721  17.911  0.00  0.00    +0.000 A 
ATOM     15  C   UNL     1      -5.534  11.228  19.052  0.00  0.00    +0.000 A 
ENDROOT
BRANCH   1  16
ATOM     16  N   UNL     1      -3.612  12.764  19.577  0.00  0.00    +0.000 N 
ATOM     17  H   UNL     1      -3.630  13.788  19.666  0.00  0.00    +0.000 HD
BRANCH  16  21
ATOM     18  C   UNL     1       0.104  10.791  20.695  0.00  0.00    +0.000 A 
ATOM     19  C   UNL     1      -0.418  10.588  19.412  0.00  0.00    +0.000 A 
ATOM     20  C   UNL     1      -1.593  11.252  19.019  0.00  0.00    +0.000 A 
ATOM     21  C   UNL     1      -2.288  12.153  19.869  0.00  0.00    +0.000 A 
ATOM     22  C   UNL     1      -1.697  12.395  21.136  0.00  0.00    +0.000 A 
ATOM     23  C   UNL     1      -0.521  11.724  21.522  0.00  0.00    +0.000 A 
BRANCH  18  25
ATOM     24  C   UNL     1       1.176   9.136  22.208  0.00  0.00    +0.000 C 
ATOM     25  O   UNL     1       1.167  10.098  21.207  0.00  0.00    +0.000 OA
ENDBRANCH  18  25
ENDBRANCH  16  21
ENDBRANCH   1  16
BRANCH  13  26
ATOM     26  O   UNL     1      -4.209  10.876  15.691  0.00  0.00    +0.000 OA
ATOM     27  C   UNL     1      -2.845  10.789  15.544  0.00  0.00    +0.000 C 
ENDBRANCH  13  26
TORSDOF 4
ENDMDL
MODEL 5
REMARK VINA RESULT:      -6.2      7.505      9.399
REMARK  Name = 
REMARK  6 active torsions:
REMARK  status: ('A' for Active; 'I' for Inactive)
REMARK    1  A    between atoms: C_1  and  O_2
REMARK    2  A    between atoms: O_2  and  C_3
REMARK    3  A    between atoms: C_6  and  N_7
REMARK    4  A    between atoms: N_7  and  C_8
REMARK    5  A    between atoms: C_20  and  O_21
REMARK    6  A    between atoms: O_21  and  C_22
REMARK                            x       y       z     vdW  Elec       q    Type
REMARK                         _______ _______ _______ _____ _____    ______ ____
ROOT
ATOM      1  C   UNL     1      -0.091  12.301  21.119  0.00  0.00    +0.000 A 
ATOM      2  C   UNL     1       0.743  12.940  20.178  0.00  0.00    +0.000 A 
ATOM      3  C   UNL     1       1.536  12.254  19.263  0.00  0.00    +0.000 A 
ATOM      4  C   UNL     1       2.340  12.973  18.381  0.00  0.00    +0.000 A 
ATOM      5  C   UNL     1       2.342  14.383  18.399  0.00  0.00    +0.000 A 
ATOM      6 CL   UNL     1       3.359  15.279  17.291  0.00  0.00    +0.000 Cl
ATOM      7  C   UNL     1       1.487  15.063  19.253  0.00  0.00    +0.000 A 
ATOM      8  C   UNL     1       0.666  14.345  20.138  0.00  0.00    +0.000 A 
ATOM      9  N   UNL     1      -0.398  14.929  20.702  0.00  0.00    +0.000 NA
ATOM     10  C   UNL     1      -1.181  14.170  21.526  0.00  0.00    +0.000 A 
ATOM     11  C   UNL     1      -2.584  14.056  21.232  0.00  0.00    +0.000 A 
ATOM     12  C   UNL     1      -3.380  13.112  21.903  0.00  0.00    +0.000 A 
ATOM     13  C   UNL     1      -2.836  12.445  23.005  0.00  0.00    +0.000 A 
ATOM     14  C   UNL     1      -1.471  12.517  23.159  0.00  0.00    +0.000 A 
ATOM     15  C   UNL     1      -0.645  13.104  22.195  0.00  0.00    +0.000 A 
ENDROOT
BRANCH   1  16
ATOM     16  N   UNL     1      -0.747  11.085  20.697  0.00  0.00    +0.000 N 
ATOM     17  H   UNL     1      -1.250  10.544  21.413  0.00  0.00    +0.000 HD
BRANCH  16  21
ATOM     18  C   UNL     1      -2.800  10.776  16.871  0.00  0.00    +0.000 A 
ATOM     19  C   UNL     1      -3.213  11.747  17.791  0.00  0.00    +0.000 A 
ATOM     20  C   UNL     1      -2.532  11.891  19.012  0.00  0.00    +0.000 A 
ATOM     21  C   UNL     1      -1.411  11.094  19.366  0.00  0.00    +0.000 A 
ATOM     22  C   UNL     1      -0.971  10.168  18.385  0.00  0.00    +0.000 A 
ATOM     23  C   UNL     1      -1.659  10.030  17.165  0.00  0.00    +0.000 A 
BRANCH  18  25
ATOM     24  C   UNL     1      -2.959  10.081  14.490  0.00  0.00    +0.000 C 
ATOM     25  O   UNL     1      -3.472  10.482  15.716  0.00  0.00    +0.000 OA
ENDBRANCH  18  25
ENDBRANCH  16  21
ENDBRANCH   1  16
BRANCH  13  26
ATOM     26  O   UNL     1      -3.548  11.821  23.959  0.00  0.00    +0.000 OA
ATOM     27  C   UNL     1      -4.482  12.390  24.793  0.00  0.00    +0.000 C 
ENDBRANCH  13  26
TORSDOF 4
ENDMDL
MODEL 6
REMARK VINA RESULT:      -6.1      3.239      6.763
REMARK  Name = 
REMARK  6 active torsions:
REMARK  status: ('A' for Active; 'I' for Inactive)
REMARK    1  A    between atoms: C_1  and  O_2
REMARK    2  A    between atoms: O_2  and  C_3
REMARK    3  A    between atoms: C_6  and  N_7
REMARK    4  A    between atoms: N_7  and  C_8
REMARK    5  A    between atoms: C_20  and  O_21
REMARK    6  A    between atoms: O_21  and  C_22
REMARK                            x       y       z     vdW  Elec       q    Type
REMARK                         _______ _______ _______ _____ _____    ______ ____
ROOT
ATOM      1  C   UNL     1       4.017   5.733  18.271  0.00  0.00    +0.000 A 
ATOM      2  C   UNL     1       3.150   4.628  18.401  0.00  0.00    +0.000 A 
ATOM      3  C   UNL     1       1.779   4.747  18.609  0.00  0.00    +0.000 A 
ATOM      4  C   UNL     1       1.005   3.595  18.739  0.00  0.00    +0.000 A 
ATOM      5  C   UNL     1       1.597   2.319  18.646  0.00  0.00    +0.000 A 
ATOM      6 CL   UNL     1       0.618   0.878  18.817  0.00  0.00    +0.000 Cl
ATOM      7  C   UNL     1       2.947   2.204  18.354  0.00  0.00    +0.000 A 
ATOM      8  C   UNL     1       3.731   3.361  18.210  0.00  0.00    +0.000 A 
ATOM      9  N   UNL     1       4.917   3.304  17.591  0.00  0.00    +0.000 NA
ATOM     10  C   UNL     1       5.620   4.467  17.448  0.00  0.00    +0.000 A 
ATOM     11  C   UNL     1       6.013   4.879  16.128  0.00  0.00    +0.000 A 
ATOM     12  C   UNL     1       6.526   6.168  15.905  0.00  0.00    +0.000 A 
ATOM     13  C   UNL     1       6.850   6.957  17.013  0.00  0.00    +0.000 A 
ATOM     14  C   UNL     1       6.348   6.552  18.228  0.00  0.00    +0.000 A 
ATOM     15  C   UNL     1       5.447   5.490  18.341  0.00  0.00    +0.000 A 
ENDROOT
BRANCH   1  16
ATOM     16  N   UNL     1       3.503   6.895  17.584  0.00  0.00    +0.000 N 
ATOM     17  H   UNL     1       3.207   6.777  16.607  0.00  0.00    +0.000 HD
BRANCH  16  21
ATOM     18  C   UNL     1       0.735   9.536  19.661  0.00  0.00    +0.000 A 
ATOM     19  C   UNL     1       1.340   8.489  20.367  0.00  0.00    +0.000 A 
ATOM     20  C   UNL     1       2.270   7.655  19.723  0.00  0.00    +0.000 A 
ATOM     21  C   UNL     1       2.650   7.830  18.366  0.00  0.00    +0.000 A 
ATOM     22  C   UNL     1       2.076   8.942  17.697  0.00  0.00    +0.000 A 
ATOM     23  C   UNL     1       1.144   9.772  18.349  0.00  0.00    +0.000 A 
BRANCH  18  25
ATOM     24  C   UNL     1      -0.928  11.380  19.561  0.00  0.00    +0.000 C 
ATOM     25  O   UNL     1      -0.267  10.319  20.166  0.00  0.00    +0.000 OA
ENDBRANCH  18  25
ENDBRANCH  16  21
ENDBRANCH   1  16
BRANCH  13  26
ATOM     26  O   UNL     1       7.675   8.018  16.990  0.00  0.00    +0.000 OA
ATOM     27  C   UNL     1       8.260   8.628  18.075  0.00  0.00    +0.000 C 
ENDBRANCH  13  26
TORSDOF 4
ENDMDL
MODEL 7
REMARK VINA RESULT:      -6.1      9.541     12.338
REMARK  Name = 
REMARK  6 active torsions:
REMARK  status: ('A' for Active; 'I' for Inactive)
REMARK    1  A    between atoms: C_1  and  O_2
REMARK    2  A    between atoms: O_2  and  C_3
REMARK    3  A    between atoms: C_6  and  N_7
REMARK    4  A    between atoms: N_7  and  C_8
REMARK    5  A    between atoms: C_20  and  O_21
REMARK    6  A    between atoms: O_21  and  C_22
REMARK                            x       y       z     vdW  Elec       q    Type
REMARK                         _______ _______ _______ _____ _____    ______ ____
ROOT
ATOM      1  C   UNL     1      -4.804  12.651  20.252  0.00  0.00    +0.000 A 
ATOM      2  C   UNL     1      -4.278  12.141  19.047  0.00  0.00    +0.000 A 
ATOM      3  C   UNL     1      -2.940  11.802  18.875  0.00  0.00    +0.000 A 
ATOM      4  C   UNL     1      -2.509  11.319  17.640  0.00  0.00    +0.000 A 
ATOM      5  C   UNL     1      -3.421  11.158  16.576  0.00  0.00    +0.000 A 
ATOM      6 CL   UNL     1      -2.871  10.557  15.027  0.00  0.00    +0.000 Cl
ATOM      7  C   UNL     1      -4.767  11.416  16.777  0.00  0.00    +0.000 A 
ATOM      8  C   UNL     1      -5.210  11.893  18.022  0.00  0.00    +0.000 A 
ATOM      9  N   UNL     1      -6.503  11.811  18.359  0.00  0.00    +0.000 NA
ATOM     10  C   UNL     1      -6.870  12.257  19.598  0.00  0.00    +0.000 A 
ATOM     11  C   UNL     1      -7.556  11.354  20.481  0.00  0.00    +0.000 A 
ATOM     12  C   UNL     1      -7.745  11.684  21.835  0.00  0.00    +0.000 A 
ATOM     13  C   UNL     1      -7.451  12.986  22.250  0.00  0.00    +0.000 A 
ATOM     14  C   UNL     1      -6.700  13.755  21.390  0.00  0.00    +0.000 A 
ATOM     15  C   UNL     1      -6.137  13.228  20.225  0.00  0.00    +0.000 A 
ENDROOT
BRANCH   1  16
ATOM     16  N   UNL     1      -4.257  12.126  21.482  0.00  0.00    +0.000 N 
ATOM     17  H   UNL     1      -4.081  11.115  21.531  0.00  0.00    +0.000 HD
BRANCH  16  21
ATOM     18  C   UNL     1      -1.428  14.446  23.841  0.00  0.00    +0.000 A 
ATOM     19  C   UNL     1      -0.954  13.398  23.044  0.00  0.00    +0.000 A 
ATOM     20  C   UNL     1      -1.848  12.667  22.241  0.00  0.00    +0.000 A 
ATOM     21  C   UNL     1      -3.237  12.953  22.183  0.00  0.00    +0.000 A 
ATOM     22  C   UNL     1      -3.677  14.066  22.945  0.00  0.00    +0.000 A 
ATOM     23  C   UNL     1      -2.776  14.791  23.746  0.00  0.00    +0.000 A 
BRANCH  18  25
ATOM     24  C   UNL     1      -0.592  16.498  24.967  0.00  0.00    +0.000 C 
ATOM     25  O   UNL     1      -0.657  15.129  24.742  0.00  0.00    +0.000 OA
ENDBRANCH  18  25
ENDBRANCH  16  21
ENDBRANCH   1  16
BRANCH  13  26
ATOM     26  O   UNL     1      -7.915  13.563  23.372  0.00  0.00    +0.000 OA
ATOM     27  C   UNL     1      -7.911  14.905  23.670  0.00  0.00    +0.000 C 
ENDBRANCH  13  26
TORSDOF 4
ENDMDL
MODEL 8
REMARK VINA RESULT:      -6.1      3.231      6.449
REMARK  Name = 
REMARK  6 active torsions:
REMARK  status: ('A' for Active; 'I' for Inactive)
REMARK    1  A    between atoms: C_1  and  O_2
REMARK    2  A    between atoms: O_2  and  C_3
REMARK    3  A    between atoms: C_6  and  N_7
REMARK    4  A    between atoms: N_7  and  C_8
REMARK    5  A    between atoms: C_20  and  O_21
REMARK    6  A    between atoms: O_21  and  C_22
REMARK                            x       y       z     vdW  Elec       q    Type
REMARK                         _______ _______ _______ _____ _____    ______ ____
ROOT
ATOM      1  C   UNL     1       3.768   5.641  19.299  0.00  0.00    +0.000 A 
ATOM      2  C   UNL     1       3.024   4.696  20.034  0.00  0.00    +0.000 A 
ATOM      3  C   UNL     1       1.690   4.873  20.388  0.00  0.00    +0.000 A 
ATOM      4  C   UNL     1       1.042   3.888  21.130  0.00  0.00    +0.000 A 
ATOM      5  C   UNL     1       1.722   2.712  21.509  0.00  0.00    +0.000 A 
ATOM      6 CL   UNL     1       0.902   1.482  22.447  0.00  0.00    +0.000 Cl
ATOM      7  C   UNL     1       3.023   2.500  21.083  0.00  0.00    +0.000 A 
ATOM      8  C   UNL     1       3.680   3.484  20.326  0.00  0.00    +0.000 A 
ATOM      9  N   UNL     1       4.769   3.176  19.611  0.00  0.00    +0.000 NA
ATOM     10  C   UNL     1       5.344   4.166  18.864  0.00  0.00    +0.000 A 
ATOM     11  C   UNL     1       5.516   3.954  17.453  0.00  0.00    +0.000 A 
ATOM     12  C   UNL     1       5.882   5.017  16.610  0.00  0.00    +0.000 A 
ATOM     13  C   UNL     1       6.287   6.221  17.194  0.00  0.00    +0.000 A 
ATOM     14  C   UNL     1       5.994   6.390  18.528  0.00  0.00    +0.000 A 
ATOM     15  C   UNL     1       5.210   5.476  19.237  0.00  0.00    +0.000 A 
ENDROOT
BRANCH   1  16
ATOM     16  N   UNL     1       3.068   6.369  18.266  0.00  0.00    +0.000 N 
ATOM     17  H   UNL     1       2.516   5.823  17.591  0.00  0.00    +0.000 HD
BRANCH  16  21
ATOM     18  C   UNL     1       1.004  10.102  19.135  0.00  0.00    +0.000 A 
ATOM     19  C   UNL     1       1.149   9.149  20.150  0.00  0.00    +0.000 A 
ATOM     20  C   UNL     1       1.852   7.958  19.900  0.00  0.00    +0.000 A 
ATOM     21  C   UNL     1       2.450   7.668  18.645  0.00  0.00    +0.000 A 
ATOM     22  C   UNL     1       2.349   8.681  17.657  0.00  0.00    +0.000 A 
ATOM     23  C   UNL     1       1.642   9.871  17.916  0.00  0.00    +0.000 A 
BRANCH  18  25
ATOM     24  C   UNL     1      -1.063  11.442  18.808  0.00  0.00    +0.000 C 
ATOM     25  O   UNL     1       0.236  11.229  19.248  0.00  0.00    +0.000 OA
ENDBRANCH  18  25
ENDBRANCH  16  21
ENDBRANCH   1  16
BRANCH  13  26
ATOM     26  O   UNL     1       7.008   7.174  16.579  0.00  0.00    +0.000 OA
ATOM     27  C   UNL     1       7.807   8.118  17.180  0.00  0.00    +0.000 C 
ENDBRANCH  13  26
TORSDOF 4
ENDMDL
MODEL 9
REMARK VINA RESULT:      -6.1      1.936      2.809
REMARK  Name = 
REMARK  6 active torsions:
REMARK  status: ('A' for Active; 'I' for Inactive)
REMARK    1  A    between atoms: C_1  and  O_2
REMARK    2  A    between atoms: O_2  and  C_3
REMARK    3  A    between atoms: C_6  and  N_7
REMARK    4  A    between atoms: N_7  and  C_8
REMARK    5  A    between atoms: C_20  and  O_21
REMARK    6  A    between atoms: O_21  and  C_22
REMARK                            x       y       z     vdW  Elec       q    Type
REMARK                         _______ _______ _______ _____ _____    ______ ____
ROOT
ATOM      1  C   UNL     1       4.687   4.414  19.370  0.00  0.00    +0.000 A 
ATOM      2  C   UNL     1       3.957   5.512  18.870  0.00  0.00    +0.000 A 
ATOM      3  C   UNL     1       4.552   6.672  18.383  0.00  0.00    +0.000 A 
ATOM      4  C   UNL     1       3.746   7.712  17.923  0.00  0.00    +0.000 A 
ATOM      5  C   UNL     1       2.341   7.590  17.933  0.00  0.00    +0.000 A 
ATOM      6 CL   UNL     1       1.337   8.903  17.359  0.00  0.00    +0.000 Cl
ATOM      7  C   UNL     1       1.756   6.401  18.340  0.00  0.00    +0.000 A 
ATOM      8  C   UNL     1       2.562   5.344  18.795  0.00  0.00    +0.000 A 
ATOM      9  N   UNL     1       2.079   4.098  18.850  0.00  0.00    +0.000 NA
ATOM     10  C   UNL     1       2.920   3.104  19.266  0.00  0.00    +0.000 A 
ATOM     11  C   UNL     1       3.132   1.973  18.404  0.00  0.00    +0.000 A 
ATOM     12  C   UNL     1       4.155   1.048  18.677  0.00  0.00    +0.000 A 
ATOM     13  C   UNL     1       4.812   1.127  19.908  0.00  0.00    +0.000 A 
ATOM     14  C   UNL     1       4.640   2.286  20.628  0.00  0.00    +0.000 A 
ATOM     15  C   UNL     1       3.962   3.391  20.104  0.00  0.00    +0.000 A 
ENDROOT
BRANCH   1  16
ATOM     16  N   UNL     1       5.936   4.101  18.715  0.00  0.00    +0.000 N 
ATOM     17  H   UNL     1       6.466   3.292  19.064  0.00  0.00    +0.000 HD
BRANCH  16  21
ATOM     18  C   UNL     1       6.386   4.378  14.394  0.00  0.00    +0.000 A 
ATOM     19  C   UNL     1       5.200   3.858  14.925  0.00  0.00    +0.000 A 
ATOM     20  C   UNL     1       5.019   3.804  16.318  0.00  0.00    +0.000 A 
ATOM     21  C   UNL     1       5.994   4.272  17.238  0.00  0.00    +0.000 A 
ATOM     22  C   UNL     1       7.155   4.859  16.671  0.00  0.00    +0.000 A 
ATOM     23  C   UNL     1       7.327   4.909  15.275  0.00  0.00    +0.000 A 
BRANCH  18  25
ATOM     24  C   UNL     1       6.404   3.389  12.114  0.00  0.00    +0.000 C 
ATOM     25  O   UNL     1       6.700   4.359  13.062  0.00  0.00    +0.000 OA
ENDBRANCH  18  25
ENDBRANCH  16  21
ENDBRANCH   1  16
BRANCH  13  26
ATOM     26  O   UNL     1       5.517   0.131  20.472  0.00  0.00    +0.000 OA
ATOM     27  C   UNL     1       5.942   0.059  21.778  0.00  0.00    +0.000 C 
ENDBRANCH  13  26
TORSDOF 4
ENDMDL
