MODEL 1
REMARK VINA RESULT:      -7.9      0.000      0.000
REMARK  Name = 
REMARK  5 active torsions:
REMARK  status: ('A' for Active; 'I' for Inactive)
REMARK    1  A    between atoms: N_6  and  C1*_7
REMARK    2  A    between atoms: C3*_9  and  O3*_10
REMARK    3  A    between atoms: C4*_11  and  C5*_12
REMARK    4  A    between atoms: C5*_12  and  O5*_13
REMARK    5  A    between atoms: C_16  and  C_17
REMARK                            x       y       z     vdW  Elec       q    Type
REMARK                         _______ _______ _______ _____ _____    ______ ____
ROOT
ATOM      1  O   UNL     1       8.096   4.377  16.990  0.00  0.00    +0.000 OA
ATOM      2  C   UNL     1       6.878   4.281  17.115  0.00  0.00    +0.000 A 
ATOM      3  N   UNL     1       6.314   4.212  18.359  0.00  0.00    +0.000 N 
ATOM      4  C   UNL     1       5.012   3.882  18.645  0.00  0.00    +0.000 A 
ATOM      5  O   UNL     1       4.658   3.683  19.799  0.00  0.00    +0.000 OA
ATOM      6  N   UNL     1       4.178   3.779  17.542  0.00  0.00    +0.000 N 
ATOM      7  C   UNL     1       4.646   3.993  16.260  0.00  0.00    +0.000 A 
ATOM      8  C   UNL     1       5.933   4.217  15.952  0.00  0.00    +0.000 A 
ATOM      9  H   UNL     1       6.951   4.231  19.141  0.00  0.00    +0.000 HD
ENDROOT
BRANCH   6  10
ATOM     10  C1* UNL     1       2.793   3.382  17.774  0.00  0.00    +0.000 C 
ATOM     11  C2* UNL     1       2.639   2.128  18.623  0.00  0.00    +0.000 C 
ATOM     12  C3* UNL     1       1.293   2.350  19.277  0.00  0.00    +0.000 C 
ATOM     13  C4* UNL     1       1.230   3.864  19.464  0.00  0.00    +0.000 C 
ATOM     14  O4* UNL     1       2.079   4.440  18.444  0.00  0.00    +0.000 OA
BRANCH  12  15
ATOM     15  O3* UNL     1       0.258   1.893  18.405  0.00  0.00    +0.000 OA
ATOM     16  H3* UNL     1       0.515   2.053  17.478  0.00  0.00    +0.000 HD
ENDBRANCH  12  15
BRANCH  13  17
ATOM     17  C5* UNL     1       1.751   4.305  20.838  0.00  0.00    +0.000 C 
BRANCH  17  18
ATOM     18  O5* UNL     1       2.592   5.451  20.720  0.00  0.00    +0.000 OA
ATOM     19  H5* UNL     1       2.618   5.874  21.596  0.00  0.00    +0.000 HD
ENDBRANCH  17  18
ENDBRANCH  13  17
ENDBRANCH   6  10
BRANCH   8  20
ATOM     20  C   UNL     1       6.398   4.326  14.592  0.00  0.00    +0.000 A 
ATOM     21  C   UNL     1       5.956   3.495  13.508  0.00  0.00    +0.000 A 
ATOM     22  C   UNL     1       6.562   3.816  12.314  0.00  0.00    +0.000 A 
ATOM     23  S   UNL     1       7.659   5.114  12.483  0.00  0.00    +0.000 S 
ATOM     24  C   UNL     1       7.328   5.248  14.158  0.00  0.00    +0.000 A 
ENDBRANCH   8  20
TORSDOF 5
ENDMDL
MODEL 2
REMARK VINA RESULT:      -7.8      3.354      6.535
REMARK  Name = 
REMARK  5 active torsions:
REMARK  status: ('A' for Active; 'I' for Inactive)
REMARK    1  A    between atoms: N_6  and  C1*_7
REMARK    2  A    between atoms: C3*_9  and  O3*_10
REMARK    3  A    between atoms: C4*_11  and  C5*_12
REMARK    4  A    between atoms: C5*_12  and  O5*_13
REMARK    5  A    between atoms: C_16  and  C_17
REMARK                            x       y       z     vdW  Elec       q    Type
REMARK                         _______ _______ _______ _____ _____    ______ ____
ROOT
ATOM      1  O   UNL     1       0.823   4.533  20.448  0.00  0.00    +0.000 OA
ATOM      2  C   UNL     1       1.768   4.561  19.664  0.00  0.00    +0.000 A 
ATOM      3  N   UNL     1       2.285   3.398  19.162  0.00  0.00    +0.000 N 
ATOM      4  C   UNL     1       3.461   3.264  18.467  0.00  0.00    +0.000 A 
ATOM      5  O   UNL     1       3.913   2.155  18.214  0.00  0.00    +0.000 OA
ATOM      6  N   UNL     1       4.072   4.456  18.114  0.00  0.00    +0.000 N 
ATOM      7  C   UNL     1       3.522   5.678  18.450  0.00  0.00    +0.000 A 
ATOM      8  C   UNL     1       2.429   5.830  19.214  0.00  0.00    +0.000 A 
ATOM      9  H   UNL     1       1.856   2.542  19.483  0.00  0.00    +0.000 HD
ENDROOT
BRANCH   6  10
ATOM     10  C1* UNL     1       5.352   4.382  17.416  0.00  0.00    +0.000 C 
ATOM     11  C2* UNL     1       5.702   5.632  16.621  0.00  0.00    +0.000 C 
ATOM     12  C3* UNL     1       7.214   5.605  16.635  0.00  0.00    +0.000 C 
ATOM     13  C4* UNL     1       7.550   4.989  17.991  0.00  0.00    +0.000 C 
ATOM     14  O4* UNL     1       6.420   4.163  18.359  0.00  0.00    +0.000 OA
BRANCH  12  15
ATOM     15  O3* UNL     1       7.685   4.786  15.563  0.00  0.00    +0.000 OA
ATOM     16  H3* UNL     1       8.160   4.015  15.922  0.00  0.00    +0.000 HD
ENDBRANCH  12  15
BRANCH  13  17
ATOM     17  C5* UNL     1       7.755   6.049  19.080  0.00  0.00    +0.000 C 
BRANCH  17  18
ATOM     18  O5* UNL     1       7.909   5.440  20.360  0.00  0.00    +0.000 OA
ATOM     19  H5* UNL     1       7.081   4.964  20.549  0.00  0.00    +0.000 HD
ENDBRANCH  17  18
ENDBRANCH  13  17
ENDBRANCH   6  10
BRANCH   8  20
ATOM     20  C   UNL     1       1.950   7.123  19.634  0.00  0.00    +0.000 A 
ATOM     21  C   UNL     1       1.547   7.450  20.973  0.00  0.00    +0.000 A 
ATOM     22  C   UNL     1       1.132   8.757  21.096  0.00  0.00    +0.000 A 
ATOM     23  S   UNL     1       1.226   9.600  19.614  0.00  0.00    +0.000 S 
ATOM     24  C   UNL     1       1.819   8.214  18.800  0.00  0.00    +0.000 A 
ENDBRANCH   8  20
TORSDOF 5
ENDMDL
MODEL 3
REMARK VINA RESULT:      -7.6      3.778      6.463
REMARK  Name = 
REMARK  5 active torsions:
REMARK  status: ('A' for Active; 'I' for Inactive)
REMARK    1  A    between atoms: N_6  and  C1*_7
REMARK    2  A    between atoms: C3*_9  and  O3*_10
REMARK    3  A    between atoms: C4*_11  and  C5*_12
REMARK    4  A    between atoms: C5*_12  and  O5*_13
REMARK    5  A    between atoms: C_16  and  C_17
REMARK                            x       y       z     vdW  Elec       q    Type
REMARK                         _______ _______ _______ _____ _____    ______ ____
ROOT
ATOM      1  O   UNL     1       1.139   5.839  20.957  0.00  0.00    +0.000 OA
ATOM      2  C   UNL     1       1.990   5.590  20.108  0.00  0.00    +0.000 A 
ATOM      3  N   UNL     1       2.531   4.337  20.018  0.00  0.00    +0.000 N 
ATOM      4  C   UNL     1       3.633   3.977  19.282  0.00  0.00    +0.000 A 
ATOM      5  O   UNL     1       4.133   2.867  19.409  0.00  0.00    +0.000 OA
ATOM      6  N   UNL     1       4.117   4.960  18.433  0.00  0.00    +0.000 N 
ATOM      7  C   UNL     1       3.520   6.204  18.353  0.00  0.00    +0.000 A 
ATOM      8  C   UNL     1       2.507   6.608  19.135  0.00  0.00    +0.000 A 
ATOM      9  H   UNL     1       2.202   3.658  20.688  0.00  0.00    +0.000 HD
ENDROOT
BRANCH   6  10
ATOM     10  C1* UNL     1       5.317   4.657  17.659  0.00  0.00    +0.000 C 
ATOM     11  C2* UNL     1       5.790   5.800  16.772  0.00  0.00    +0.000 C 
ATOM     12  C3* UNL     1       7.279   5.542  16.689  0.00  0.00    +0.000 C 
ATOM     13  C4* UNL     1       7.617   4.947  18.054  0.00  0.00    +0.000 C 
ATOM     14  O4* UNL     1       6.406   4.323  18.542  0.00  0.00    +0.000 OA
BRANCH  12  15
ATOM     15  O3* UNL     1       7.542   4.611  15.638  0.00  0.00    +0.000 OA
ATOM     16  H3* UNL     1       7.672   5.089  14.799  0.00  0.00    +0.000 HD
ENDBRANCH  12  15
BRANCH  13  17
ATOM     17  C5* UNL     1       8.057   6.013  19.064  0.00  0.00    +0.000 C 
BRANCH  17  18
ATOM     18  O5* UNL     1       7.923   5.535  20.400  0.00  0.00    +0.000 OA
ATOM     19  H5* UNL     1       6.970   5.517  20.601  0.00  0.00    +0.000 HD
ENDBRANCH  17  18
ENDBRANCH  13  17
ENDBRANCH   6  10
BRANCH   8  20
ATOM     20  C   UNL     1       1.985   7.951  19.096  0.00  0.00    +0.000 A 
ATOM     21  C   UNL     1       1.943   8.778  17.923  0.00  0.00    +0.000 A 
ATOM     22  C   UNL     1       1.392  10.016  18.169  0.00  0.00    +0.000 A 
ATOM     23  S   UNL     1       0.919  10.194  19.800  0.00  0.00    +0.000 S 
ATOM     24  C   UNL     1       1.455   8.613  20.184  0.00  0.00    +0.000 A 
ENDBRANCH   8  20
TORSDOF 5
ENDMDL
MODEL 4
REMARK VINA RESULT:      -7.6      3.616      6.535
REMARK  Name = 
REMARK  5 active torsions:
REMARK  status: ('A' for Active; 'I' for Inactive)
REMARK    1  A    between atoms: N_6  and  C1*_7
REMARK    2  A    between atoms: C3*_9  and  O3*_10
REMARK    3  A    between atoms: C4*_11  and  C5*_12
REMARK    4  A    between atoms: C5*_12  and  O5*_13
REMARK    5  A    between atoms: C_16  and  C_17
REMARK                            x       y       z     vdW  Elec       q    Type
REMARK                         _______ _______ _______ _____ _____    ______ ____
ROOT
ATOM      1  O   UNL     1       0.729   5.123  20.582  0.00  0.00    +0.000 OA
ATOM      2  C   UNL     1       1.847   4.993  20.090  0.00  0.00    +0.000 A 
ATOM      3  N   UNL     1       2.459   3.770  20.079  0.00  0.00    +0.000 N 
ATOM      4  C   UNL     1       3.774   3.521  19.773  0.00  0.00    +0.000 A 
ATOM      5  O   UNL     1       4.260   2.414  19.962  0.00  0.00    +0.000 OA
ATOM      6  N   UNL     1       4.475   4.607  19.272  0.00  0.00    +0.000 N 
ATOM      7  C   UNL     1       3.874   5.840  19.105  0.00  0.00    +0.000 A 
ATOM      8  C   UNL     1       2.621   6.129  19.490  0.00  0.00    +0.000 A 
ATOM      9  H   UNL     1       1.948   3.010  20.504  0.00  0.00    +0.000 HD
ENDROOT
BRANCH   6  10
ATOM     10  C1* UNL     1       5.891   4.421  18.974  0.00  0.00    +0.000 C 
ATOM     11  C2* UNL     1       6.214   4.379  17.488  0.00  0.00    +0.000 C 
ATOM     12  C3* UNL     1       7.636   4.894  17.457  0.00  0.00    +0.000 C 
ATOM     13  C4* UNL     1       7.678   5.903  18.601  0.00  0.00    +0.000 C 
ATOM     14  O4* UNL     1       6.665   5.493  19.549  0.00  0.00    +0.000 OA
BRANCH  12  15
ATOM     15  O3* UNL     1       8.539   3.811  17.688  0.00  0.00    +0.000 OA
ATOM     16  H3* UNL     1       9.349   3.940  17.160  0.00  0.00    +0.000 HD
ENDBRANCH  12  15
BRANCH  13  17
ATOM     17  C5* UNL     1       7.360   7.329  18.135  0.00  0.00    +0.000 C 
BRANCH  17  18
ATOM     18  O5* UNL     1       7.635   7.483  16.744  0.00  0.00    +0.000 OA
ATOM     19  H5* UNL     1       7.240   8.329  16.469  0.00  0.00    +0.000 HD
ENDBRANCH  17  18
ENDBRANCH  13  17
ENDBRANCH   6  10
BRANCH   8  20
ATOM     20  C   UNL     1       2.069   7.457  19.399  0.00  0.00    +0.000 A 
ATOM     21  C   UNL     1       1.996   8.231  18.192  0.00  0.00    +0.000 A 
ATOM     22  C   UNL     1       1.420   9.466  18.389  0.00  0.00    +0.000 A 
ATOM     23  S   UNL     1       0.959   9.704  20.016  0.00  0.00    +0.000 S 
ATOM     24  C   UNL     1       1.534   8.153  20.463  0.00  0.00    +0.000 A 
ENDBRANCH   8  20
TORSDOF 5
ENDMDL
MODEL 5
REMARK VINA RESULT:      -7.4      3.515      6.576
REMARK  Name = 
REMARK  5 active torsions:
REMARK  status: ('A' for Active; 'I' for Inactive)
REMARK    1  A    between atoms: N_6  and  C1*_7
REMARK    2  A    between atoms: C3*_9  and  O3*_10
REMARK    3  A    between atoms: C4*_11  and  C5*_12
REMARK    4  A    between atoms: C5*_12  and  O5*_13
REMARK    5  A    between atoms: C_16  and  C_17
REMARK                            x       y       z     vdW  Elec       q    Type
REMARK                         _______ _______ _______ _____ _____    ______ ____
ROOT
ATOM      1  O   UNL     1       0.808   4.412  20.395  0.00  0.00    +0.000 OA
ATOM      2  C   UNL     1       1.746   4.465  19.604  0.00  0.00    +0.000 A 
ATOM      3  N   UNL     1       2.248   3.320  19.048  0.00  0.00    +0.000 N 
ATOM      4  C   UNL     1       3.417   3.206  18.337  0.00  0.00    +0.000 A 
ATOM      5  O   UNL     1       3.857   2.105  18.034  0.00  0.00    +0.000 OA
ATOM      6  N   UNL     1       4.035   4.408  18.029  0.00  0.00    +0.000 N 
ATOM      7  C   UNL     1       3.498   5.619  18.422  0.00  0.00    +0.000 A 
ATOM      8  C   UNL     1       2.413   5.747  19.202  0.00  0.00    +0.000 A 
ATOM      9  H   UNL     1       1.815   2.456  19.337  0.00  0.00    +0.000 HD
ENDROOT
BRANCH   6  10
ATOM     10  C1* UNL     1       5.308   4.352  17.317  0.00  0.00    +0.000 C 
ATOM     11  C2* UNL     1       5.630   5.607  16.518  0.00  0.00    +0.000 C 
ATOM     12  C3* UNL     1       7.142   5.604  16.515  0.00  0.00    +0.000 C 
ATOM     13  C4* UNL     1       7.503   4.993  17.867  0.00  0.00    +0.000 C 
ATOM     14  O4* UNL     1       6.390   4.150  18.248  0.00  0.00    +0.000 OA
BRANCH  12  15
ATOM     15  O3* UNL     1       7.614   4.791  15.438  0.00  0.00    +0.000 OA
ATOM     16  H3* UNL     1       8.542   5.013  15.240  0.00  0.00    +0.000 HD
ENDBRANCH  12  15
BRANCH  13  17
ATOM     17  C5* UNL     1       7.704   6.056  18.953  0.00  0.00    +0.000 C 
BRANCH  17  18
ATOM     18  O5* UNL     1       8.129   7.293  18.383  0.00  0.00    +0.000 OA
ATOM     19  H5* UNL     1       8.021   7.212  17.419  0.00  0.00    +0.000 HD
ENDBRANCH  17  18
ENDBRANCH  13  17
ENDBRANCH   6  10
BRANCH   8  20
ATOM     20  C   UNL     1       1.949   7.025  19.680  0.00  0.00    +0.000 A 
ATOM     21  C   UNL     1       1.839   8.209  18.876  0.00  0.00    +0.000 A 
ATOM     22  C   UNL     1       1.367   9.289  19.587  0.00  0.00    +0.000 A 
ATOM     23  S   UNL     1       1.048   8.893  21.217  0.00  0.00    +0.000 S 
ATOM     24  C   UNL     1       1.546   7.272  20.977  0.00  0.00    +0.000 A 
ENDBRANCH   8  20
TORSDOF 5
ENDMDL
MODEL 6
REMARK VINA RESULT:      -7.3      3.439      6.534
REMARK  Name = 
REMARK  5 active torsions:
REMARK  status: ('A' for Active; 'I' for Inactive)
REMARK    1  A    between atoms: N_6  and  C1*_7
REMARK    2  A    between atoms: C3*_9  and  O3*_10
REMARK    3  A    between atoms: C4*_11  and  C5*_12
REMARK    4  A    between atoms: C5*_12  and  O5*_13
REMARK    5  A    between atoms: C_16  and  C_17
REMARK                            x       y       z     vdW  Elec       q    Type
REMARK                         _______ _______ _______ _____ _____    ______ ____
ROOT
ATOM      1  O   UNL     1       1.235   5.322  21.026  0.00  0.00    +0.000 OA
ATOM      2  C   UNL     1       2.091   5.160  20.160  0.00  0.00    +0.000 A 
ATOM      3  N   UNL     1       2.663   3.931  19.974  0.00  0.00    +0.000 N 
ATOM      4  C   UNL     1       3.772   3.657  19.214  0.00  0.00    +0.000 A 
ATOM      5  O   UNL     1       4.300   2.554  19.255  0.00  0.00    +0.000 OA
ATOM      6  N   UNL     1       4.231   4.715  18.444  0.00  0.00    +0.000 N 
ATOM      7  C   UNL     1       3.604   5.946  18.459  0.00  0.00    +0.000 A 
ATOM      8  C   UNL     1       2.582   6.263  19.269  0.00  0.00    +0.000 A 
ATOM      9  H   UNL     1       2.351   3.195  20.590  0.00  0.00    +0.000 HD
ENDROOT
BRANCH   6  10
ATOM     10  C1* UNL     1       5.437   4.502  17.649  0.00  0.00    +0.000 C 
ATOM     11  C2* UNL     1       5.528   5.380  16.409  0.00  0.00    +0.000 C 
ATOM     12  C3* UNL     1       7.024   5.506  16.219  0.00  0.00    +0.000 C 
ATOM     13  C4* UNL     1       7.570   5.492  17.644  0.00  0.00    +0.000 C 
ATOM     14  O4* UNL     1       6.609   4.766  18.446  0.00  0.00    +0.000 OA
BRANCH  12  15
ATOM     15  O3* UNL     1       7.504   4.389  15.469  0.00  0.00    +0.000 OA
ATOM     16  H3* UNL     1       7.160   3.562  15.854  0.00  0.00    +0.000 HD
ENDBRANCH  12  15
BRANCH  13  17
ATOM     17  C5* UNL     1       7.723   6.903  18.225  0.00  0.00    +0.000 C 
BRANCH  17  18
ATOM     18  O5* UNL     1       7.766   7.879  17.187  0.00  0.00    +0.000 OA
ATOM     19  H5* UNL     1       6.848   8.154  17.018  0.00  0.00    +0.000 HD
ENDBRANCH  17  18
ENDBRANCH  13  17
ENDBRANCH   6  10
BRANCH   8  20
ATOM     20  C   UNL     1       2.027   7.591  19.334  0.00  0.00    +0.000 A 
ATOM     21  C   UNL     1       1.493   8.198  20.521  0.00  0.00    +0.000 A 
ATOM     22  C   UNL     1       1.029   9.475  20.299  0.00  0.00    +0.000 A 
ATOM     23  S   UNL     1       1.232   9.956  18.674  0.00  0.00    +0.000 S 
ATOM     24  C   UNL     1       1.940   8.453  18.259  0.00  0.00    +0.000 A 
ENDBRANCH   8  20
TORSDOF 5
ENDMDL
MODEL 7
REMARK VINA RESULT:      -7.1      1.981      3.061
REMARK  Name = 
REMARK  5 active torsions:
REMARK  status: ('A' for Active; 'I' for Inactive)
REMARK    1  A    between atoms: N_6  and  C1*_7
REMARK    2  A    between atoms: C3*_9  and  O3*_10
REMARK    3  A    between atoms: C4*_11  and  C5*_12
REMARK    4  A    between atoms: C5*_12  and  O5*_13
REMARK    5  A    between atoms: C_16  and  C_17
REMARK                            x       y       z     vdW  Elec       q    Type
REMARK                         _______ _______ _______ _____ _____    ______ ____
ROOT
ATOM      1  O   UNL     1       8.112   5.338  13.801  0.00  0.00    +0.000 OA
ATOM      2  C   UNL     1       7.247   5.307  14.672  0.00  0.00    +0.000 A 
ATOM      3  N   UNL     1       7.427   5.979  15.850  0.00  0.00    +0.000 N 
ATOM      4  C   UNL     1       6.661   5.853  16.983  0.00  0.00    +0.000 A 
ATOM      5  O   UNL     1       7.013   6.371  18.034  0.00  0.00    +0.000 OA
ATOM      6  N   UNL     1       5.511   5.094  16.832  0.00  0.00    +0.000 N 
ATOM      7  C   UNL     1       5.181   4.514  15.622  0.00  0.00    +0.000 A 
ATOM      8  C   UNL     1       5.964   4.541  14.533  0.00  0.00    +0.000 A 
ATOM      9  H   UNL     1       8.299   6.474  15.954  0.00  0.00    +0.000 HD
ENDROOT
BRANCH   6  10
ATOM     10  C1* UNL     1       4.680   4.881  18.013  0.00  0.00    +0.000 C 
ATOM     11  C2* UNL     1       3.184   4.954  17.742  0.00  0.00    +0.000 C 
ATOM     12  C3* UNL     1       2.622   4.049  18.816  0.00  0.00    +0.000 C 
ATOM     13  C4* UNL     1       3.696   2.977  18.981  0.00  0.00    +0.000 C 
ATOM     14  O4* UNL     1       4.948   3.583  18.581  0.00  0.00    +0.000 OA
BRANCH  12  15
ATOM     15  O3* UNL     1       2.445   4.794  20.022  0.00  0.00    +0.000 OA
ATOM     16  H3* UNL     1       2.099   5.681  19.812  0.00  0.00    +0.000 HD
ENDBRANCH  12  15
BRANCH  13  17
ATOM     17  C5* UNL     1       3.442   1.753  18.093  0.00  0.00    +0.000 C 
BRANCH  17  18
ATOM     18  O5* UNL     1       4.315   0.680  18.442  0.00  0.00    +0.000 OA
ATOM     19  H5* UNL     1       5.186   1.073  18.627  0.00  0.00    +0.000 HD
ENDBRANCH  17  18
ENDBRANCH  13  17
ENDBRANCH   6  10
BRANCH   8  20
ATOM     20  C   UNL     1       5.635   3.830  13.323  0.00  0.00    +0.000 A 
ATOM     21  C   UNL     1       6.484   2.863  12.685  0.00  0.00    +0.000 A 
ATOM     22  C   UNL     1       5.922   2.337  11.544  0.00  0.00    +0.000 A 
ATOM     23  S   UNL     1       4.377   2.993  11.231  0.00  0.00    +0.000 S 
ATOM     24  C   UNL     1       4.456   3.988  12.623  0.00  0.00    +0.000 A 
ENDBRANCH   8  20
TORSDOF 5
ENDMDL
MODEL 8
REMARK VINA RESULT:      -7.1      1.916      3.014
REMARK  Name = 
REMARK  5 active torsions:
REMARK  status: ('A' for Active; 'I' for Inactive)
REMARK    1  A    between atoms: N_6  and  C1*_7
REMARK    2  A    between atoms: C3*_9  and  O3*_10
REMARK    3  A    between atoms: C4*_11  and  C5*_12
REMARK    4  A    between atoms: C5*_12  and  O5*_13
REMARK    5  A    between atoms: C_16  and  C_17
REMARK                            x       y       z     vdW  Elec       q    Type
REMARK                         _______ _______ _______ _____ _____    ______ ____
ROOT
ATOM      1  O   UNL     1       8.107   5.334  13.747  0.00  0.00    +0.000 OA
ATOM      2  C   UNL     1       7.244   5.305  14.620  0.00  0.00    +0.000 A 
ATOM      3  N   UNL     1       7.412   6.007  15.782  0.00  0.00    +0.000 N 
ATOM      4  C   UNL     1       6.651   5.892  16.919  0.00  0.00    +0.000 A 
ATOM      5  O   UNL     1       6.994   6.442  17.957  0.00  0.00    +0.000 OA
ATOM      6  N   UNL     1       5.517   5.106  16.789  0.00  0.00    +0.000 N 
ATOM      7  C   UNL     1       5.197   4.491  15.594  0.00  0.00    +0.000 A 
ATOM      8  C   UNL     1       5.977   4.509  14.502  0.00  0.00    +0.000 A 
ATOM      9  H   UNL     1       8.274   6.523  15.872  0.00  0.00    +0.000 HD
ENDROOT
BRANCH   6  10
ATOM     10  C1* UNL     1       4.693   4.903  17.976  0.00  0.00    +0.000 C 
ATOM     11  C2* UNL     1       3.195   4.925  17.705  0.00  0.00    +0.000 C 
ATOM     12  C3* UNL     1       2.660   4.035  18.805  0.00  0.00    +0.000 C 
ATOM     13  C4* UNL     1       3.765   3.000  19.000  0.00  0.00    +0.000 C 
ATOM     14  O4* UNL     1       4.998   3.631  18.581  0.00  0.00    +0.000 OA
BRANCH  12  15
ATOM     15  O3* UNL     1       2.462   4.810  19.989  0.00  0.00    +0.000 OA
ATOM     16  H3* UNL     1       2.738   5.730  19.830  0.00  0.00    +0.000 HD
ENDBRANCH  12  15
BRANCH  13  17
ATOM     17  C5* UNL     1       3.546   1.744  18.148  0.00  0.00    +0.000 C 
BRANCH  17  18
ATOM     18  O5* UNL     1       2.178   1.620  17.766  0.00  0.00    +0.000 OA
ATOM     19  H5* UNL     1       2.001   0.670  17.651  0.00  0.00    +0.000 HD
ENDBRANCH  17  18
ENDBRANCH  13  17
ENDBRANCH   6  10
BRANCH   8  20
ATOM     20  C   UNL     1       5.661   3.764  13.310  0.00  0.00    +0.000 A 
ATOM     21  C   UNL     1       4.481   3.956  12.514  0.00  0.00    +0.000 A 
ATOM     22  C   UNL     1       4.432   3.110  11.429  0.00  0.00    +0.000 A 
ATOM     23  S   UNL     1       5.795   2.084  11.354  0.00  0.00    +0.000 S 
ATOM     24  C   UNL     1       6.456   2.769  12.778  0.00  0.00    +0.000 A 
ENDBRANCH   8  20
TORSDOF 5
ENDMDL
MODEL 9
REMARK VINA RESULT:      -7.0      4.431      6.359
REMARK  Name = 
REMARK  5 active torsions:
REMARK  status: ('A' for Active; 'I' for Inactive)
REMARK    1  A    between atoms: N_6  and  C1*_7
REMARK    2  A    between atoms: C3*_9  and  O3*_10
REMARK    3  A    between atoms: C4*_11  and  C5*_12
REMARK    4  A    between atoms: C5*_12  and  O5*_13
REMARK    5  A    between atoms: C_16  and  C_17
REMARK                            x       y       z     vdW  Elec       q    Type
REMARK                         _______ _______ _______ _____ _____    ______ ____
ROOT
ATOM      1  O   UNL     1       2.538   9.510  17.556  0.00  0.00    +0.000 OA
ATOM      2  C   UNL     1       2.810   8.365  17.910  0.00  0.00    +0.000 A 
ATOM      3  N   UNL     1       3.671   7.600  17.172  0.00  0.00    +0.000 N 
ATOM      4  C   UNL     1       3.890   6.253  17.317  0.00  0.00    +0.000 A 
ATOM      5  O   UNL     1       4.552   5.636  16.493  0.00  0.00    +0.000 OA
ATOM      6  N   UNL     1       3.293   5.678  18.428  0.00  0.00    +0.000 N 
ATOM      7  C   UNL     1       2.536   6.425  19.310  0.00  0.00    +0.000 A 
ATOM      8  C   UNL     1       2.228   7.720  19.132  0.00  0.00    +0.000 A 
ATOM      9  H   UNL     1       4.044   8.025  16.337  0.00  0.00    +0.000 HD
ENDROOT
BRANCH   6  10
ATOM     10  C1* UNL     1       3.446   4.238  18.612  0.00  0.00    +0.000 C 
ATOM     11  C2* UNL     1       4.629   3.844  19.484  0.00  0.00    +0.000 C 
ATOM     12  C3* UNL     1       4.166   2.531  20.076  0.00  0.00    +0.000 C 
ATOM     13  C4* UNL     1       2.658   2.716  20.222  0.00  0.00    +0.000 C 
ATOM     14  O4* UNL     1       2.263   3.687  19.224  0.00  0.00    +0.000 OA
BRANCH  12  15
ATOM     15  O3* UNL     1       4.472   1.468  19.172  0.00  0.00    +0.000 OA
ATOM     16  H3* UNL     1       4.273   1.745  18.259  0.00  0.00    +0.000 HD
ENDBRANCH  12  15
BRANCH  13  17
ATOM     17  C5* UNL     1       2.266   3.251  21.605  0.00  0.00    +0.000 C 
BRANCH  17  18
ATOM     18  O5* UNL     1       1.484   2.296  22.318  0.00  0.00    +0.000 OA
ATOM     19  H5* UNL     1       0.618   2.708  22.487  0.00  0.00    +0.000 HD
ENDBRANCH  17  18
ENDBRANCH  13  17
ENDBRANCH   6  10
BRANCH   8  20
ATOM     20  C   UNL     1       1.344   8.435  20.018  0.00  0.00    +0.000 A 
ATOM     21  C   UNL     1       0.533   9.556  19.634  0.00  0.00    +0.000 A 
ATOM     22  C   UNL     1      -0.217  10.048  20.678  0.00  0.00    +0.000 A 
ATOM     23  S   UNL     1       0.041   9.172  22.120  0.00  0.00    +0.000 S 
ATOM     24  C   UNL     1       1.163   8.131  21.352  0.00  0.00    +0.000 A 
ENDBRANCH   8  20
TORSDOF 5
ENDMDL
