MODEL 1
REMARK VINA RESULT:      -7.9      0.000      0.000
REMARK  Name = 
REMARK  4 active torsions:
REMARK  status: ('A' for Active; 'I' for Inactive)
REMARK    1  A    between atoms: C_1  and  C_2
REMARK    2  A    between atoms: C_4  and  O_5
REMARK    3  A    between atoms: O_5  and  C_6
REMARK    4  A    between atoms: C_13  and  C_14
REMARK                            x       y       z     vdW  Elec       q    Type
REMARK                         _______ _______ _______ _____ _____    ______ ____
ROOT
ATOM      1  C   UNL     1       2.059   3.127  21.778  0.00  0.00    +0.000 C 
ATOM      2  C   UNL     1       2.349   4.084  20.661  0.00  0.00    +0.000 A 
ATOM      3  C   UNL     1       2.983   3.643  19.501  0.00  0.00    +0.000 A 
ATOM      4  C   UNL     1       3.228   4.547  18.474  0.00  0.00    +0.000 A 
ATOM      5  C   UNL     1       2.784   5.861  18.613  0.00  0.00    +0.000 A 
ATOM      6  C   UNL     1       2.154   6.219  19.795  0.00  0.00    +0.000 A 
ATOM      7  N   UNL     1       1.952   5.360  20.835  0.00  0.00    +0.000 NA
ENDROOT
BRANCH   6   8
ATOM      8  C   UNL     1       1.631   7.610  19.986  0.00  0.00    +0.000 C 
ATOM      9  O   UNL     1       2.103   8.539  19.335  0.00  0.00    +0.000 OA
ATOM     10  N   UNL     1       0.663   7.722  20.963  0.00  0.00    +0.000 N 
ATOM     11  C   UNL     1       0.114   8.929  21.394  0.00  0.00    +0.000 A 
ATOM     12  C   UNL     1      -0.208   9.947  20.506  0.00  0.00    +0.000 A 
ATOM     13  C   UNL     1      -0.716  11.144  21.009  0.00  0.00    +0.000 A 
ATOM     14  C   UNL     1      -0.848  11.297  22.383  0.00  0.00    +0.000 A 
ATOM     15  C   UNL     1      -0.523  10.220  23.191  0.00  0.00    +0.000 A 
ATOM     16  N   UNL     1      -0.090   9.027  22.725  0.00  0.00    +0.000 NA
ATOM     17  H   UNL     1       0.593   6.952  21.618  0.00  0.00    +0.000 HD
ENDBRANCH   6   8
BRANCH   4  18
ATOM     18  O   UNL     1       3.846   4.246  17.292  0.00  0.00    +0.000 OA
BRANCH  18  19
ATOM     19  C   UNL     1       5.092   4.895  16.982  0.00  0.00    +0.000 C 
ATOM     20  C   UNL     1       5.572   4.512  15.578  0.00  0.00    +0.000 C 
ATOM     21  C   UNL     1       7.001   4.970  15.341  0.00  0.00    +0.000 C 
ATOM     22  O   UNL     1       7.868   4.457  16.349  0.00  0.00    +0.000 OA
ATOM     23  C   UNL     1       7.518   4.925  17.649  0.00  0.00    +0.000 C 
ATOM     24  C   UNL     1       6.121   4.456  18.030  0.00  0.00    +0.000 C 
ENDBRANCH  18  19
ENDBRANCH   4  18
TORSDOF 3
ENDMDL
MODEL 2
REMARK VINA RESULT:      -7.7      1.461      2.075
REMARK  Name = 
REMARK  4 active torsions:
REMARK  status: ('A' for Active; 'I' for Inactive)
REMARK    1  A    between atoms: C_1  and  C_2
REMARK    2  A    between atoms: C_4  and  O_5
REMARK    3  A    between atoms: O_5  and  C_6
REMARK    4  A    between atoms: C_13  and  C_14
REMARK                            x       y       z     vdW  Elec       q    Type
REMARK                         _______ _______ _______ _____ _____    ______ ____
ROOT
ATOM      1  C   UNL     1       1.800   3.604  21.150  0.00  0.00    +0.000 C 
ATOM      2  C   UNL     1       2.147   4.839  20.376  0.00  0.00    +0.000 A 
ATOM      3  C   UNL     1       2.891   4.751  19.201  0.00  0.00    +0.000 A 
ATOM      4  C   UNL     1       3.188   5.910  18.495  0.00  0.00    +0.000 A 
ATOM      5  C   UNL     1       2.688   7.127  18.957  0.00  0.00    +0.000 A 
ATOM      6  C   UNL     1       1.950   7.130  20.130  0.00  0.00    +0.000 A 
ATOM      7  N   UNL     1       1.693   6.011  20.865  0.00  0.00    +0.000 NA
ENDROOT
BRANCH   6   8
ATOM      8  C   UNL     1       1.365   8.405  20.655  0.00  0.00    +0.000 C 
ATOM      9  O   UNL     1       1.262   8.582  21.866  0.00  0.00    +0.000 OA
ATOM     10  N   UNL     1       0.926   9.273  19.675  0.00  0.00    +0.000 N 
ATOM     11  C   UNL     1       0.246  10.464  19.923  0.00  0.00    +0.000 A 
ATOM     12  C   UNL     1       0.607  11.312  20.964  0.00  0.00    +0.000 A 
ATOM     13  C   UNL     1      -0.142  12.467  21.181  0.00  0.00    +0.000 A 
ATOM     14  C   UNL     1      -1.247  12.716  20.379  0.00  0.00    +0.000 A 
ATOM     15  C   UNL     1      -1.519  11.828  19.352  0.00  0.00    +0.000 A 
ATOM     16  N   UNL     1      -0.771  10.734  19.079  0.00  0.00    +0.000 NA
ATOM     17  H   UNL     1       0.792   8.878  18.751  0.00  0.00    +0.000 HD
ENDBRANCH   6   8
BRANCH   4  18
ATOM     18  O   UNL     1       3.912   5.962  17.335  0.00  0.00    +0.000 OA
BRANCH  18  19
ATOM     19  C   UNL     1       4.985   5.021  17.152  0.00  0.00    +0.000 C 
ATOM     20  C   UNL     1       6.238   5.470  17.912  0.00  0.00    +0.000 C 
ATOM     21  C   UNL     1       7.447   4.639  17.517  0.00  0.00    +0.000 C 
ATOM     22  O   UNL     1       7.648   4.678  16.108  0.00  0.00    +0.000 OA
ATOM     23  C   UNL     1       6.545   4.128  15.391  0.00  0.00    +0.000 C 
ATOM     24  C   UNL     1       5.281   4.935  15.651  0.00  0.00    +0.000 C 
ENDBRANCH  18  19
ENDBRANCH   4  18
TORSDOF 3
ENDMDL
MODEL 3
REMARK VINA RESULT:      -7.5      1.541      1.828
REMARK  Name = 
REMARK  4 active torsions:
REMARK  status: ('A' for Active; 'I' for Inactive)
REMARK    1  A    between atoms: C_1  and  C_2
REMARK    2  A    between atoms: C_4  and  O_5
REMARK    3  A    between atoms: O_5  and  C_6
REMARK    4  A    between atoms: C_13  and  C_14
REMARK                            x       y       z     vdW  Elec       q    Type
REMARK                         _______ _______ _______ _____ _____    ______ ____
ROOT
ATOM      1  C   UNL     1       1.558   3.078  21.394  0.00  0.00    +0.000 C 
ATOM      2  C   UNL     1       1.981   4.173  20.462  0.00  0.00    +0.000 A 
ATOM      3  C   UNL     1       2.632   3.870  19.267  0.00  0.00    +0.000 A 
ATOM      4  C   UNL     1       3.002   4.903  18.413  0.00  0.00    +0.000 A 
ATOM      5  C   UNL     1       2.664   6.212  18.753  0.00  0.00    +0.000 A 
ATOM      6  C   UNL     1       2.009   6.429  19.955  0.00  0.00    +0.000 A 
ATOM      7  N   UNL     1       1.685   5.435  20.831  0.00  0.00    +0.000 NA
ENDROOT
BRANCH   6   8
ATOM      8  C   UNL     1       1.596   7.812  20.356  0.00  0.00    +0.000 C 
ATOM      9  O   UNL     1       1.405   8.079  21.540  0.00  0.00    +0.000 OA
ATOM     10  N   UNL     1       1.407   8.676  19.295  0.00  0.00    +0.000 N 
ATOM     11  C   UNL     1       0.915   9.974  19.414  0.00  0.00    +0.000 A 
ATOM     12  C   UNL     1       1.308  10.817  20.447  0.00  0.00    +0.000 A 
ATOM     13  C   UNL     1       0.745  12.089  20.530  0.00  0.00    +0.000 A 
ATOM     14  C   UNL     1      -0.219  12.462  19.602  0.00  0.00    +0.000 A 
ATOM     15  C   UNL     1      -0.532  11.567  18.594  0.00  0.00    +0.000 A 
ATOM     16  N   UNL     1       0.046  10.352  18.454  0.00  0.00    +0.000 NA
ATOM     17  H   UNL     1       1.301   8.251  18.381  0.00  0.00    +0.000 HD
ENDBRANCH   6   8
BRANCH   4  18
ATOM     18  O   UNL     1       3.650   4.742  17.220  0.00  0.00    +0.000 OA
BRANCH  18  19
ATOM     19  C   UNL     1       5.003   5.218  17.102  0.00  0.00    +0.000 C 
ATOM     20  C   UNL     1       5.522   5.033  15.672  0.00  0.00    +0.000 C 
ATOM     21  C   UNL     1       7.020   5.279  15.595  0.00  0.00    +0.000 C 
ATOM     22  O   UNL     1       7.715   4.444  16.516  0.00  0.00    +0.000 OA
ATOM     23  C   UNL     1       7.345   4.708  17.867  0.00  0.00    +0.000 C 
ATOM     24  C   UNL     1       5.867   4.419  18.084  0.00  0.00    +0.000 C 
ENDBRANCH  18  19
ENDBRANCH   4  18
TORSDOF 3
ENDMDL
MODEL 4
REMARK VINA RESULT:      -7.4      3.277      8.593
REMARK  Name = 
REMARK  4 active torsions:
REMARK  status: ('A' for Active; 'I' for Inactive)
REMARK    1  A    between atoms: C_1  and  C_2
REMARK    2  A    between atoms: C_4  and  O_5
REMARK    3  A    between atoms: O_5  and  C_6
REMARK    4  A    between atoms: C_13  and  C_14
REMARK                            x       y       z     vdW  Elec       q    Type
REMARK                         _______ _______ _______ _____ _____    ______ ____
ROOT
ATOM      1  C   UNL     1       0.582   9.129  22.519  0.00  0.00    +0.000 C 
ATOM      2  C   UNL     1       0.505   9.398  21.047  0.00  0.00    +0.000 A 
ATOM      3  C   UNL     1      -0.378  10.355  20.550  0.00  0.00    +0.000 A 
ATOM      4  C   UNL     1      -0.421  10.595  19.181  0.00  0.00    +0.000 A 
ATOM      5  C   UNL     1       0.460   9.906  18.349  0.00  0.00    +0.000 A 
ATOM      6  C   UNL     1       1.313   8.976  18.922  0.00  0.00    +0.000 A 
ATOM      7  N   UNL     1       1.332   8.688  20.255  0.00  0.00    +0.000 NA
ENDROOT
BRANCH   6   8
ATOM      8  C   UNL     1       2.299   8.229  18.077  0.00  0.00    +0.000 C 
ATOM      9  O   UNL     1       2.714   8.725  17.033  0.00  0.00    +0.000 OA
ATOM     10  N   UNL     1       2.615   6.972  18.553  0.00  0.00    +0.000 N 
ATOM     11  C   UNL     1       3.417   6.053  17.880  0.00  0.00    +0.000 A 
ATOM     12  C   UNL     1       4.570   6.439  17.207  0.00  0.00    +0.000 A 
ATOM     13  C   UNL     1       5.305   5.474  16.520  0.00  0.00    +0.000 A 
ATOM     14  C   UNL     1       4.843   4.165  16.495  0.00  0.00    +0.000 A 
ATOM     15  C   UNL     1       3.696   3.867  17.212  0.00  0.00    +0.000 A 
ATOM     16  N   UNL     1       3.001   4.770  17.939  0.00  0.00    +0.000 NA
ATOM     17  H   UNL     1       1.981   6.577  19.239  0.00  0.00    +0.000 HD
ENDBRANCH   6   8
BRANCH   4  18
ATOM     18  O   UNL     1      -1.242  11.499  18.566  0.00  0.00    +0.000 OA
BRANCH  18  19
ATOM     19  C   UNL     1      -2.553  11.070  18.157  0.00  0.00    +0.000 C 
ATOM     20  C   UNL     1      -2.704  11.157  16.635  0.00  0.00    +0.000 C 
ATOM     21  C   UNL     1      -4.151  10.965  16.213  0.00  0.00    +0.000 C 
ATOM     22  O   UNL     1      -4.998  11.899  16.878  0.00  0.00    +0.000 OA
ATOM     23  C   UNL     1      -4.977  11.732  18.294  0.00  0.00    +0.000 C 
ATOM     24  C   UNL     1      -3.579  11.979  18.842  0.00  0.00    +0.000 C 
ENDBRANCH  18  19
ENDBRANCH   4  18
TORSDOF 3
ENDMDL
MODEL 5
REMARK VINA RESULT:      -7.4      1.820      2.484
REMARK  Name = 
REMARK  4 active torsions:
REMARK  status: ('A' for Active; 'I' for Inactive)
REMARK    1  A    between atoms: C_1  and  C_2
REMARK    2  A    between atoms: C_4  and  O_5
REMARK    3  A    between atoms: O_5  and  C_6
REMARK    4  A    between atoms: C_13  and  C_14
REMARK                            x       y       z     vdW  Elec       q    Type
REMARK                         _______ _______ _______ _____ _____    ______ ____
ROOT
ATOM      1  C   UNL     1       2.062   5.205  20.838  0.00  0.00    +0.000 C 
ATOM      2  C   UNL     1       2.365   6.244  19.802  0.00  0.00    +0.000 A 
ATOM      3  C   UNL     1       3.325   6.004  18.820  0.00  0.00    +0.000 A 
ATOM      4  C   UNL     1       3.578   6.980  17.863  0.00  0.00    +0.000 A 
ATOM      5  C   UNL     1       2.825   8.153  17.881  0.00  0.00    +0.000 A 
ATOM      6  C   UNL     1       1.884   8.312  18.886  0.00  0.00    +0.000 A 
ATOM      7  N   UNL     1       1.658   7.390  19.865  0.00  0.00    +0.000 NA
ENDROOT
BRANCH   6   8
ATOM      8  C   UNL     1       1.027   9.540  18.935  0.00  0.00    +0.000 C 
ATOM      9  O   UNL     1       0.526   9.983  17.904  0.00  0.00    +0.000 OA
ATOM     10  N   UNL     1       0.928  10.112  20.188  0.00  0.00    +0.000 N 
ATOM     11  C   UNL     1       0.283  11.318  20.456  0.00  0.00    +0.000 A 
ATOM     12  C   UNL     1      -0.924  11.654  19.854  0.00  0.00    +0.000 A 
ATOM     13  C   UNL     1      -1.495  12.894  20.136  0.00  0.00    +0.000 A 
ATOM     14  C   UNL     1      -0.823  13.771  20.976  0.00  0.00    +0.000 A 
ATOM     15  C   UNL     1       0.363  13.343  21.548  0.00  0.00    +0.000 A 
ATOM     16  N   UNL     1       0.906  12.121  21.343  0.00  0.00    +0.000 NA
ATOM     17  H   UNL     1       1.624   9.829  20.869  0.00  0.00    +0.000 HD
ENDBRANCH   6   8
BRANCH   4  18
ATOM     18  O   UNL     1       4.495   6.873  16.854  0.00  0.00    +0.000 OA
BRANCH  18  19
ATOM     19  C   UNL     1       5.280   5.670  16.763  0.00  0.00    +0.000 C 
ATOM     20  C   UNL     1       6.572   5.800  17.575  0.00  0.00    +0.000 C 
ATOM     21  C   UNL     1       7.527   4.656  17.276  0.00  0.00    +0.000 C 
ATOM     22  O   UNL     1       7.793   4.574  15.879  0.00  0.00    +0.000 OA
ATOM     23  C   UNL     1       6.615   4.308  15.122  0.00  0.00    +0.000 C 
ATOM     24  C   UNL     1       5.607   5.437  15.284  0.00  0.00    +0.000 C 
ENDBRANCH  18  19
ENDBRANCH   4  18
TORSDOF 3
ENDMDL
MODEL 6
REMARK VINA RESULT:      -7.3      1.127      1.371
REMARK  Name = 
REMARK  4 active torsions:
REMARK  status: ('A' for Active; 'I' for Inactive)
REMARK    1  A    between atoms: C_1  and  C_2
REMARK    2  A    between atoms: C_4  and  O_5
REMARK    3  A    between atoms: O_5  and  C_6
REMARK    4  A    between atoms: C_13  and  C_14
REMARK                            x       y       z     vdW  Elec       q    Type
REMARK                         _______ _______ _______ _____ _____    ______ ____
ROOT
ATOM      1  C   UNL     1       1.511   3.320  21.359  0.00  0.00    +0.000 C 
ATOM      2  C   UNL     1       2.361   4.246  20.543  0.00  0.00    +0.000 A 
ATOM      3  C   UNL     1       3.548   3.794  19.969  0.00  0.00    +0.000 A 
ATOM      4  C   UNL     1       4.312   4.669  19.205  0.00  0.00    +0.000 A 
ATOM      5  C   UNL     1       3.841   5.963  18.992  0.00  0.00    +0.000 A 
ATOM      6  C   UNL     1       2.647   6.334  19.592  0.00  0.00    +0.000 A 
ATOM      7  N   UNL     1       1.911   5.507  20.387  0.00  0.00    +0.000 NA
ENDROOT
BRANCH   6   8
ATOM      8  C   UNL     1       2.081   7.704  19.372  0.00  0.00    +0.000 C 
ATOM      9  O   UNL     1       2.447   8.373  18.409  0.00  0.00    +0.000 OA
ATOM     10  N   UNL     1       1.205   8.119  20.354  0.00  0.00    +0.000 N 
ATOM     11  C   UNL     1       0.644   9.393  20.424  0.00  0.00    +0.000 A 
ATOM     12  C   UNL     1       0.193  10.059  19.290  0.00  0.00    +0.000 A 
ATOM     13  C   UNL     1      -0.320  11.348  19.426  0.00  0.00    +0.000 A 
ATOM     14  C   UNL     1      -0.329  11.942  20.681  0.00  0.00    +0.000 A 
ATOM     15  C   UNL     1       0.119  11.195  21.757  0.00  0.00    +0.000 A 
ATOM     16  N   UNL     1       0.561   9.920  21.663  0.00  0.00    +0.000 NA
ATOM     17  H   UNL     1       1.232   7.606  21.228  0.00  0.00    +0.000 HD
ENDBRANCH   6   8
BRANCH   4  18
ATOM     18  O   UNL     1       5.494   4.354  18.596  0.00  0.00    +0.000 OA
BRANCH  18  19
ATOM     19  C   UNL     1       5.724   4.826  17.256  0.00  0.00    +0.000 C 
ATOM     20  C   UNL     1       4.889   4.031  16.247  0.00  0.00    +0.000 C 
ATOM     21  C   UNL     1       5.316   4.332  14.820  0.00  0.00    +0.000 C 
ATOM     22  O   UNL     1       6.710   4.092  14.650  0.00  0.00    +0.000 OA
ATOM     23  C   UNL     1       7.506   4.932  15.482  0.00  0.00    +0.000 C 
ATOM     24  C   UNL     1       7.217   4.660  16.951  0.00  0.00    +0.000 C 
ENDBRANCH  18  19
ENDBRANCH   4  18
TORSDOF 3
ENDMDL
MODEL 7
REMARK VINA RESULT:      -7.2      3.057      8.281
REMARK  Name = 
REMARK  4 active torsions:
REMARK  status: ('A' for Active; 'I' for Inactive)
REMARK    1  A    between atoms: C_1  and  C_2
REMARK    2  A    between atoms: C_4  and  O_5
REMARK    3  A    between atoms: O_5  and  C_6
REMARK    4  A    between atoms: C_13  and  C_14
REMARK                            x       y       z     vdW  Elec       q    Type
REMARK                         _______ _______ _______ _____ _____    ______ ____
ROOT
ATOM      1  C   UNL     1       2.939   2.189  18.912  0.00  0.00    +0.000 C 
ATOM      2  C   UNL     1       3.253   3.629  18.636  0.00  0.00    +0.000 A 
ATOM      3  C   UNL     1       2.840   4.624  19.519  0.00  0.00    +0.000 A 
ATOM      4  C   UNL     1       3.156   5.950  19.247  0.00  0.00    +0.000 A 
ATOM      5  C   UNL     1       3.924   6.241  18.121  0.00  0.00    +0.000 A 
ATOM      6  C   UNL     1       4.303   5.194  17.296  0.00  0.00    +0.000 A 
ATOM      7  N   UNL     1       3.958   3.894  17.518  0.00  0.00    +0.000 NA
ENDROOT
BRANCH   6   8
ATOM      8  C   UNL     1       5.154   5.448  16.090  0.00  0.00    +0.000 C 
ATOM      9  O   UNL     1       5.421   6.600  15.757  0.00  0.00    +0.000 OA
ATOM     10  N   UNL     1       5.523   4.307  15.407  0.00  0.00    +0.000 N 
ATOM     11  C   UNL     1       6.215   4.301  14.196  0.00  0.00    +0.000 A 
ATOM     12  C   UNL     1       7.264   5.177  13.947  0.00  0.00    +0.000 A 
ATOM     13  C   UNL     1       7.886   5.145  12.700  0.00  0.00    +0.000 A 
ATOM     14  C   UNL     1       7.414   4.268  11.733  0.00  0.00    +0.000 A 
ATOM     15  C   UNL     1       6.378   3.416  12.077  0.00  0.00    +0.000 A 
ATOM     16  N   UNL     1       5.801   3.382  13.300  0.00  0.00    +0.000 NA
ATOM     17  H   UNL     1       4.990   3.468  15.608  0.00  0.00    +0.000 HD
ENDBRANCH   6   8
BRANCH   4  18
ATOM     18  O   UNL     1       2.805   7.018  20.026  0.00  0.00    +0.000 OA
BRANCH  18  19
ATOM     19  C   UNL     1       1.634   7.774  19.670  0.00  0.00    +0.000 C 
ATOM     20  C   UNL     1       1.932   8.723  18.505  0.00  0.00    +0.000 C 
ATOM     21  C   UNL     1       0.796   9.710  18.295  0.00  0.00    +0.000 C 
ATOM     22  O   UNL     1       0.521  10.425  19.495  0.00  0.00    +0.000 OA
ATOM     23  C   UNL     1       0.101   9.564  20.551  0.00  0.00    +0.000 C 
ATOM     24  C   UNL     1       1.200   8.573  20.904  0.00  0.00    +0.000 C 
ENDBRANCH  18  19
ENDBRANCH   4  18
TORSDOF 3
ENDMDL
MODEL 8
REMARK VINA RESULT:      -7.2      1.283      1.773
REMARK  Name = 
REMARK  4 active torsions:
REMARK  status: ('A' for Active; 'I' for Inactive)
REMARK    1  A    between atoms: C_1  and  C_2
REMARK    2  A    between atoms: C_4  and  O_5
REMARK    3  A    between atoms: O_5  and  C_6
REMARK    4  A    between atoms: C_13  and  C_14
REMARK                            x       y       z     vdW  Elec       q    Type
REMARK                         _______ _______ _______ _____ _____    ______ ____
ROOT
ATOM      1  C   UNL     1       1.982   3.808  21.333  0.00  0.00    +0.000 C 
ATOM      2  C   UNL     1       2.402   4.471  20.056  0.00  0.00    +0.000 A 
ATOM      3  C   UNL     1       2.937   3.719  19.013  0.00  0.00    +0.000 A 
ATOM      4  C   UNL     1       3.307   4.357  17.834  0.00  0.00    +0.000 A 
ATOM      5  C   UNL     1       3.084   5.727  17.711  0.00  0.00    +0.000 A 
ATOM      6  C   UNL     1       2.541   6.403  18.793  0.00  0.00    +0.000 A 
ATOM      7  N   UNL     1       2.220   5.804  19.975  0.00  0.00    +0.000 NA
ENDROOT
BRANCH   6   8
ATOM      8  C   UNL     1       2.253   7.870  18.704  0.00  0.00    +0.000 C 
ATOM      9  O   UNL     1       2.862   8.569  17.897  0.00  0.00    +0.000 OA
ATOM     10  N   UNL     1       1.327   8.323  19.622  0.00  0.00    +0.000 N 
ATOM     11  C   UNL     1       0.987   9.662  19.805  0.00  0.00    +0.000 A 
ATOM     12  C   UNL     1       0.824  10.530  18.732  0.00  0.00    +0.000 A 
ATOM     13  C   UNL     1       0.523  11.867  18.988  0.00  0.00    +0.000 A 
ATOM     14  C   UNL     1       0.434  12.299  20.304  0.00  0.00    +0.000 A 
ATOM     15  C   UNL     1       0.589  11.359  21.309  0.00  0.00    +0.000 A 
ATOM     16  N   UNL     1       0.817  10.045  21.088  0.00  0.00    +0.000 NA
ATOM     17  H   UNL     1       1.141   7.714  20.411  0.00  0.00    +0.000 HD
ENDBRANCH   6   8
BRANCH   4  18
ATOM     18  O   UNL     1       3.848   3.738  16.741  0.00  0.00    +0.000 OA
BRANCH  18  19
ATOM     19  C   UNL     1       5.269   3.825  16.534  0.00  0.00    +0.000 C 
ATOM     20  C   UNL     1       5.940   4.593  17.677  0.00  0.00    +0.000 C 
ATOM     21  C   UNL     1       7.386   4.923  17.344  0.00  0.00    +0.000 C 
ATOM     22  O   UNL     1       7.469   5.637  16.114  0.00  0.00    +0.000 OA
ATOM     23  C   UNL     1       6.979   4.873  15.014  0.00  0.00    +0.000 C 
ATOM     24  C   UNL     1       5.504   4.547  15.203  0.00  0.00    +0.000 C 
ENDBRANCH  18  19
ENDBRANCH   4  18
TORSDOF 3
ENDMDL
MODEL 9
REMARK VINA RESULT:      -7.2      2.395      7.749
REMARK  Name = 
REMARK  4 active torsions:
REMARK  status: ('A' for Active; 'I' for Inactive)
REMARK    1  A    between atoms: C_1  and  C_2
REMARK    2  A    between atoms: C_4  and  O_5
REMARK    3  A    between atoms: O_5  and  C_6
REMARK    4  A    between atoms: C_13  and  C_14
REMARK                            x       y       z     vdW  Elec       q    Type
REMARK                         _______ _______ _______ _____ _____    ______ ____
ROOT
ATOM      1  C   UNL     1       1.386   2.976  21.322  0.00  0.00    +0.000 C 
ATOM      2  C   UNL     1       1.946   4.055  20.445  0.00  0.00    +0.000 A 
ATOM      3  C   UNL     1       1.834   5.394  20.815  0.00  0.00    +0.000 A 
ATOM      4  C   UNL     1       2.373   6.375  19.991  0.00  0.00    +0.000 A 
ATOM      5  C   UNL     1       3.058   5.986  18.841  0.00  0.00    +0.000 A 
ATOM      6  C   UNL     1       3.132   4.633  18.547  0.00  0.00    +0.000 A 
ATOM      7  N   UNL     1       2.564   3.660  19.314  0.00  0.00    +0.000 NA
ENDROOT
BRANCH   6   8
ATOM      8  C   UNL     1       3.880   4.159  17.339  0.00  0.00    +0.000 C 
ATOM      9  O   UNL     1       3.911   2.962  17.065  0.00  0.00    +0.000 OA
ATOM     10  N   UNL     1       4.541   5.159  16.653  0.00  0.00    +0.000 N 
ATOM     11  C   UNL     1       5.391   4.943  15.570  0.00  0.00    +0.000 A 
ATOM     12  C   UNL     1       5.095   4.016  14.578  0.00  0.00    +0.000 A 
ATOM     13  C   UNL     1       6.009   3.821  13.544  0.00  0.00    +0.000 A 
ATOM     14  C   UNL     1       7.204   4.529  13.557  0.00  0.00    +0.000 A 
ATOM     15  C   UNL     1       7.404   5.448  14.573  0.00  0.00    +0.000 A 
ATOM     16  N   UNL     1       6.506   5.703  15.551  0.00  0.00    +0.000 NA
ATOM     17  H   UNL     1       4.682   6.030  17.152  0.00  0.00    +0.000 HD
ENDBRANCH   6   8
BRANCH   4  18
ATOM     18  O   UNL     1       2.326   7.720  20.234  0.00  0.00    +0.000 OA
BRANCH  18  19
ATOM     19  C   UNL     1       1.138   8.444  19.869  0.00  0.00    +0.000 C 
ATOM     20  C   UNL     1       1.368   9.261  18.594  0.00  0.00    +0.000 C 
ATOM     21  C   UNL     1       0.224  10.229  18.347  0.00  0.00    +0.000 C 
ATOM     22  O   UNL     1       0.021  11.070  19.478  0.00  0.00    +0.000 OA
ATOM     23  C   UNL     1      -0.338  10.329  20.642  0.00  0.00    +0.000 C 
ATOM     24  C   UNL     1       0.779   9.373  21.034  0.00  0.00    +0.000 C 
ENDBRANCH  18  19
ENDBRANCH   4  18
TORSDOF 3
ENDMDL
