MODEL 1
REMARK VINA RESULT:      -7.4      0.000      0.000
REMARK  Name = 
REMARK  12 active torsions:
REMARK  status: ('A' for Active; 'I' for Inactive)
REMARK    1  A    between atoms: C_1  and  O_2
REMARK    2  A    between atoms: O_2  and  C_3
REMARK    3  A    between atoms: C_6  and  C_7
REMARK    4  A    between atoms: C_14  and  C_15
REMARK    5  A    between atoms: N_19  and  C_20
REMARK    6  A    between atoms: C_20  and  C_21
REMARK    7  A    between atoms: C_21  and  N_22
REMARK    8  A    between atoms: N_22  and  C_23
REMARK    9  A    between atoms: N_22  and  C_24
REMARK   10  A    between atoms: C_24  and  C_25
REMARK   11  A    between atoms: C_24  and  C_26
REMARK   12  A    between atoms: C_29  and  C_30
REMARK                            x       y       z     vdW  Elec       q    Type
REMARK                         _______ _______ _______ _____ _____    ______ ____
ROOT
ATOM      1  C   UNL     1       2.636   6.381  17.688  0.00  0.00    +0.000 C 
ATOM      2  C   UNL     1       2.144   5.065  18.449  0.00  0.00    +0.000 C 
ATOM      3  C   UNL     1       2.961   3.915  19.060  0.00  0.00    +0.000 A 
ATOM      4  C   UNL     1       4.203   3.504  18.518  0.00  0.00    +0.000 A 
ATOM      5  C   UNL     1       4.903   2.378  18.968  0.00  0.00    +0.000 A 
ATOM      6  C   UNL     1       4.401   1.617  20.002  0.00  0.00    +0.000 A 
ATOM      7  C   UNL     1       3.179   1.969  20.555  0.00  0.00    +0.000 A 
ATOM      8  C   UNL     1       2.428   3.087  20.091  0.00  0.00    +0.000 A 
ATOM      9  N   UNL     1       4.864   4.287  17.561  0.00  0.00    +0.000 N 
ATOM     10  C   UNL     1       4.966   5.616  17.938  0.00  0.00    +0.000 C 
ATOM     11  O   UNL     1       5.543   5.981  18.962  0.00  0.00    +0.000 OA
ATOM     12  C   UNL     1       4.088   6.535  17.152  0.00  0.00    +0.000 C 
ATOM     13  C   UNL     1       4.746   7.920  17.107  0.00  0.00    +0.000 C 
ENDROOT
BRANCH   1  17
ATOM     14  C   UNL     1       1.038   9.881  19.691  0.00  0.00    +0.000 A 
ATOM     15  C   UNL     1       1.207   9.887  18.306  0.00  0.00    +0.000 A 
ATOM     16  C   UNL     1       1.755   8.780  17.649  0.00  0.00    +0.000 A 
ATOM     17  C   UNL     1       2.147   7.650  18.380  0.00  0.00    +0.000 A 
ATOM     18  C   UNL     1       2.030   7.680  19.779  0.00  0.00    +0.000 A 
ATOM     19  C   UNL     1       1.482   8.788  20.430  0.00  0.00    +0.000 A 
BRANCH  14  21
ATOM     20  C   UNL     1      -0.886  11.250  19.762  0.00  0.00    +0.000 C 
ATOM     21  O   UNL     1       0.439  10.993  20.219  0.00  0.00    +0.000 OA
ENDBRANCH  14  21
ENDBRANCH   1  17
BRANCH   8  22
ATOM     22  C   UNL     1       1.083   3.240  20.786  0.00  0.00    +0.000 C 
ATOM     23  F   UNL     1       0.936   2.617  21.981  0.00  0.00    +0.000 F 
ATOM     24  F   UNL     1       0.799   4.553  21.035  0.00  0.00    +0.000 F 
ATOM     25  F   UNL     1       0.056   2.794  20.006  0.00  0.00    +0.000 F 
ENDBRANCH   8  22
BRANCH   9  26
ATOM     26  C   UNL     1       4.735   3.837  16.158  0.00  0.00    +0.000 C 
BRANCH  26  27
ATOM     27  C   UNL     1       6.120   3.844  15.469  0.00  0.00    +0.000 C 
BRANCH  27  28
ATOM     28  N   UNL     1       6.236   4.538  14.165  0.00  0.00    +0.000 NA
ATOM     29  C   UNL     1       7.475   5.326  14.107  0.00  0.00    +0.000 C 
BRANCH  28  30
ATOM     30  C   UNL     1       6.176   3.546  13.047  0.00  0.00    +0.000 C 
ATOM     31  C   UNL     1       4.780   3.474  12.400  0.00  0.00    +0.000 C 
ATOM     32  C   UNL     1       7.180   3.856  11.923  0.00  0.00    +0.000 C 
ENDBRANCH  28  30
ENDBRANCH  27  28
ENDBRANCH  26  27
ENDBRANCH   9  26
TORSDOF 7
ENDMDL
MODEL 2
REMARK VINA RESULT:      -6.9      0.499      1.188
REMARK  Name = 
REMARK  12 active torsions:
REMARK  status: ('A' for Active; 'I' for Inactive)
REMARK    1  A    between atoms: C_1  and  O_2
REMARK    2  A    between atoms: O_2  and  C_3
REMARK    3  A    between atoms: C_6  and  C_7
REMARK    4  A    between atoms: C_14  and  C_15
REMARK    5  A    between atoms: N_19  and  C_20
REMARK    6  A    between atoms: C_20  and  C_21
REMARK    7  A    between atoms: C_21  and  N_22
REMARK    8  A    between atoms: N_22  and  C_23
REMARK    9  A    between atoms: N_22  and  C_24
REMARK   10  A    between atoms: C_24  and  C_25
REMARK   11  A    between atoms: C_24  and  C_26
REMARK   12  A    between atoms: C_29  and  C_30
REMARK                            x       y       z     vdW  Elec       q    Type
REMARK                         _______ _______ _______ _____ _____    ______ ____
ROOT
ATOM      1  C   UNL     1       2.609   6.472  17.661  0.00  0.00    +0.000 C 
ATOM      2  C   UNL     1       2.112   5.124  18.360  0.00  0.00    +0.000 C 
ATOM      3  C   UNL     1       2.926   3.967  18.963  0.00  0.00    +0.000 A 
ATOM      4  C   UNL     1       4.194   3.594  18.455  0.00  0.00    +0.000 A 
ATOM      5  C   UNL     1       4.896   2.464  18.893  0.00  0.00    +0.000 A 
ATOM      6  C   UNL     1       4.370   1.661  19.881  0.00  0.00    +0.000 A 
ATOM      7  C   UNL     1       3.122   1.975  20.399  0.00  0.00    +0.000 A 
ATOM      8  C   UNL     1       2.369   3.096  19.945  0.00  0.00    +0.000 A 
ATOM      9  N   UNL     1       4.876   4.419  17.550  0.00  0.00    +0.000 N 
ATOM     10  C   UNL     1       4.942   5.737  17.974  0.00  0.00    +0.000 C 
ATOM     11  O   UNL     1       5.474   6.075  19.030  0.00  0.00    +0.000 OA
ATOM     12  C   UNL     1       4.078   6.667  17.186  0.00  0.00    +0.000 C 
ATOM     13  C   UNL     1       4.713   8.063  17.212  0.00  0.00    +0.000 C 
ENDROOT
BRANCH   1  17
ATOM     14  C   UNL     1       1.296  10.090  19.661  0.00  0.00    +0.000 A 
ATOM     15  C   UNL     1       1.567   8.941  20.405  0.00  0.00    +0.000 A 
ATOM     16  C   UNL     1       1.956   7.757  19.773  0.00  0.00    +0.000 A 
ATOM     17  C   UNL     1       2.073   7.709  18.376  0.00  0.00    +0.000 A 
ATOM     18  C   UNL     1       1.738   8.853  17.634  0.00  0.00    +0.000 A 
ATOM     19  C   UNL     1       1.350  10.034  18.271  0.00  0.00    +0.000 A 
BRANCH  14  21
ATOM     20  C   UNL     1       1.459  12.439  19.856  0.00  0.00    +0.000 C 
ATOM     21  O   UNL     1       0.981  11.206  20.388  0.00  0.00    +0.000 OA
ENDBRANCH  14  21
ENDBRANCH   1  17
BRANCH   8  22
ATOM     22  C   UNL     1       0.997   3.204  20.594  0.00  0.00    +0.000 C 
ATOM     23  F   UNL     1      -0.051   2.695  19.899  0.00  0.00    +0.000 F 
ATOM     24  F   UNL     1       0.965   2.564  21.800  0.00  0.00    +0.000 F 
ATOM     25  F   UNL     1       0.667   4.499  20.867  0.00  0.00    +0.000 F 
ENDBRANCH   8  22
BRANCH   9  26
ATOM     26  C   UNL     1       4.807   4.015  16.128  0.00  0.00    +0.000 C 
BRANCH  26  27
ATOM     27  C   UNL     1       6.213   4.087  15.487  0.00  0.00    +0.000 C 
BRANCH  27  28
ATOM     28  N   UNL     1       6.315   4.636  14.114  0.00  0.00    +0.000 NA
ATOM     29  C   UNL     1       7.596   5.333  13.931  0.00  0.00    +0.000 C 
BRANCH  28  30
ATOM     30  C   UNL     1       6.149   3.541  13.108  0.00  0.00    +0.000 C 
ATOM     31  C   UNL     1       4.760   3.562  12.442  0.00  0.00    +0.000 C 
ATOM     32  C   UNL     1       7.193   3.607  11.981  0.00  0.00    +0.000 C 
ENDBRANCH  28  30
ENDBRANCH  27  28
ENDBRANCH  26  27
ENDBRANCH   9  26
TORSDOF 7
ENDMDL
MODEL 3
REMARK VINA RESULT:      -6.6      9.260     13.234
REMARK  Name = 
REMARK  12 active torsions:
REMARK  status: ('A' for Active; 'I' for Inactive)
REMARK    1  A    between atoms: C_1  and  O_2
REMARK    2  A    between atoms: O_2  and  C_3
REMARK    3  A    between atoms: C_6  and  C_7
REMARK    4  A    between atoms: C_14  and  C_15
REMARK    5  A    between atoms: N_19  and  C_20
REMARK    6  A    between atoms: C_20  and  C_21
REMARK    7  A    between atoms: C_21  and  N_22
REMARK    8  A    between atoms: N_22  and  C_23
REMARK    9  A    between atoms: N_22  and  C_24
REMARK   10  A    between atoms: C_24  and  C_25
REMARK   11  A    between atoms: C_24  and  C_26
REMARK   12  A    between atoms: C_29  and  C_30
REMARK                            x       y       z     vdW  Elec       q    Type
REMARK                         _______ _______ _______ _____ _____    ______ ____
ROOT
ATOM      1  C   UNL     1      -4.956  12.829  19.192  0.00  0.00    +0.000 C 
ATOM      2  C   UNL     1      -3.973  12.977  20.443  0.00  0.00    +0.000 C 
ATOM      3  C   UNL     1      -4.230  12.711  21.936  0.00  0.00    +0.000 A 
ATOM      4  C   UNL     1      -5.501  12.907  22.527  0.00  0.00    +0.000 A 
ATOM      5  C   UNL     1      -5.733  12.804  23.904  0.00  0.00    +0.000 A 
ATOM      6  C   UNL     1      -4.702  12.480  24.758  0.00  0.00    +0.000 A 
ATOM      7  C   UNL     1      -3.433  12.296  24.230  0.00  0.00    +0.000 A 
ATOM      8  C   UNL     1      -3.161  12.431  22.838  0.00  0.00    +0.000 A 
ATOM      9  N   UNL     1      -6.640  13.102  21.733  0.00  0.00    +0.000 N 
ATOM     10  C   UNL     1      -6.760  12.153  20.730  0.00  0.00    +0.000 C 
ATOM     11  O   UNL     1      -6.850  10.948  20.955  0.00  0.00    +0.000 OA
ATOM     12  C   UNL     1      -6.496  12.688  19.360  0.00  0.00    +0.000 C 
ATOM     13  C   UNL     1      -7.305  11.864  18.350  0.00  0.00    +0.000 C 
ENDROOT
BRANCH   1  17
ATOM     14  C   UNL     1      -3.193  10.198  16.228  0.00  0.00    +0.000 A 
ATOM     15  C   UNL     1      -4.223  11.067  15.865  0.00  0.00    +0.000 A 
ATOM     16  C   UNL     1      -4.827  11.895  16.816  0.00  0.00    +0.000 A 
ATOM     17  C   UNL     1      -4.405  11.857  18.153  0.00  0.00    +0.000 A 
ATOM     18  C   UNL     1      -3.411  10.935  18.519  0.00  0.00    +0.000 A 
ATOM     19  C   UNL     1      -2.812  10.109  17.564  0.00  0.00    +0.000 A 
BRANCH  14  21
ATOM     20  C   UNL     1      -3.009   9.892  13.893  0.00  0.00    +0.000 C 
ATOM     21  O   UNL     1      -2.638   9.477  15.205  0.00  0.00    +0.000 OA
ENDBRANCH  14  21
ENDBRANCH   1  17
BRANCH   8  22
ATOM     22  C   UNL     1      -1.689  12.265  22.491  0.00  0.00    +0.000 C 
ATOM     23  F   UNL     1      -0.914  11.621  23.400  0.00  0.00    +0.000 F 
ATOM     24  F   UNL     1      -1.528  11.563  21.330  0.00  0.00    +0.000 F 
ATOM     25  F   UNL     1      -1.081  13.466  22.271  0.00  0.00    +0.000 F 
ENDBRANCH   8  22
BRANCH   9  26
ATOM     26  C   UNL     1      -7.104  14.501  21.603  0.00  0.00    +0.000 C 
BRANCH  26  27
ATOM     27  C   UNL     1      -5.948  15.476  21.929  0.00  0.00    +0.000 C 
BRANCH  27  28
ATOM     28  N   UNL     1      -6.193  16.512  22.959  0.00  0.00    +0.000 NA
ATOM     29  C   UNL     1      -7.590  16.471  23.413  0.00  0.00    +0.000 C 
BRANCH  28  30
ATOM     30  C   UNL     1      -5.249  16.331  24.106  0.00  0.00    +0.000 C 
ATOM     31  C   UNL     1      -3.811  16.032  23.642  0.00  0.00    +0.000 C 
ATOM     32  C   UNL     1      -5.182  17.565  25.021  0.00  0.00    +0.000 C 
ENDBRANCH  28  30
ENDBRANCH  27  28
ENDBRANCH  26  27
ENDBRANCH   9  26
TORSDOF 7
ENDMDL
MODEL 4
REMARK VINA RESULT:      -6.5      6.864     10.931
REMARK  Name = 
REMARK  12 active torsions:
REMARK  status: ('A' for Active; 'I' for Inactive)
REMARK    1  A    between atoms: C_1  and  O_2
REMARK    2  A    between atoms: O_2  and  C_3
REMARK    3  A    between atoms: C_6  and  C_7
REMARK    4  A    between atoms: C_14  and  C_15
REMARK    5  A    between atoms: N_19  and  C_20
REMARK    6  A    between atoms: C_20  and  C_21
REMARK    7  A    between atoms: C_21  and  N_22
REMARK    8  A    between atoms: N_22  and  C_23
REMARK    9  A    between atoms: N_22  and  C_24
REMARK   10  A    between atoms: C_24  and  C_25
REMARK   11  A    between atoms: C_24  and  C_26
REMARK   12  A    between atoms: C_29  and  C_30
REMARK                            x       y       z     vdW  Elec       q    Type
REMARK                         _______ _______ _______ _____ _____    ______ ____
ROOT
ATOM      1  C   UNL     1       1.636  13.510  20.750  0.00  0.00    +0.000 C 
ATOM      2  C   UNL     1       1.249  12.075  20.164  0.00  0.00    +0.000 C 
ATOM      3  C   UNL     1       0.006  11.635  19.372  0.00  0.00    +0.000 A 
ATOM      4  C   UNL     1      -1.263  12.232  19.571  0.00  0.00    +0.000 A 
ATOM      5  C   UNL     1      -2.436  11.765  18.966  0.00  0.00    +0.000 A 
ATOM      6  C   UNL     1      -2.392  10.683  18.113  0.00  0.00    +0.000 A 
ATOM      7  C   UNL     1      -1.176  10.052  17.899  0.00  0.00    +0.000 A 
ATOM      8  C   UNL     1       0.026  10.483  18.531  0.00  0.00    +0.000 A 
ATOM      9  N   UNL     1      -1.391  13.418  20.307  0.00  0.00    +0.000 N 
ATOM     10  C   UNL     1      -0.501  14.399  19.899  0.00  0.00    +0.000 C 
ATOM     11  O   UNL     1      -0.477  14.848  18.755  0.00  0.00    +0.000 OA
ATOM     12  C   UNL     1       0.597  14.661  20.879  0.00  0.00    +0.000 C 
ATOM     13  C   UNL     1       1.046  16.119  20.729  0.00  0.00    +0.000 C 
ENDROOT
BRANCH   1  17
ATOM     14  C   UNL     1       5.355  15.138  19.223  0.00  0.00    +0.000 A 
ATOM     15  C   UNL     1       4.394  14.647  18.339  0.00  0.00    +0.000 A 
ATOM     16  C   UNL     1       3.206  14.085  18.816  0.00  0.00    +0.000 A 
ATOM     17  C   UNL     1       2.968  14.005  20.196  0.00  0.00    +0.000 A 
ATOM     18  C   UNL     1       3.969  14.446  21.077  0.00  0.00    +0.000 A 
ATOM     19  C   UNL     1       5.155  15.006  20.594  0.00  0.00    +0.000 A 
BRANCH  14  21
ATOM     20  C   UNL     1       7.184  14.884  17.751  0.00  0.00    +0.000 C 
ATOM     21  O   UNL     1       6.452  15.718  18.644  0.00  0.00    +0.000 OA
ENDBRANCH  14  21
ENDBRANCH   1  17
BRANCH   8  22
ATOM     22  C   UNL     1       1.224   9.600  18.217  0.00  0.00    +0.000 C 
ATOM     23  F   UNL     1       1.779   8.928  19.256  0.00  0.00    +0.000 F 
ATOM     24  F   UNL     1       0.905   8.635  17.303  0.00  0.00    +0.000 F 
ATOM     25  F   UNL     1       2.241  10.309  17.648  0.00  0.00    +0.000 F 
ENDBRANCH   8  22
BRANCH   9  26
ATOM     26  C   UNL     1      -1.865  13.265  21.700  0.00  0.00    +0.000 C 
BRANCH  26  27
ATOM     27  C   UNL     1      -2.850  14.404  22.054  0.00  0.00    +0.000 C 
BRANCH  27  28
ATOM     28  N   UNL     1      -4.227  14.026  22.449  0.00  0.00    +0.000 NA
ATOM     29  C   UNL     1      -4.593  12.727  21.866  0.00  0.00    +0.000 C 
BRANCH  28  30
ATOM     30  C   UNL     1      -4.346  13.999  23.941  0.00  0.00    +0.000 C 
ATOM     31  C   UNL     1      -4.201  12.579  24.516  0.00  0.00    +0.000 C 
ATOM     32  C   UNL     1      -3.292  14.880  24.636  0.00  0.00    +0.000 C 
ENDBRANCH  28  30
ENDBRANCH  27  28
ENDBRANCH  26  27
ENDBRANCH   9  26
TORSDOF 7
ENDMDL
MODEL 5
REMARK VINA RESULT:      -6.5      6.689     10.643
REMARK  Name = 
REMARK  12 active torsions:
REMARK  status: ('A' for Active; 'I' for Inactive)
REMARK    1  A    between atoms: C_1  and  O_2
REMARK    2  A    between atoms: O_2  and  C_3
REMARK    3  A    between atoms: C_6  and  C_7
REMARK    4  A    between atoms: C_14  and  C_15
REMARK    5  A    between atoms: N_19  and  C_20
REMARK    6  A    between atoms: C_20  and  C_21
REMARK    7  A    between atoms: C_21  and  N_22
REMARK    8  A    between atoms: N_22  and  C_23
REMARK    9  A    between atoms: N_22  and  C_24
REMARK   10  A    between atoms: C_24  and  C_25
REMARK   11  A    between atoms: C_24  and  C_26
REMARK   12  A    between atoms: C_29  and  C_30
REMARK                            x       y       z     vdW  Elec       q    Type
REMARK                         _______ _______ _______ _____ _____    ______ ____
ROOT
ATOM      1  C   UNL     1       1.312  13.251  20.871  0.00  0.00    +0.000 C 
ATOM      2  C   UNL     1       1.060  11.814  20.218  0.00  0.00    +0.000 C 
ATOM      3  C   UNL     1      -0.069  11.337  19.289  0.00  0.00    +0.000 A 
ATOM      4  C   UNL     1      -1.378  11.869  19.363  0.00  0.00    +0.000 A 
ATOM      5  C   UNL     1      -2.457  11.363  18.626  0.00  0.00    +0.000 A 
ATOM      6  C   UNL     1      -2.269  10.307  17.761  0.00  0.00    +0.000 A 
ATOM      7  C   UNL     1      -1.008   9.739  17.666  0.00  0.00    +0.000 A 
ATOM      8  C   UNL     1       0.098  10.210  18.432  0.00  0.00    +0.000 A 
ATOM      9  N   UNL     1      -1.642  13.029  20.105  0.00  0.00    +0.000 N 
ATOM     10  C   UNL     1      -0.763  14.060  19.815  0.00  0.00    +0.000 C 
ATOM     11  O   UNL     1      -0.641  14.539  18.689  0.00  0.00    +0.000 OA
ATOM     12  C   UNL     1       0.210  14.348  20.911  0.00  0.00    +0.000 C 
ATOM     13  C   UNL     1       0.601  15.829  20.840  0.00  0.00    +0.000 C 
ENDROOT
BRANCH   1  17
ATOM     14  C   UNL     1       5.094  15.087  19.803  0.00  0.00    +0.000 A 
ATOM     15  C   UNL     1       4.217  14.664  18.803  0.00  0.00    +0.000 A 
ATOM     16  C   UNL     1       3.011  14.037  19.130  0.00  0.00    +0.000 A 
ATOM     17  C   UNL     1       2.670  13.822  20.473  0.00  0.00    +0.000 A 
ATOM     18  C   UNL     1       3.588  14.195  21.469  0.00  0.00    +0.000 A 
ATOM     19  C   UNL     1       4.792  14.821  21.136  0.00  0.00    +0.000 A 
BRANCH  14  21
ATOM     20  C   UNL     1       6.017  17.089  18.954  0.00  0.00    +0.000 C 
ATOM     21  O   UNL     1       6.216  15.740  19.369  0.00  0.00    +0.000 OA
ENDBRANCH  14  21
ENDBRANCH   1  17
BRANCH   8  22
ATOM     22  C   UNL     1       1.364   9.391  18.229  0.00  0.00    +0.000 C 
ATOM     23  F   UNL     1       2.465  10.061  17.806  0.00  0.00    +0.000 F 
ATOM     24  F   UNL     1       1.749   8.776  19.387  0.00  0.00    +0.000 F 
ATOM     25  F   UNL     1       1.177   8.381  17.332  0.00  0.00    +0.000 F 
ENDBRANCH   8  22
BRANCH   9  26
ATOM     26  C   UNL     1      -2.253  12.818  21.436  0.00  0.00    +0.000 C 
BRANCH  26  27
ATOM     27  C   UNL     1      -3.679  13.417  21.466  0.00  0.00    +0.000 C 
BRANCH  27  28
ATOM     28  N   UNL     1      -4.760  12.591  22.052  0.00  0.00    +0.000 NA
ATOM     29  C   UNL     1      -5.012  12.982  23.447  0.00  0.00    +0.000 C 
BRANCH  28  30
ATOM     30  C   UNL     1      -6.003  12.709  21.227  0.00  0.00    +0.000 C 
ATOM     31  C   UNL     1      -5.907  11.926  19.905  0.00  0.00    +0.000 C 
ATOM     32  C   UNL     1      -7.255  12.202  21.964  0.00  0.00    +0.000 C 
ENDBRANCH  28  30
ENDBRANCH  27  28
ENDBRANCH  26  27
ENDBRANCH   9  26
TORSDOF 7
ENDMDL
MODEL 6
REMARK VINA RESULT:      -6.4      6.778     10.951
REMARK  Name = 
REMARK  12 active torsions:
REMARK  status: ('A' for Active; 'I' for Inactive)
REMARK    1  A    between atoms: C_1  and  O_2
REMARK    2  A    between atoms: O_2  and  C_3
REMARK    3  A    between atoms: C_6  and  C_7
REMARK    4  A    between atoms: C_14  and  C_15
REMARK    5  A    between atoms: N_19  and  C_20
REMARK    6  A    between atoms: C_20  and  C_21
REMARK    7  A    between atoms: C_21  and  N_22
REMARK    8  A    between atoms: N_22  and  C_23
REMARK    9  A    between atoms: N_22  and  C_24
REMARK   10  A    between atoms: C_24  and  C_25
REMARK   11  A    between atoms: C_24  and  C_26
REMARK   12  A    between atoms: C_29  and  C_30
REMARK                            x       y       z     vdW  Elec       q    Type
REMARK                         _______ _______ _______ _____ _____    ______ ____
ROOT
ATOM      1  C   UNL     1       1.256  13.329  20.934  0.00  0.00    +0.000 C 
ATOM      2  C   UNL     1       1.024  11.902  20.254  0.00  0.00    +0.000 C 
ATOM      3  C   UNL     1      -0.126  11.412  19.359  0.00  0.00    +0.000 A 
ATOM      4  C   UNL     1      -1.448  11.898  19.499  0.00  0.00    +0.000 A 
ATOM      5  C   UNL     1      -2.539  11.375  18.793  0.00  0.00    +0.000 A 
ATOM      6  C   UNL     1      -2.354  10.348  17.893  0.00  0.00    +0.000 A 
ATOM      7  C   UNL     1      -1.080   9.824  17.733  0.00  0.00    +0.000 A 
ATOM      8  C   UNL     1       0.041  10.312  18.466  0.00  0.00    +0.000 A 
ATOM      9  N   UNL     1      -1.719  13.029  20.282  0.00  0.00    +0.000 N 
ATOM     10  C   UNL     1      -0.886  14.096  19.983  0.00  0.00    +0.000 C 
ATOM     11  O   UNL     1      -0.825  14.607  18.866  0.00  0.00    +0.000 OA
ATOM     12  C   UNL     1       0.122  14.388  21.047  0.00  0.00    +0.000 C 
ATOM     13  C   UNL     1       0.462  15.883  21.000  0.00  0.00    +0.000 C 
ENDROOT
BRANCH   1  17
ATOM     14  C   UNL     1       5.086  14.892  19.625  0.00  0.00    +0.000 A 
ATOM     15  C   UNL     1       4.809  14.773  20.988  0.00  0.00    +0.000 A 
ATOM     16  C   UNL     1       3.566  14.306  21.427  0.00  0.00    +0.000 A 
ATOM     17  C   UNL     1       2.578  13.955  20.497  0.00  0.00    +0.000 A 
ATOM     18  C   UNL     1       2.845  14.136  19.130  0.00  0.00    +0.000 A 
ATOM     19  C   UNL     1       4.088  14.604  18.698  0.00  0.00    +0.000 A 
BRANCH  14  21
ATOM     20  C   UNL     1       6.793  14.979  17.996  0.00  0.00    +0.000 C 
ATOM     21  O   UNL     1       6.353  15.304  19.312  0.00  0.00    +0.000 OA
ENDBRANCH  14  21
ENDBRANCH   1  17
BRANCH   8  22
ATOM     22  C   UNL     1       1.323   9.541  18.192  0.00  0.00    +0.000 C 
ATOM     23  F   UNL     1       1.256   8.548  17.271  0.00  0.00    +0.000 F 
ATOM     24  F   UNL     1       2.315  10.369  17.746  0.00  0.00    +0.000 F 
ATOM     25  F   UNL     1       1.820   8.965  19.324  0.00  0.00    +0.000 F 
ENDBRANCH   8  22
BRANCH   9  26
ATOM     26  C   UNL     1      -2.268  12.765  21.630  0.00  0.00    +0.000 C 
BRANCH  26  27
ATOM     27  C   UNL     1      -3.788  13.050  21.649  0.00  0.00    +0.000 C 
BRANCH  27  28
ATOM     28  N   UNL     1      -4.572  12.524  22.791  0.00  0.00    +0.000 NA
ATOM     29  C   UNL     1      -3.741  12.455  24.001  0.00  0.00    +0.000 C 
BRANCH  28  30
ATOM     30  C   UNL     1      -5.784  13.371  23.017  0.00  0.00    +0.000 C 
ATOM     31  C   UNL     1      -6.814  12.690  23.937  0.00  0.00    +0.000 C 
ATOM     32  C   UNL     1      -5.446  14.734  23.646  0.00  0.00    +0.000 C 
ENDBRANCH  28  30
ENDBRANCH  27  28
ENDBRANCH  26  27
ENDBRANCH   9  26
TORSDOF 7
ENDMDL
MODEL 7
REMARK VINA RESULT:      -6.4      6.869     10.974
REMARK  Name = 
REMARK  12 active torsions:
REMARK  status: ('A' for Active; 'I' for Inactive)
REMARK    1  A    between atoms: C_1  and  O_2
REMARK    2  A    between atoms: O_2  and  C_3
REMARK    3  A    between atoms: C_6  and  C_7
REMARK    4  A    between atoms: C_14  and  C_15
REMARK    5  A    between atoms: N_19  and  C_20
REMARK    6  A    between atoms: C_20  and  C_21
REMARK    7  A    between atoms: C_21  and  N_22
REMARK    8  A    between atoms: N_22  and  C_23
REMARK    9  A    between atoms: N_22  and  C_24
REMARK   10  A    between atoms: C_24  and  C_25
REMARK   11  A    between atoms: C_24  and  C_26
REMARK   12  A    between atoms: C_29  and  C_30
REMARK                            x       y       z     vdW  Elec       q    Type
REMARK                         _______ _______ _______ _____ _____    ______ ____
ROOT
ATOM      1  C   UNL     1       1.700  13.625  20.630  0.00  0.00    +0.000 C 
ATOM      2  C   UNL     1       1.304  12.169  20.105  0.00  0.00    +0.000 C 
ATOM      3  C   UNL     1       0.054  11.702  19.340  0.00  0.00    +0.000 A 
ATOM      4  C   UNL     1      -1.210  12.312  19.523  0.00  0.00    +0.000 A 
ATOM      5  C   UNL     1      -2.390  11.825  18.945  0.00  0.00    +0.000 A 
ATOM      6  C   UNL     1      -2.355  10.710  18.136  0.00  0.00    +0.000 A 
ATOM      7  C   UNL     1      -1.143  10.066  17.940  0.00  0.00    +0.000 A 
ATOM      8  C   UNL     1       0.065  10.518  18.546  0.00  0.00    +0.000 A 
ATOM      9  N   UNL     1      -1.330  13.527  20.212  0.00  0.00    +0.000 N 
ATOM     10  C   UNL     1      -0.439  14.487  19.759  0.00  0.00    +0.000 C 
ATOM     11  O   UNL     1      -0.421  14.890  18.597  0.00  0.00    +0.000 OA
ATOM     12  C   UNL     1       0.667  14.784  20.720  0.00  0.00    +0.000 C 
ATOM     13  C   UNL     1       1.120  16.233  20.508  0.00  0.00    +0.000 C 
ENDROOT
BRANCH   1  17
ATOM     14  C   UNL     1       5.418  15.175  19.019  0.00  0.00    +0.000 A 
ATOM     15  C   UNL     1       4.439  14.677  18.159  0.00  0.00    +0.000 A 
ATOM     16  C   UNL     1       3.250  14.140  18.664  0.00  0.00    +0.000 A 
ATOM     17  C   UNL     1       3.031  14.092  20.048  0.00  0.00    +0.000 A 
ATOM     18  C   UNL     1       4.049  14.539  20.906  0.00  0.00    +0.000 A 
ATOM     19  C   UNL     1       5.235  15.074  20.396  0.00  0.00    +0.000 A 
BRANCH  14  21
ATOM     20  C   UNL     1       7.437  14.801  17.853  0.00  0.00    +0.000 C 
ATOM     21  O   UNL     1       6.513  15.729  18.413  0.00  0.00    +0.000 OA
ENDBRANCH  14  21
ENDBRANCH   1  17
BRANCH   8  22
ATOM     22  C   UNL     1       1.258   9.617  18.259  0.00  0.00    +0.000 C 
ATOM     23  F   UNL     1       2.375  10.216  17.777  0.00  0.00    +0.000 F 
ATOM     24  F   UNL     1       1.667   8.961  19.386  0.00  0.00    +0.000 F 
ATOM     25  F   UNL     1       0.948   8.635  17.365  0.00  0.00    +0.000 F 
ENDBRANCH   8  22
BRANCH   9  26
ATOM     26  C   UNL     1      -1.795  13.432  21.613  0.00  0.00    +0.000 C 
BRANCH  26  27
ATOM     27  C   UNL     1      -3.125  14.202  21.784  0.00  0.00    +0.000 C 
BRANCH  27  28
ATOM     28  N   UNL     1      -3.563  14.522  23.163  0.00  0.00    +0.000 NA
ATOM     29  C   UNL     1      -3.943  15.938  23.269  0.00  0.00    +0.000 C 
BRANCH  28  30
ATOM     30  C   UNL     1      -4.693  13.629  23.565  0.00  0.00    +0.000 C 
ATOM     31  C   UNL     1      -5.360  12.945  22.357  0.00  0.00    +0.000 C 
ATOM     32  C   UNL     1      -4.255  12.515  24.532  0.00  0.00    +0.000 C 
ENDBRANCH  28  30
ENDBRANCH  27  28
ENDBRANCH  26  27
ENDBRANCH   9  26
TORSDOF 7
ENDMDL
MODEL 8
REMARK VINA RESULT:      -6.4      7.023     11.072
REMARK  Name = 
REMARK  12 active torsions:
REMARK  status: ('A' for Active; 'I' for Inactive)
REMARK    1  A    between atoms: C_1  and  O_2
REMARK    2  A    between atoms: O_2  and  C_3
REMARK    3  A    between atoms: C_6  and  C_7
REMARK    4  A    between atoms: C_14  and  C_15
REMARK    5  A    between atoms: N_19  and  C_20
REMARK    6  A    between atoms: C_20  and  C_21
REMARK    7  A    between atoms: C_21  and  N_22
REMARK    8  A    between atoms: N_22  and  C_23
REMARK    9  A    between atoms: N_22  and  C_24
REMARK   10  A    between atoms: C_24  and  C_25
REMARK   11  A    between atoms: C_24  and  C_26
REMARK   12  A    between atoms: C_29  and  C_30
REMARK                            x       y       z     vdW  Elec       q    Type
REMARK                         _______ _______ _______ _____ _____    ______ ____
ROOT
ATOM      1  C   UNL     1       1.889  13.914  20.561  0.00  0.00    +0.000 C 
ATOM      2  C   UNL     1       1.453  12.450  20.092  0.00  0.00    +0.000 C 
ATOM      3  C   UNL     1       0.142  11.970  19.446  0.00  0.00    +0.000 A 
ATOM      4  C   UNL     1      -1.104  12.579  19.732  0.00  0.00    +0.000 A 
ATOM      5  C   UNL     1      -2.328  12.082  19.266  0.00  0.00    +0.000 A 
ATOM      6  C   UNL     1      -2.361  10.957  18.472  0.00  0.00    +0.000 A 
ATOM      7  C   UNL     1      -1.169  10.313  18.178  0.00  0.00    +0.000 A 
ATOM      8  C   UNL     1       0.086  10.775  18.669  0.00  0.00    +0.000 A 
ATOM      9  N   UNL     1      -1.166  13.803  20.413  0.00  0.00    +0.000 N 
ATOM     10  C   UNL     1      -0.322  14.759  19.870  0.00  0.00    +0.000 C 
ATOM     11  O   UNL     1      -0.408  15.147  18.706  0.00  0.00    +0.000 OA
ATOM     12  C   UNL     1       0.863  15.071  20.726  0.00  0.00    +0.000 C 
ATOM     13  C   UNL     1       1.291  16.519  20.457  0.00  0.00    +0.000 C 
ENDROOT
BRANCH   1  17
ATOM     14  C   UNL     1       5.555  15.003  18.515  0.00  0.00    +0.000 A 
ATOM     15  C   UNL     1       5.484  15.079  19.906  0.00  0.00    +0.000 A 
ATOM     16  C   UNL     1       4.298  14.767  20.578  0.00  0.00    +0.000 A 
ATOM     17  C   UNL     1       3.161  14.376  19.857  0.00  0.00    +0.000 A 
ATOM     18  C   UNL     1       3.226  14.362  18.454  0.00  0.00    +0.000 A 
ATOM     19  C   UNL     1       4.414  14.676  17.788  0.00  0.00    +0.000 A 
BRANCH  14  21
ATOM     20  C   UNL     1       7.716  14.199  18.001  0.00  0.00    +0.000 C 
ATOM     21  O   UNL     1       6.781  15.274  17.969  0.00  0.00    +0.000 OA
ENDBRANCH  14  21
ENDBRANCH   1  17
BRANCH   8  22
ATOM     22  C   UNL     1       1.252   9.874  18.290  0.00  0.00    +0.000 C 
ATOM     23  F   UNL     1       2.346  10.477  17.761  0.00  0.00    +0.000 F 
ATOM     24  F   UNL     1       1.720   9.184  19.373  0.00  0.00    +0.000 F 
ATOM     25  F   UNL     1       0.883   8.919  17.389  0.00  0.00    +0.000 F 
ENDBRANCH   8  22
BRANCH   9  26
ATOM     26  C   UNL     1      -1.506  13.725  21.850  0.00  0.00    +0.000 C 
BRANCH  26  27
ATOM     27  C   UNL     1      -2.537  14.819  22.212  0.00  0.00    +0.000 C 
BRANCH  27  28
ATOM     28  N   UNL     1      -3.532  14.506  23.265  0.00  0.00    +0.000 NA
ATOM     29  C   UNL     1      -4.704  15.386  23.148  0.00  0.00    +0.000 C 
BRANCH  28  30
ATOM     30  C   UNL     1      -3.930  13.066  23.186  0.00  0.00    +0.000 C 
ATOM     31  C   UNL     1      -4.352  12.497  24.553  0.00  0.00    +0.000 C 
ATOM     32  C   UNL     1      -5.099  12.826  22.215  0.00  0.00    +0.000 C 
ENDBRANCH  28  30
ENDBRANCH  27  28
ENDBRANCH  26  27
ENDBRANCH   9  26
TORSDOF 7
ENDMDL
MODEL 9
REMARK VINA RESULT:      -6.3      6.911     10.852
REMARK  Name = 
REMARK  12 active torsions:
REMARK  status: ('A' for Active; 'I' for Inactive)
REMARK    1  A    between atoms: C_1  and  O_2
REMARK    2  A    between atoms: O_2  and  C_3
REMARK    3  A    between atoms: C_6  and  C_7
REMARK    4  A    between atoms: C_14  and  C_15
REMARK    5  A    between atoms: N_19  and  C_20
REMARK    6  A    between atoms: C_20  and  C_21
REMARK    7  A    between atoms: C_21  and  N_22
REMARK    8  A    between atoms: N_22  and  C_23
REMARK    9  A    between atoms: N_22  and  C_24
REMARK   10  A    between atoms: C_24  and  C_25
REMARK   11  A    between atoms: C_24  and  C_26
REMARK   12  A    between atoms: C_29  and  C_30
REMARK                            x       y       z     vdW  Elec       q    Type
REMARK                         _______ _______ _______ _____ _____    ______ ____
ROOT
ATOM      1  C   UNL     1       1.748  13.636  20.671  0.00  0.00    +0.000 C 
ATOM      2  C   UNL     1       1.320  12.192  20.138  0.00  0.00    +0.000 C 
ATOM      3  C   UNL     1       0.054  11.755  19.381  0.00  0.00    +0.000 A 
ATOM      4  C   UNL     1      -1.198  12.386  19.582  0.00  0.00    +0.000 A 
ATOM      5  C   UNL     1      -2.391  11.926  19.012  0.00  0.00    +0.000 A 
ATOM      6  C   UNL     1      -2.386  10.818  18.193  0.00  0.00    +0.000 A 
ATOM      7  C   UNL     1      -1.187  10.154  17.980  0.00  0.00    +0.000 A 
ATOM      8  C   UNL     1       0.035  10.578  18.577  0.00  0.00    +0.000 A 
ATOM      9  N   UNL     1      -1.288  13.597  20.283  0.00  0.00    +0.000 N 
ATOM     10  C   UNL     1      -0.384  14.544  19.829  0.00  0.00    +0.000 C 
ATOM     11  O   UNL     1      -0.370  14.957  18.671  0.00  0.00    +0.000 OA
ATOM     12  C   UNL     1       0.737  14.813  20.781  0.00  0.00    +0.000 C 
ATOM     13  C   UNL     1       1.215  16.256  20.578  0.00  0.00    +0.000 C 
ENDROOT
BRANCH   1  17
ATOM     14  C   UNL     1       5.472  15.133  19.026  0.00  0.00    +0.000 A 
ATOM     15  C   UNL     1       4.497  14.605  18.179  0.00  0.00    +0.000 A 
ATOM     16  C   UNL     1       3.307  14.085  18.696  0.00  0.00    +0.000 A 
ATOM     17  C   UNL     1       3.081  14.084  20.080  0.00  0.00    +0.000 A 
ATOM     18  C   UNL     1       4.095  14.561  20.927  0.00  0.00    +0.000 A 
ATOM     19  C   UNL     1       5.282  15.078  20.404  0.00  0.00    +0.000 A 
BRANCH  14  21
ATOM     20  C   UNL     1       7.456  14.722  17.812  0.00  0.00    +0.000 C 
ATOM     21  O   UNL     1       6.570  15.667  18.407  0.00  0.00    +0.000 OA
ENDBRANCH  14  21
ENDBRANCH   1  17
BRANCH   8  22
ATOM     22  C   UNL     1       1.208   9.658  18.271  0.00  0.00    +0.000 C 
ATOM     23  F   UNL     1       1.748   8.985  19.317  0.00  0.00    +0.000 F 
ATOM     24  F   UNL     1       0.860   8.691  17.371  0.00  0.00    +0.000 F 
ATOM     25  F   UNL     1       2.242  10.332  17.690  0.00  0.00    +0.000 F 
ENDBRANCH   8  22
BRANCH   9  26
ATOM     26  C   UNL     1      -1.741  13.498  21.687  0.00  0.00    +0.000 C 
BRANCH  26  27
ATOM     27  C   UNL     1      -2.648  14.701  22.039  0.00  0.00    +0.000 C 
BRANCH  27  28
ATOM     28  N   UNL     1      -4.114  14.487  22.014  0.00  0.00    +0.000 NA
ATOM     29  C   UNL     1      -4.669  14.869  20.707  0.00  0.00    +0.000 C 
BRANCH  28  30
ATOM     30  C   UNL     1      -4.432  13.062  22.339  0.00  0.00    +0.000 C 
ATOM     31  C   UNL     1      -4.729  12.853  23.836  0.00  0.00    +0.000 C 
ATOM     32  C   UNL     1      -5.647  12.532  21.558  0.00  0.00    +0.000 C 
ENDBRANCH  28  30
ENDBRANCH  27  28
ENDBRANCH  26  27
ENDBRANCH   9  26
TORSDOF 7
ENDMDL
