MODEL 1
REMARK VINA RESULT:      -4.8      0.000      0.000
REMARK  Name = 
REMARK  2 active torsions:
REMARK  status: ('A' for Active; 'I' for Inactive)
REMARK    1  A    between atoms: O_1  and  C_2
REMARK    2  A    between atoms: C_8  and  O_9
REMARK                            x       y       z     vdW  Elec       q    Type
REMARK                         _______ _______ _______ _____ _____    ______ ____
ROOT
ATOM      1  C   UNL     1       3.564   2.074  18.269  0.00  0.00    +0.000 C 
ATOM      2  C   UNL     1       2.052   2.088  18.280  0.00  0.00    +0.000 C 
ATOM      3  N   UNL     1       1.470   2.618  19.306  0.00  0.00    +0.000 NA
ATOM      4  C   UNL     1       2.517   3.071  20.173  0.00  0.00    +0.000 C 
ATOM      5  C   UNL     1       2.260   3.015  21.662  0.00  0.00    +0.000 C 
ATOM      6  C   UNL     1       2.234   4.333  20.958  0.00  0.00    +0.000 C 
ATOM      7  C   UNL     1       3.887   2.820  19.582  0.00  0.00    +0.000 C 
ENDROOT
BRANCH   1   8
ATOM      8  O   UNL     1       4.036   0.733  18.293  0.00  0.00    +0.000 OA
ATOM      9  H   UNL     1       3.507   0.248  18.950  0.00  0.00    +0.000 HD
ENDBRANCH   1   8
BRANCH   7  10
ATOM     10  O   UNL     1       4.688   2.025  20.455  0.00  0.00    +0.000 OA
ATOM     11  H   UNL     1       5.564   1.979  20.022  0.00  0.00    +0.000 HD
ENDBRANCH   7  10
TORSDOF 2
ENDMDL
MODEL 2
REMARK VINA RESULT:      -4.7      2.232      3.077
REMARK  Name = 
REMARK  2 active torsions:
REMARK  status: ('A' for Active; 'I' for Inactive)
REMARK    1  A    between atoms: O_1  and  C_2
REMARK    2  A    between atoms: C_8  and  O_9
REMARK                            x       y       z     vdW  Elec       q    Type
REMARK                         _______ _______ _______ _____ _____    ______ ____
ROOT
ATOM      1  C   UNL     1       5.352   4.609  18.810  0.00  0.00    +0.000 C 
ATOM      2  C   UNL     1       4.690   4.992  17.506  0.00  0.00    +0.000 C 
ATOM      3  N   UNL     1       3.613   4.358  17.176  0.00  0.00    +0.000 NA
ATOM      4  C   UNL     1       3.356   3.426  18.234  0.00  0.00    +0.000 C 
ATOM      5  C   UNL     1       2.718   2.108  17.859  0.00  0.00    +0.000 C 
ATOM      6  C   UNL     1       1.901   3.154  18.544  0.00  0.00    +0.000 C 
ATOM      7  C   UNL     1       4.374   3.541  19.347  0.00  0.00    +0.000 C 
ENDROOT
BRANCH   1   8
ATOM      8  O   UNL     1       6.641   4.065  18.558  0.00  0.00    +0.000 OA
ATOM      9  H   UNL     1       7.295   4.657  18.971  0.00  0.00    +0.000 HD
ENDBRANCH   1   8
BRANCH   7  10
ATOM     10  O   UNL     1       5.030   2.295  19.578  0.00  0.00    +0.000 OA
ATOM     11  H   UNL     1       5.790   2.292  18.962  0.00  0.00    +0.000 HD
ENDBRANCH   7  10
TORSDOF 2
ENDMDL
MODEL 3
REMARK VINA RESULT:      -4.7      4.929      5.469
REMARK  Name = 
REMARK  2 active torsions:
REMARK  status: ('A' for Active; 'I' for Inactive)
REMARK    1  A    between atoms: O_1  and  C_2
REMARK    2  A    between atoms: C_8  and  O_9
REMARK                            x       y       z     vdW  Elec       q    Type
REMARK                         _______ _______ _______ _____ _____    ______ ____
ROOT
ATOM      1  C   UNL     1       5.697   4.566  16.098  0.00  0.00    +0.000 C 
ATOM      2  C   UNL     1       4.816   5.437  16.966  0.00  0.00    +0.000 C 
ATOM      3  N   UNL     1       5.402   6.307  17.722  0.00  0.00    +0.000 NA
ATOM      4  C   UNL     1       6.807   6.174  17.476  0.00  0.00    +0.000 C 
ATOM      5  C   UNL     1       7.742   6.431  18.635  0.00  0.00    +0.000 C 
ATOM      6  C   UNL     1       7.620   7.448  17.547  0.00  0.00    +0.000 C 
ATOM      7  C   UNL     1       7.098   5.130  16.421  0.00  0.00    +0.000 C 
ENDROOT
BRANCH   1   8
ATOM      8  O   UNL     1       5.572   3.205  16.492  0.00  0.00    +0.000 OA
ATOM      9  H   UNL     1       5.319   2.694  15.703  0.00  0.00    +0.000 HD
ENDBRANCH   1   8
BRANCH   7  10
ATOM     10  O   UNL     1       7.969   4.118  16.923  0.00  0.00    +0.000 OA
ATOM     11  H   UNL     1       8.593   3.936  16.191  0.00  0.00    +0.000 HD
ENDBRANCH   7  10
TORSDOF 2
ENDMDL
MODEL 4
REMARK VINA RESULT:      -4.6      4.331      5.601
REMARK  Name = 
REMARK  2 active torsions:
REMARK  status: ('A' for Active; 'I' for Inactive)
REMARK    1  A    between atoms: O_1  and  C_2
REMARK    2  A    between atoms: C_8  and  O_9
REMARK                            x       y       z     vdW  Elec       q    Type
REMARK                         _______ _______ _______ _____ _____    ______ ____
ROOT
ATOM      1  C   UNL     1       5.929   4.637  18.409  0.00  0.00    +0.000 C 
ATOM      2  C   UNL     1       7.356   4.679  17.912  0.00  0.00    +0.000 C 
ATOM      3  N   UNL     1       7.541   4.637  16.633  0.00  0.00    +0.000 NA
ATOM      4  C   UNL     1       6.239   4.571  16.040  0.00  0.00    +0.000 C 
ATOM      5  C   UNL     1       6.099   3.783  14.757  0.00  0.00    +0.000 C 
ATOM      6  C   UNL     1       6.074   5.276  14.712  0.00  0.00    +0.000 C 
ATOM      7  C   UNL     1       5.142   4.618  17.080  0.00  0.00    +0.000 C 
ENDROOT
BRANCH   1   8
ATOM      8  O   UNL     1       5.714   3.454  19.167  0.00  0.00    +0.000 OA
ATOM      9  H   UNL     1       5.642   2.713  18.540  0.00  0.00    +0.000 HD
ENDBRANCH   1   8
BRANCH   7  10
ATOM     10  O   UNL     1       4.293   3.474  16.988  0.00  0.00    +0.000 OA
ATOM     11  H   UNL     1       3.383   3.834  16.998  0.00  0.00    +0.000 HD
ENDBRANCH   7  10
TORSDOF 2
ENDMDL
MODEL 5
REMARK VINA RESULT:      -4.6      3.820      4.486
REMARK  Name = 
REMARK  2 active torsions:
REMARK  status: ('A' for Active; 'I' for Inactive)
REMARK    1  A    between atoms: O_1  and  C_2
REMARK    2  A    between atoms: C_8  and  O_9
REMARK                            x       y       z     vdW  Elec       q    Type
REMARK                         _______ _______ _______ _____ _____    ______ ____
ROOT
ATOM      1  C   UNL     1       7.056   4.919  16.953  0.00  0.00    +0.000 C 
ATOM      2  C   UNL     1       6.471   4.399  15.659  0.00  0.00    +0.000 C 
ATOM      3  N   UNL     1       5.254   3.962  15.690  0.00  0.00    +0.000 NA
ATOM      4  C   UNL     1       4.801   4.128  17.038  0.00  0.00    +0.000 C 
ATOM      5  C   UNL     1       3.829   3.103  17.577  0.00  0.00    +0.000 C 
ATOM      6  C   UNL     1       3.337   4.467  17.213  0.00  0.00    +0.000 C 
ATOM      7  C   UNL     1       5.853   4.777  17.911  0.00  0.00    +0.000 C 
ENDROOT
BRANCH   1   8
ATOM      8  O   UNL     1       8.149   4.103  17.353  0.00  0.00    +0.000 OA
ATOM      9  H   UNL     1       7.915   3.179  17.151  0.00  0.00    +0.000 HD
ENDBRANCH   1   8
BRANCH   7  10
ATOM     10  O   UNL     1       6.169   3.957  19.035  0.00  0.00    +0.000 OA
ATOM     11  H   UNL     1       5.359   3.958  19.584  0.00  0.00    +0.000 HD
ENDBRANCH   7  10
TORSDOF 2
ENDMDL
MODEL 6
REMARK VINA RESULT:      -4.6      4.750      5.915
REMARK  Name = 
REMARK  2 active torsions:
REMARK  status: ('A' for Active; 'I' for Inactive)
REMARK    1  A    between atoms: O_1  and  C_2
REMARK    2  A    between atoms: C_8  and  O_9
REMARK                            x       y       z     vdW  Elec       q    Type
REMARK                         _______ _______ _______ _____ _____    ______ ____
ROOT
ATOM      1  C   UNL     1       6.541   5.958  18.875  0.00  0.00    +0.000 C 
ATOM      2  C   UNL     1       7.451   6.644  17.880  0.00  0.00    +0.000 C 
ATOM      3  N   UNL     1       7.388   6.254  16.649  0.00  0.00    +0.000 NA
ATOM      4  C   UNL     1       6.393   5.224  16.604  0.00  0.00    +0.000 C 
ATOM      5  C   UNL     1       6.598   4.102  15.611  0.00  0.00    +0.000 C 
ATOM      6  C   UNL     1       5.567   5.149  15.340  0.00  0.00    +0.000 C 
ATOM      7  C   UNL     1       5.756   4.995  17.957  0.00  0.00    +0.000 C 
ENDROOT
BRANCH   1   8
ATOM      8  O   UNL     1       7.317   5.256  19.838  0.00  0.00    +0.000 OA
ATOM      9  H   UNL     1       8.222   5.613  19.801  0.00  0.00    +0.000 HD
ENDBRANCH   1   8
BRANCH   7  10
ATOM     10  O   UNL     1       5.900   3.638  18.374  0.00  0.00    +0.000 OA
ATOM     11  H   UNL     1       5.491   3.110  17.659  0.00  0.00    +0.000 HD
ENDBRANCH   7  10
TORSDOF 2
ENDMDL
MODEL 7
REMARK VINA RESULT:      -4.6      4.174      4.752
REMARK  Name = 
REMARK  2 active torsions:
REMARK  status: ('A' for Active; 'I' for Inactive)
REMARK    1  A    between atoms: O_1  and  C_2
REMARK    2  A    between atoms: C_8  and  O_9
REMARK                            x       y       z     vdW  Elec       q    Type
REMARK                         _______ _______ _______ _____ _____    ______ ____
ROOT
ATOM      1  C   UNL     1       7.368   5.227  17.724  0.00  0.00    +0.000 C 
ATOM      2  C   UNL     1       6.894   5.633  16.347  0.00  0.00    +0.000 C 
ATOM      3  N   UNL     1       5.620   5.612  16.126  0.00  0.00    +0.000 NA
ATOM      4  C   UNL     1       5.007   5.189  17.350  0.00  0.00    +0.000 C 
ATOM      5  C   UNL     1       3.746   4.361  17.245  0.00  0.00    +0.000 C 
ATOM      6  C   UNL     1       3.656   5.793  17.663  0.00  0.00    +0.000 C 
ATOM      7  C   UNL     1       6.027   4.968  18.445  0.00  0.00    +0.000 C 
ENDROOT
BRANCH   1   8
ATOM      8  O   UNL     1       8.157   4.048  17.637  0.00  0.00    +0.000 OA
ATOM      9  H   UNL     1       7.846   3.543  16.865  0.00  0.00    +0.000 HD
ENDBRANCH   1   8
BRANCH   7  10
ATOM     10  O   UNL     1       5.954   3.639  18.959  0.00  0.00    +0.000 OA
ATOM     11  H   UNL     1       6.256   3.068  18.225  0.00  0.00    +0.000 HD
ENDBRANCH   7  10
TORSDOF 2
ENDMDL
MODEL 8
REMARK VINA RESULT:      -4.6      5.425      6.330
REMARK  Name = 
REMARK  2 active torsions:
REMARK  status: ('A' for Active; 'I' for Inactive)
REMARK    1  A    between atoms: O_1  and  C_2
REMARK    2  A    between atoms: C_8  and  O_9
REMARK                            x       y       z     vdW  Elec       q    Type
REMARK                         _______ _______ _______ _____ _____    ______ ____
ROOT
ATOM      1  C   UNL     1       6.862   5.945  18.433  0.00  0.00    +0.000 C 
ATOM      2  C   UNL     1       6.367   7.007  17.477  0.00  0.00    +0.000 C 
ATOM      3  N   UNL     1       6.160   6.654  16.251  0.00  0.00    +0.000 NA
ATOM      4  C   UNL     1       6.478   5.259  16.175  0.00  0.00    +0.000 C 
ATOM      5  C   UNL     1       7.067   4.749  14.880  0.00  0.00    +0.000 C 
ATOM      6  C   UNL     1       5.645   4.436  15.217  0.00  0.00    +0.000 C 
ATOM      7  C   UNL     1       6.885   4.699  17.521  0.00  0.00    +0.000 C 
ENDROOT
BRANCH   1   8
ATOM      8  O   UNL     1       8.162   6.281  18.900  0.00  0.00    +0.000 OA
ATOM      9  H   UNL     1       8.074   6.582  19.822  0.00  0.00    +0.000 HD
ENDBRANCH   1   8
BRANCH   7  10
ATOM     10  O   UNL     1       8.184   4.112  17.464  0.00  0.00    +0.000 OA
ATOM     11  H   UNL     1       8.082   3.328  16.888  0.00  0.00    +0.000 HD
ENDBRANCH   7  10
TORSDOF 2
ENDMDL
MODEL 9
REMARK VINA RESULT:      -4.6      1.640      2.180
REMARK  Name = 
REMARK  2 active torsions:
REMARK  status: ('A' for Active; 'I' for Inactive)
REMARK    1  A    between atoms: O_1  and  C_2
REMARK    2  A    between atoms: C_8  and  O_9
REMARK                            x       y       z     vdW  Elec       q    Type
REMARK                         _______ _______ _______ _____ _____    ______ ____
ROOT
ATOM      1  C   UNL     1       4.516   3.262  19.055  0.00  0.00    +0.000 C 
ATOM      2  C   UNL     1       3.971   4.626  19.414  0.00  0.00    +0.000 C 
ATOM      3  N   UNL     1       2.798   4.674  19.956  0.00  0.00    +0.000 NA
ATOM      4  C   UNL     1       2.349   3.318  20.065  0.00  0.00    +0.000 C 
ATOM      5  C   UNL     1       0.867   3.063  19.917  0.00  0.00    +0.000 C 
ATOM      6  C   UNL     1       1.496   2.993  21.270  0.00  0.00    +0.000 C 
ATOM      7  C   UNL     1       3.389   2.338  19.568  0.00  0.00    +0.000 C 
ENDROOT
BRANCH   1   8
ATOM      8  O   UNL     1       4.680   3.161  17.646  0.00  0.00    +0.000 OA
ATOM      9  H   UNL     1       4.889   4.051  17.311  0.00  0.00    +0.000 HD
ENDBRANCH   1   8
BRANCH   7  10
ATOM     10  O   UNL     1       2.867   1.516  18.525  0.00  0.00    +0.000 OA
ATOM     11  H   UNL     1       2.411   2.134  17.920  0.00  0.00    +0.000 HD
ENDBRANCH   7  10
TORSDOF 2
ENDMDL
