MODEL 1
REMARK VINA RESULT:      -9.1      0.000      0.000
REMARK  Name = 
REMARK  10 active torsions:
REMARK  status: ('A' for Active; 'I' for Inactive)
REMARK    1  A    between atoms: C_1  and  C_2
REMARK    2  A    between atoms: C_5  and  C_6
REMARK    3  A    between atoms: C_9  and  C_10
REMARK    4  A    between atoms: C_21  and  S_22
REMARK    5  A    between atoms: S_22  and  N_25
REMARK    6  A    between atoms: N_25  and  C_26
REMARK    7  A    between atoms: C_26  and  C_27
REMARK    8  A    between atoms: C_26  and  C_28
REMARK    9  A    between atoms: C_26  and  C_29
REMARK   10  A    between atoms: C_29  and  O_30
REMARK                            x       y       z     vdW  Elec       q    Type
REMARK                         _______ _______ _______ _____ _____    ______ ____
ROOT
ATOM      1  C   UNL     1       1.019  11.696  19.056  0.00  0.00    +0.000 C 
ATOM      2  C   UNL     1       1.427  10.251  18.992  0.00  0.00    +0.000 A 
ATOM      3  C   UNL     1       2.006   9.798  17.798  0.00  0.00    +0.000 A 
ATOM      4  C   UNL     1       2.380   8.463  17.638  0.00  0.00    +0.000 A 
ATOM      5  C   UNL     1       2.294   7.568  18.705  0.00  0.00    +0.000 A 
ATOM      6  C   UNL     1       1.678   7.987  19.889  0.00  0.00    +0.000 A 
ATOM      7  C   UNL     1       1.200   9.307  20.013  0.00  0.00    +0.000 A 
ENDROOT
BRANCH   5   8
ATOM      8  C   UNL     1       2.757   6.144  18.579  0.00  0.00    +0.000 A 
ATOM      9  N   UNL     1       2.192   5.282  19.389  0.00  0.00    +0.000 NA
ATOM     10  N   UNL     1       2.563   3.975  19.223  0.00  0.00    +0.000 N 
ATOM     11  C   UNL     1       2.146   2.872  19.934  0.00  0.00    +0.000 A 
ATOM     12  C   UNL     1       1.196   2.916  21.062  0.00  0.00    +0.000 C 
ATOM     13  N   UNL     1       2.727   1.793  19.442  0.00  0.00    +0.000 NA
ATOM     14  N   UNL     1       3.531   2.179  18.395  0.00  0.00    +0.000 NA
ATOM     15  C   UNL     1       3.425   3.484  18.278  0.00  0.00    +0.000 A 
ATOM     16  C   UNL     1       4.072   4.401  17.374  0.00  0.00    +0.000 A 
ATOM     17  C   UNL     1       4.962   3.963  16.389  0.00  0.00    +0.000 A 
ATOM     18  C   UNL     1       5.591   4.889  15.559  0.00  0.00    +0.000 A 
ATOM     19  C   UNL     1       5.374   6.250  15.752  0.00  0.00    +0.000 A 
ATOM     20  C   UNL     1       4.513   6.689  16.761  0.00  0.00    +0.000 A 
ATOM     21  C   UNL     1       3.803   5.767  17.542  0.00  0.00    +0.000 A 
ENDBRANCH   5   8
BRANCH   7  22
ATOM     22  S   UNL     1       0.231   9.657  21.462  0.00  0.00    +0.000 S 
ATOM     23  O   UNL     1      -0.556   8.473  21.746  0.00  0.00    +0.000 OA
ATOM     24  O   UNL     1       1.044  10.241  22.502  0.00  0.00    +0.000 OA
BRANCH  22  25
ATOM     25  N   UNL     1      -0.884  10.842  20.982  0.00  0.00    +0.000 NA
ATOM     26  H   UNL     1      -1.664  10.317  20.579  0.00  0.00    +0.000 HD
BRANCH  25  27
ATOM     27  C   UNL     1      -1.391  11.948  21.870  0.00  0.00    +0.000 C 
ATOM     28  C   UNL     1      -1.911  11.415  23.205  0.00  0.00    +0.000 C 
ATOM     29  C   UNL     1      -0.325  13.024  22.083  0.00  0.00    +0.000 C 
BRANCH  27  30
ATOM     30  C   UNL     1      -2.561  12.641  21.108  0.00  0.00    +0.000 C 
BRANCH  30  31
ATOM     31  O   UNL     1      -2.673  12.166  19.769  0.00  0.00    +0.000 OA
ATOM     32  H   UNL     1      -1.950  11.536  19.618  0.00  0.00    +0.000 HD
ENDBRANCH  30  31
ENDBRANCH  27  30
ENDBRANCH  25  27
ENDBRANCH  22  25
ENDBRANCH   7  22
TORSDOF 6
ENDMDL
MODEL 2
REMARK VINA RESULT:      -9.0      0.727      1.084
REMARK  Name = 
REMARK  10 active torsions:
REMARK  status: ('A' for Active; 'I' for Inactive)
REMARK    1  A    between atoms: C_1  and  C_2
REMARK    2  A    between atoms: C_5  and  C_6
REMARK    3  A    between atoms: C_9  and  C_10
REMARK    4  A    between atoms: C_21  and  S_22
REMARK    5  A    between atoms: S_22  and  N_25
REMARK    6  A    between atoms: N_25  and  C_26
REMARK    7  A    between atoms: C_26  and  C_27
REMARK    8  A    between atoms: C_26  and  C_28
REMARK    9  A    between atoms: C_26  and  C_29
REMARK   10  A    between atoms: C_29  and  O_30
REMARK                            x       y       z     vdW  Elec       q    Type
REMARK                         _______ _______ _______ _____ _____    ______ ____
ROOT
ATOM      1  C   UNL     1       0.804  11.692  18.981  0.00  0.00    +0.000 C 
ATOM      2  C   UNL     1       1.266  10.263  18.946  0.00  0.00    +0.000 A 
ATOM      3  C   UNL     1       1.830   9.798  17.749  0.00  0.00    +0.000 A 
ATOM      4  C   UNL     1       2.252   8.474  17.617  0.00  0.00    +0.000 A 
ATOM      5  C   UNL     1       2.230   7.608  18.711  0.00  0.00    +0.000 A 
ATOM      6  C   UNL     1       1.630   8.037  19.900  0.00  0.00    +0.000 A 
ATOM      7  C   UNL     1       1.105   9.340  20.000  0.00  0.00    +0.000 A 
ENDROOT
BRANCH   5   8
ATOM      8  C   UNL     1       2.745   6.200  18.611  0.00  0.00    +0.000 A 
ATOM      9  N   UNL     1       2.200   5.329  19.427  0.00  0.00    +0.000 NA
ATOM     10  N   UNL     1       2.619   4.035  19.285  0.00  0.00    +0.000 N 
ATOM     11  C   UNL     1       2.233   2.927  20.006  0.00  0.00    +0.000 A 
ATOM     12  C   UNL     1       1.266   2.953  21.121  0.00  0.00    +0.000 C 
ATOM     13  N   UNL     1       2.858   1.863  19.538  0.00  0.00    +0.000 NA
ATOM     14  N   UNL     1       3.662   2.263  18.497  0.00  0.00    +0.000 NA
ATOM     15  C   UNL     1       3.511   3.561  18.358  0.00  0.00    +0.000 A 
ATOM     16  C   UNL     1       4.137   4.488  17.450  0.00  0.00    +0.000 A 
ATOM     17  C   UNL     1       5.056   4.068  16.483  0.00  0.00    +0.000 A 
ATOM     18  C   UNL     1       5.663   5.004  15.648  0.00  0.00    +0.000 A 
ATOM     19  C   UNL     1       5.395   6.359  15.818  0.00  0.00    +0.000 A 
ATOM     20  C   UNL     1       4.506   6.781  16.810  0.00  0.00    +0.000 A 
ATOM     21  C   UNL     1       3.817   5.846  17.594  0.00  0.00    +0.000 A 
ENDBRANCH   5   8
BRANCH   7  22
ATOM     22  S   UNL     1       0.162   9.695  21.466  0.00  0.00    +0.000 S 
ATOM     23  O   UNL     1      -0.604   8.506  21.779  0.00  0.00    +0.000 OA
ATOM     24  O   UNL     1       0.989  10.301  22.481  0.00  0.00    +0.000 OA
BRANCH  22  25
ATOM     25  N   UNL     1      -0.977  10.861  20.996  0.00  0.00    +0.000 NA
ATOM     26  H   UNL     1      -1.777  10.321  20.657  0.00  0.00    +0.000 HD
BRANCH  25  27
ATOM     27  C   UNL     1      -1.438  12.004  21.863  0.00  0.00    +0.000 C 
ATOM     28  C   UNL     1      -0.335  13.042  22.072  0.00  0.00    +0.000 C 
ATOM     29  C   UNL     1      -2.706  12.652  21.303  0.00  0.00    +0.000 C 
BRANCH  27  30
ATOM     30  C   UNL     1      -1.834  11.397  23.242  0.00  0.00    +0.000 C 
BRANCH  30  31
ATOM     31  O   UNL     1      -3.141  11.803  23.642  0.00  0.00    +0.000 OA
ATOM     32  H   UNL     1      -3.191  11.724  24.609  0.00  0.00    +0.000 HD
ENDBRANCH  30  31
ENDBRANCH  27  30
ENDBRANCH  25  27
ENDBRANCH  22  25
ENDBRANCH   7  22
TORSDOF 6
ENDMDL
MODEL 3
REMARK VINA RESULT:      -8.9      0.879      1.214
REMARK  Name = 
REMARK  10 active torsions:
REMARK  status: ('A' for Active; 'I' for Inactive)
REMARK    1  A    between atoms: C_1  and  C_2
REMARK    2  A    between atoms: C_5  and  C_6
REMARK    3  A    between atoms: C_9  and  C_10
REMARK    4  A    between atoms: C_21  and  S_22
REMARK    5  A    between atoms: S_22  and  N_25
REMARK    6  A    between atoms: N_25  and  C_26
REMARK    7  A    between atoms: C_26  and  C_27
REMARK    8  A    between atoms: C_26  and  C_28
REMARK    9  A    between atoms: C_26  and  C_29
REMARK   10  A    between atoms: C_29  and  O_30
REMARK                            x       y       z     vdW  Elec       q    Type
REMARK                         _______ _______ _______ _____ _____    ______ ____
ROOT
ATOM      1  C   UNL     1       1.012  11.667  19.039  0.00  0.00    +0.000 C 
ATOM      2  C   UNL     1       1.435  10.226  18.987  0.00  0.00    +0.000 A 
ATOM      3  C   UNL     1       1.847   9.721  17.745  0.00  0.00    +0.000 A 
ATOM      4  C   UNL     1       2.221   8.384  17.598  0.00  0.00    +0.000 A 
ATOM      5  C   UNL     1       2.305   7.543  18.708  0.00  0.00    +0.000 A 
ATOM      6  C   UNL     1       1.855   8.012  19.946  0.00  0.00    +0.000 A 
ATOM      7  C   UNL     1       1.374   9.331  20.074  0.00  0.00    +0.000 A 
ENDROOT
BRANCH   5   8
ATOM      8  C   UNL     1       2.773   6.120  18.585  0.00  0.00    +0.000 A 
ATOM      9  N   UNL     1       2.211   5.257  19.397  0.00  0.00    +0.000 NA
ATOM     10  N   UNL     1       2.586   3.952  19.234  0.00  0.00    +0.000 N 
ATOM     11  C   UNL     1       2.173   2.849  19.946  0.00  0.00    +0.000 A 
ATOM     12  C   UNL     1       1.221   2.892  21.074  0.00  0.00    +0.000 C 
ATOM     13  N   UNL     1       2.758   1.771  19.458  0.00  0.00    +0.000 NA
ATOM     14  N   UNL     1       3.562   2.157  18.411  0.00  0.00    +0.000 NA
ATOM     15  C   UNL     1       3.451   3.462  18.291  0.00  0.00    +0.000 A 
ATOM     16  C   UNL     1       4.096   4.380  17.386  0.00  0.00    +0.000 A 
ATOM     17  C   UNL     1       4.988   3.942  16.402  0.00  0.00    +0.000 A 
ATOM     18  C   UNL     1       5.615   4.868  15.571  0.00  0.00    +0.000 A 
ATOM     19  C   UNL     1       5.392   6.229  15.761  0.00  0.00    +0.000 A 
ATOM     20  C   UNL     1       4.530   6.667  16.768  0.00  0.00    +0.000 A 
ATOM     21  C   UNL     1       3.821   5.745  17.550  0.00  0.00    +0.000 A 
ENDBRANCH   5   8
BRANCH   7  22
ATOM     22  S   UNL     1       0.614   9.741  21.628  0.00  0.00    +0.000 S 
ATOM     23  O   UNL     1      -0.702   9.135  21.633  0.00  0.00    +0.000 OA
ATOM     24  O   UNL     1       1.517   9.499  22.728  0.00  0.00    +0.000 OA
BRANCH  22  25
ATOM     25  N   UNL     1       0.345  11.415  21.569  0.00  0.00    +0.000 NA
ATOM     26  H   UNL     1       0.581  11.683  20.610  0.00  0.00    +0.000 HD
BRANCH  25  27
ATOM     27  C   UNL     1      -0.926  12.093  22.011  0.00  0.00    +0.000 C 
ATOM     28  C   UNL     1      -1.961  12.151  20.888  0.00  0.00    +0.000 C 
ATOM     29  C   UNL     1      -1.504  11.430  23.262  0.00  0.00    +0.000 C 
BRANCH  27  30
ATOM     30  C   UNL     1      -0.544  13.546  22.427  0.00  0.00    +0.000 C 
BRANCH  30  31
ATOM     31  O   UNL     1      -0.837  13.796  23.800  0.00  0.00    +0.000 OA
ATOM     32  H   UNL     1      -0.003  14.020  24.243  0.00  0.00    +0.000 HD
ENDBRANCH  30  31
ENDBRANCH  27  30
ENDBRANCH  25  27
ENDBRANCH  22  25
ENDBRANCH   7  22
TORSDOF 6
ENDMDL
MODEL 4
REMARK VINA RESULT:      -8.9      2.522      3.885
REMARK  Name = 
REMARK  10 active torsions:
REMARK  status: ('A' for Active; 'I' for Inactive)
REMARK    1  A    between atoms: C_1  and  C_2
REMARK    2  A    between atoms: C_5  and  C_6
REMARK    3  A    between atoms: C_9  and  C_10
REMARK    4  A    between atoms: C_21  and  S_22
REMARK    5  A    between atoms: S_22  and  N_25
REMARK    6  A    between atoms: N_25  and  C_26
REMARK    7  A    between atoms: C_26  and  C_27
REMARK    8  A    between atoms: C_26  and  C_28
REMARK    9  A    between atoms: C_26  and  C_29
REMARK   10  A    between atoms: C_29  and  O_30
REMARK                            x       y       z     vdW  Elec       q    Type
REMARK                         _______ _______ _______ _____ _____    ______ ____
ROOT
ATOM      1  C   UNL     1      -0.318   9.752  21.420  0.00  0.00    +0.000 C 
ATOM      2  C   UNL     1       0.667   8.930  20.636  0.00  0.00    +0.000 A 
ATOM      3  C   UNL     1       1.048   7.694  21.178  0.00  0.00    +0.000 A 
ATOM      4  C   UNL     1       1.985   6.883  20.536  0.00  0.00    +0.000 A 
ATOM      5  C   UNL     1       2.482   7.229  19.279  0.00  0.00    +0.000 A 
ATOM      6  C   UNL     1       2.151   8.478  18.742  0.00  0.00    +0.000 A 
ATOM      7  C   UNL     1       1.289   9.345  19.442  0.00  0.00    +0.000 A 
ENDROOT
BRANCH   5   8
ATOM      8  C   UNL     1       3.438   6.338  18.537  0.00  0.00    +0.000 A 
ATOM      9  N   UNL     1       4.600   6.865  18.236  0.00  0.00    +0.000 NA
ATOM     10  N   UNL     1       5.495   6.030  17.624  0.00  0.00    +0.000 N 
ATOM     11  C   UNL     1       6.769   6.313  17.188  0.00  0.00    +0.000 A 
ATOM     12  C   UNL     1       7.413   7.637  17.297  0.00  0.00    +0.000 C 
ATOM     13  N   UNL     1       7.306   5.223  16.672  0.00  0.00    +0.000 NA
ATOM     14  N   UNL     1       6.385   4.206  16.768  0.00  0.00    +0.000 NA
ATOM     15  C   UNL     1       5.308   4.703  17.337  0.00  0.00    +0.000 A 
ATOM     16  C   UNL     1       4.041   4.089  17.644  0.00  0.00    +0.000 A 
ATOM     17  C   UNL     1       3.788   2.741  17.374  0.00  0.00    +0.000 A 
ATOM     18  C   UNL     1       2.537   2.197  17.657  0.00  0.00    +0.000 A 
ATOM     19  C   UNL     1       1.525   3.014  18.155  0.00  0.00    +0.000 A 
ATOM     20  C   UNL     1       1.767   4.370  18.388  0.00  0.00    +0.000 A 
ATOM     21  C   UNL     1       3.046   4.909  18.197  0.00  0.00    +0.000 A 
ENDBRANCH   5   8
BRANCH   7  22
ATOM     22  S   UNL     1       1.126  10.989  18.782  0.00  0.00    +0.000 S 
ATOM     23  O   UNL     1       2.243  11.200  17.883  0.00  0.00    +0.000 OA
ATOM     24  O   UNL     1      -0.219  11.233  18.321  0.00  0.00    +0.000 OA
BRANCH  22  25
ATOM     25  N   UNL     1       1.394  12.029  20.096  0.00  0.00    +0.000 NA
ATOM     26  H   UNL     1       2.380  11.896  20.336  0.00  0.00    +0.000 HD
BRANCH  25  27
ATOM     27  C   UNL     1       1.036  13.492  20.115  0.00  0.00    +0.000 C 
ATOM     28  C   UNL     1       1.720  14.231  21.266  0.00  0.00    +0.000 C 
ATOM     29  C   UNL     1       1.344  14.158  18.772  0.00  0.00    +0.000 C 
BRANCH  27  30
ATOM     30  C   UNL     1      -0.508  13.579  20.299  0.00  0.00    +0.000 C 
BRANCH  30  31
ATOM     31  O   UNL     1      -1.168  13.896  19.075  0.00  0.00    +0.000 OA
ATOM     32  H   UNL     1      -1.547  13.074  18.724  0.00  0.00    +0.000 HD
ENDBRANCH  30  31
ENDBRANCH  27  30
ENDBRANCH  25  27
ENDBRANCH  22  25
ENDBRANCH   7  22
TORSDOF 6
ENDMDL
MODEL 5
REMARK VINA RESULT:      -8.8      2.494      4.063
REMARK  Name = 
REMARK  10 active torsions:
REMARK  status: ('A' for Active; 'I' for Inactive)
REMARK    1  A    between atoms: C_1  and  C_2
REMARK    2  A    between atoms: C_5  and  C_6
REMARK    3  A    between atoms: C_9  and  C_10
REMARK    4  A    between atoms: C_21  and  S_22
REMARK    5  A    between atoms: S_22  and  N_25
REMARK    6  A    between atoms: N_25  and  C_26
REMARK    7  A    between atoms: C_26  and  C_27
REMARK    8  A    between atoms: C_26  and  C_28
REMARK    9  A    between atoms: C_26  and  C_29
REMARK   10  A    between atoms: C_29  and  O_30
REMARK                            x       y       z     vdW  Elec       q    Type
REMARK                         _______ _______ _______ _____ _____    ______ ____
ROOT
ATOM      1  C   UNL     1      -0.349   9.757  21.498  0.00  0.00    +0.000 C 
ATOM      2  C   UNL     1       0.630   8.933  20.708  0.00  0.00    +0.000 A 
ATOM      3  C   UNL     1       1.019   7.700  21.251  0.00  0.00    +0.000 A 
ATOM      4  C   UNL     1       1.951   6.889  20.603  0.00  0.00    +0.000 A 
ATOM      5  C   UNL     1       2.434   7.230  19.339  0.00  0.00    +0.000 A 
ATOM      6  C   UNL     1       2.095   8.476  18.800  0.00  0.00    +0.000 A 
ATOM      7  C   UNL     1       1.238   9.344  19.505  0.00  0.00    +0.000 A 
ENDROOT
BRANCH   5   8
ATOM      8  C   UNL     1       3.383   6.337  18.591  0.00  0.00    +0.000 A 
ATOM      9  N   UNL     1       4.548   6.861  18.289  0.00  0.00    +0.000 NA
ATOM     10  N   UNL     1       5.437   6.023  17.672  0.00  0.00    +0.000 N 
ATOM     11  C   UNL     1       6.712   6.303  17.234  0.00  0.00    +0.000 A 
ATOM     12  C   UNL     1       7.362   7.624  17.346  0.00  0.00    +0.000 C 
ATOM     13  N   UNL     1       7.242   5.213  16.712  0.00  0.00    +0.000 NA
ATOM     14  N   UNL     1       6.316   4.200  16.806  0.00  0.00    +0.000 NA
ATOM     15  C   UNL     1       5.243   4.698  17.380  0.00  0.00    +0.000 A 
ATOM     16  C   UNL     1       3.974   4.090  17.687  0.00  0.00    +0.000 A 
ATOM     17  C   UNL     1       3.715   2.743  17.413  0.00  0.00    +0.000 A 
ATOM     18  C   UNL     1       2.461   2.205  17.697  0.00  0.00    +0.000 A 
ATOM     19  C   UNL     1       1.455   3.024  18.200  0.00  0.00    +0.000 A 
ATOM     20  C   UNL     1       1.704   4.378  18.438  0.00  0.00    +0.000 A 
ATOM     21  C   UNL     1       2.985   4.912  18.246  0.00  0.00    +0.000 A 
ENDBRANCH   5   8
BRANCH   7  22
ATOM     22  S   UNL     1       1.065  10.985  18.840  0.00  0.00    +0.000 S 
ATOM     23  O   UNL     1       2.180  11.200  17.939  0.00  0.00    +0.000 OA
ATOM     24  O   UNL     1      -0.282  11.219  18.378  0.00  0.00    +0.000 OA
BRANCH  22  25
ATOM     25  N   UNL     1       1.327  12.031  20.150  0.00  0.00    +0.000 NA
ATOM     26  H   UNL     1       2.321  11.927  20.370  0.00  0.00    +0.000 HD
BRANCH  25  27
ATOM     27  C   UNL     1       0.927  13.483  20.178  0.00  0.00    +0.000 C 
ATOM     28  C   UNL     1       1.139  14.159  18.824  0.00  0.00    +0.000 C 
ATOM     29  C   UNL     1      -0.516  13.653  20.659  0.00  0.00    +0.000 C 
BRANCH  27  30
ATOM     30  C   UNL     1       1.825  14.181  21.243  0.00  0.00    +0.000 C 
BRANCH  30  31
ATOM     31  O   UNL     1       3.086  13.530  21.378  0.00  0.00    +0.000 OA
ATOM     32  H   UNL     1       3.045  12.701  20.874  0.00  0.00    +0.000 HD
ENDBRANCH  30  31
ENDBRANCH  27  30
ENDBRANCH  25  27
ENDBRANCH  22  25
ENDBRANCH   7  22
TORSDOF 6
ENDMDL
MODEL 6
REMARK VINA RESULT:      -8.8      1.053      1.053
REMARK  Name = 
REMARK  10 active torsions:
REMARK  status: ('A' for Active; 'I' for Inactive)
REMARK    1  A    between atoms: C_1  and  C_2
REMARK    2  A    between atoms: C_5  and  C_6
REMARK    3  A    between atoms: C_9  and  C_10
REMARK    4  A    between atoms: C_21  and  S_22
REMARK    5  A    between atoms: S_22  and  N_25
REMARK    6  A    between atoms: N_25  and  C_26
REMARK    7  A    between atoms: C_26  and  C_27
REMARK    8  A    between atoms: C_26  and  C_28
REMARK    9  A    between atoms: C_26  and  C_29
REMARK   10  A    between atoms: C_29  and  O_30
REMARK                            x       y       z     vdW  Elec       q    Type
REMARK                         _______ _______ _______ _____ _____    ______ ____
ROOT
ATOM      1  C   UNL     1       0.289  11.160  18.636  0.00  0.00    +0.000 C 
ATOM      2  C   UNL     1       1.009   9.856  18.831  0.00  0.00    +0.000 A 
ATOM      3  C   UNL     1       1.578   9.259  17.696  0.00  0.00    +0.000 A 
ATOM      4  C   UNL     1       2.233   8.030  17.779  0.00  0.00    +0.000 A 
ATOM      5  C   UNL     1       2.440   7.416  19.016  0.00  0.00    +0.000 A 
ATOM      6  C   UNL     1       1.841   7.970  20.152  0.00  0.00    +0.000 A 
ATOM      7  C   UNL     1       1.087   9.156  20.051  0.00  0.00    +0.000 A 
ENDROOT
BRANCH   5   8
ATOM      8  C   UNL     1       3.203   6.128  19.138  0.00  0.00    +0.000 A 
ATOM      9  N   UNL     1       2.684   5.225  19.935  0.00  0.00    +0.000 NA
ATOM     10  N   UNL     1       3.342   4.027  19.989  0.00  0.00    +0.000 N 
ATOM     11  C   UNL     1       3.034   2.916  20.741  0.00  0.00    +0.000 A 
ATOM     12  C   UNL     1       1.895   2.830  21.675  0.00  0.00    +0.000 C 
ATOM     13  N   UNL     1       3.910   1.961  20.487  0.00  0.00    +0.000 NA
ATOM     14  N   UNL     1       4.804   2.438  19.556  0.00  0.00    +0.000 NA
ATOM     15  C   UNL     1       4.454   3.672  19.270  0.00  0.00    +0.000 A 
ATOM     16  C   UNL     1       5.059   4.640  18.391  0.00  0.00    +0.000 A 
ATOM     17  C   UNL     1       6.195   4.340  17.632  0.00  0.00    +0.000 A 
ATOM     18  C   UNL     1       6.767   5.318  16.821  0.00  0.00    +0.000 A 
ATOM     19  C   UNL     1       6.239   6.605  16.812  0.00  0.00    +0.000 A 
ATOM     20  C   UNL     1       5.127   6.915  17.600  0.00  0.00    +0.000 A 
ATOM     21  C   UNL     1       4.485   5.919  18.349  0.00  0.00    +0.000 A 
ENDBRANCH   5   8
BRANCH   7  22
ATOM     22  S   UNL     1       0.183   9.636  21.506  0.00  0.00    +0.000 S 
ATOM     23  O   UNL     1      -0.666   8.519  21.869  0.00  0.00    +0.000 OA
ATOM     24  O   UNL     1       1.059  10.219  22.493  0.00  0.00    +0.000 OA
BRANCH  22  25
ATOM     25  N   UNL     1      -0.872  10.863  20.995  0.00  0.00    +0.000 NA
ATOM     26  H   UNL     1      -1.653  10.369  20.557  0.00  0.00    +0.000 HD
BRANCH  25  27
ATOM     27  C   UNL     1      -1.375  11.979  21.874  0.00  0.00    +0.000 C 
ATOM     28  C   UNL     1      -1.832  11.466  23.240  0.00  0.00    +0.000 C 
ATOM     29  C   UNL     1      -0.330  13.086  22.021  0.00  0.00    +0.000 C 
BRANCH  27  30
ATOM     30  C   UNL     1      -2.589  12.622  21.139  0.00  0.00    +0.000 C 
BRANCH  30  31
ATOM     31  O   UNL     1      -3.780  12.543  21.919  0.00  0.00    +0.000 OA
ATOM     32  H   UNL     1      -3.581  12.014  22.708  0.00  0.00    +0.000 HD
ENDBRANCH  30  31
ENDBRANCH  27  30
ENDBRANCH  25  27
ENDBRANCH  22  25
ENDBRANCH   7  22
TORSDOF 6
ENDMDL
MODEL 7
REMARK VINA RESULT:      -8.8      1.222      1.447
REMARK  Name = 
REMARK  10 active torsions:
REMARK  status: ('A' for Active; 'I' for Inactive)
REMARK    1  A    between atoms: C_1  and  C_2
REMARK    2  A    between atoms: C_5  and  C_6
REMARK    3  A    between atoms: C_9  and  C_10
REMARK    4  A    between atoms: C_21  and  S_22
REMARK    5  A    between atoms: S_22  and  N_25
REMARK    6  A    between atoms: N_25  and  C_26
REMARK    7  A    between atoms: C_26  and  C_27
REMARK    8  A    between atoms: C_26  and  C_28
REMARK    9  A    between atoms: C_26  and  C_29
REMARK   10  A    between atoms: C_29  and  O_30
REMARK                            x       y       z     vdW  Elec       q    Type
REMARK                         _______ _______ _______ _____ _____    ______ ____
ROOT
ATOM      1  C   UNL     1       0.249  11.151  18.583  0.00  0.00    +0.000 C 
ATOM      2  C   UNL     1       0.979   9.855  18.794  0.00  0.00    +0.000 A 
ATOM      3  C   UNL     1       1.529   9.234  17.663  0.00  0.00    +0.000 A 
ATOM      4  C   UNL     1       2.191   8.010  17.763  0.00  0.00    +0.000 A 
ATOM      5  C   UNL     1       2.424   7.426  19.009  0.00  0.00    +0.000 A 
ATOM      6  C   UNL     1       1.845   8.004  20.144  0.00  0.00    +0.000 A 
ATOM      7  C   UNL     1       1.083   9.184  20.030  0.00  0.00    +0.000 A 
ENDROOT
BRANCH   5   8
ATOM      8  C   UNL     1       3.196   6.145  19.147  0.00  0.00    +0.000 A 
ATOM      9  N   UNL     1       2.675   5.242  19.944  0.00  0.00    +0.000 NA
ATOM     10  N   UNL     1       3.342   4.050  20.012  0.00  0.00    +0.000 N 
ATOM     11  C   UNL     1       3.035   2.941  20.768  0.00  0.00    +0.000 A 
ATOM     12  C   UNL     1       1.887   2.853  21.692  0.00  0.00    +0.000 C 
ATOM     13  N   UNL     1       3.920   1.991  20.528  0.00  0.00    +0.000 NA
ATOM     14  N   UNL     1       4.819   2.469  19.603  0.00  0.00    +0.000 NA
ATOM     15  C   UNL     1       4.463   3.699  19.306  0.00  0.00    +0.000 A 
ATOM     16  C   UNL     1       5.070   4.666  18.427  0.00  0.00    +0.000 A 
ATOM     17  C   UNL     1       6.214   4.369  17.680  0.00  0.00    +0.000 A 
ATOM     18  C   UNL     1       6.787   5.346  16.868  0.00  0.00    +0.000 A 
ATOM     19  C   UNL     1       6.249   6.629  16.847  0.00  0.00    +0.000 A 
ATOM     20  C   UNL     1       5.128   6.935  17.622  0.00  0.00    +0.000 A 
ATOM     21  C   UNL     1       4.487   5.940  18.371  0.00  0.00    +0.000 A 
ENDBRANCH   5   8
BRANCH   7  22
ATOM     22  S   UNL     1       0.206   9.695  21.490  0.00  0.00    +0.000 S 
ATOM     23  O   UNL     1      -0.738   8.643  21.811  0.00  0.00    +0.000 OA
ATOM     24  O   UNL     1       1.116  10.172  22.502  0.00  0.00    +0.000 OA
BRANCH  22  25
ATOM     25  N   UNL     1      -0.736  11.021  21.007  0.00  0.00    +0.000 NA
ATOM     26  H   UNL     1      -1.402  10.636  20.333  0.00  0.00    +0.000 HD
BRANCH  25  27
ATOM     27  C   UNL     1      -1.427  11.968  21.953  0.00  0.00    +0.000 C 
ATOM     28  C   UNL     1      -2.680  12.583  21.330  0.00  0.00    +0.000 C 
ATOM     29  C   UNL     1      -1.750  11.288  23.285  0.00  0.00    +0.000 C 
BRANCH  27  30
ATOM     30  C   UNL     1      -0.412  13.104  22.281  0.00  0.00    +0.000 C 
BRANCH  30  31
ATOM     31  O   UNL     1       0.797  12.961  21.540  0.00  0.00    +0.000 OA
ATOM     32  H   UNL     1       1.330  13.760  21.688  0.00  0.00    +0.000 HD
ENDBRANCH  30  31
ENDBRANCH  27  30
ENDBRANCH  25  27
ENDBRANCH  22  25
ENDBRANCH   7  22
TORSDOF 6
ENDMDL
MODEL 8
REMARK VINA RESULT:      -8.7      2.698      4.060
REMARK  Name = 
REMARK  10 active torsions:
REMARK  status: ('A' for Active; 'I' for Inactive)
REMARK    1  A    between atoms: C_1  and  C_2
REMARK    2  A    between atoms: C_5  and  C_6
REMARK    3  A    between atoms: C_9  and  C_10
REMARK    4  A    between atoms: C_21  and  S_22
REMARK    5  A    between atoms: S_22  and  N_25
REMARK    6  A    between atoms: N_25  and  C_26
REMARK    7  A    between atoms: C_26  and  C_27
REMARK    8  A    between atoms: C_26  and  C_28
REMARK    9  A    between atoms: C_26  and  C_29
REMARK   10  A    between atoms: C_29  and  O_30
REMARK                            x       y       z     vdW  Elec       q    Type
REMARK                         _______ _______ _______ _____ _____    ______ ____
ROOT
ATOM      1  C   UNL     1      -0.311   9.509  21.599  0.00  0.00    +0.000 C 
ATOM      2  C   UNL     1       0.666   8.700  20.793  0.00  0.00    +0.000 A 
ATOM      3  C   UNL     1       1.184   7.540  21.387  0.00  0.00    +0.000 A 
ATOM      4  C   UNL     1       2.125   6.749  20.725  0.00  0.00    +0.000 A 
ATOM      5  C   UNL     1       2.487   7.029  19.407  0.00  0.00    +0.000 A 
ATOM      6  C   UNL     1       2.018   8.205  18.813  0.00  0.00    +0.000 A 
ATOM      7  C   UNL     1       1.152   9.062  19.521  0.00  0.00    +0.000 A 
ENDROOT
BRANCH   5   8
ATOM      8  C   UNL     1       3.444   6.152  18.650  0.00  0.00    +0.000 A 
ATOM      9  N   UNL     1       4.611   6.681  18.369  0.00  0.00    +0.000 NA
ATOM     10  N   UNL     1       5.505   5.856  17.743  0.00  0.00    +0.000 N 
ATOM     11  C   UNL     1       6.784   6.144  17.322  0.00  0.00    +0.000 A 
ATOM     12  C   UNL     1       7.433   7.462  17.467  0.00  0.00    +0.000 C 
ATOM     13  N   UNL     1       7.319   5.065  16.783  0.00  0.00    +0.000 NA
ATOM     14  N   UNL     1       6.393   4.050  16.849  0.00  0.00    +0.000 NA
ATOM     15  C   UNL     1       5.315   4.537  17.422  0.00  0.00    +0.000 A 
ATOM     16  C   UNL     1       4.043   3.923  17.706  0.00  0.00    +0.000 A 
ATOM     17  C   UNL     1       3.786   2.582  17.403  0.00  0.00    +0.000 A 
ATOM     18  C   UNL     1       2.530   2.038  17.664  0.00  0.00    +0.000 A 
ATOM     19  C   UNL     1       1.519   2.847  18.175  0.00  0.00    +0.000 A 
ATOM     20  C   UNL     1       1.765   4.196  18.442  0.00  0.00    +0.000 A 
ATOM     21  C   UNL     1       3.048   4.733  18.272  0.00  0.00    +0.000 A 
ENDBRANCH   5   8
BRANCH   7  22
ATOM     22  S   UNL     1       0.809  10.633  18.762  0.00  0.00    +0.000 S 
ATOM     23  O   UNL     1       0.113  11.439  19.744  0.00  0.00    +0.000 OA
ATOM     24  O   UNL     1       1.982  11.160  18.107  0.00  0.00    +0.000 OA
BRANCH  22  25
ATOM     25  N   UNL     1      -0.330  10.307  17.548  0.00  0.00    +0.000 NA
ATOM     26  H   UNL     1      -0.243   9.302  17.373  0.00  0.00    +0.000 HD
BRANCH  25  27
ATOM     27  C   UNL     1      -1.780  10.711  17.605  0.00  0.00    +0.000 C 
ATOM     28  C   UNL     1      -2.429  10.704  16.221  0.00  0.00    +0.000 C 
ATOM     29  C   UNL     1      -2.563   9.837  18.586  0.00  0.00    +0.000 C 
BRANCH  27  30
ATOM     30  C   UNL     1      -1.825  12.158  18.181  0.00  0.00    +0.000 C 
BRANCH  30  31
ATOM     31  O   UNL     1      -1.037  13.060  17.407  0.00  0.00    +0.000 OA
ATOM     32  H   UNL     1      -0.328  12.546  16.988  0.00  0.00    +0.000 HD
ENDBRANCH  30  31
ENDBRANCH  27  30
ENDBRANCH  25  27
ENDBRANCH  22  25
ENDBRANCH   7  22
TORSDOF 6
ENDMDL
MODEL 9
REMARK VINA RESULT:      -8.6      2.469      3.863
REMARK  Name = 
REMARK  10 active torsions:
REMARK  status: ('A' for Active; 'I' for Inactive)
REMARK    1  A    between atoms: C_1  and  C_2
REMARK    2  A    between atoms: C_5  and  C_6
REMARK    3  A    between atoms: C_9  and  C_10
REMARK    4  A    between atoms: C_21  and  S_22
REMARK    5  A    between atoms: S_22  and  N_25
REMARK    6  A    between atoms: N_25  and  C_26
REMARK    7  A    between atoms: C_26  and  C_27
REMARK    8  A    between atoms: C_26  and  C_28
REMARK    9  A    between atoms: C_26  and  C_29
REMARK   10  A    between atoms: C_29  and  O_30
REMARK                            x       y       z     vdW  Elec       q    Type
REMARK                         _______ _______ _______ _____ _____    ______ ____
ROOT
ATOM      1  C   UNL     1      -0.308   9.213  21.847  0.00  0.00    +0.000 C 
ATOM      2  C   UNL     1       0.675   8.472  20.985  0.00  0.00    +0.000 A 
ATOM      3  C   UNL     1       1.156   7.245  21.466  0.00  0.00    +0.000 A 
ATOM      4  C   UNL     1       2.100   6.509  20.748  0.00  0.00    +0.000 A 
ATOM      5  C   UNL     1       2.503   6.917  19.476  0.00  0.00    +0.000 A 
ATOM      6  C   UNL     1       2.071   8.159  18.997  0.00  0.00    +0.000 A 
ATOM      7  C   UNL     1       1.202   8.955  19.770  0.00  0.00    +0.000 A 
ENDROOT
BRANCH   5   8
ATOM      8  C   UNL     1       3.463   6.104  18.654  0.00  0.00    +0.000 A 
ATOM      9  N   UNL     1       4.589   6.696  18.333  0.00  0.00    +0.000 NA
ATOM     10  N   UNL     1       5.491   5.929  17.647  0.00  0.00    +0.000 N 
ATOM     11  C   UNL     1       6.733   6.288  17.175  0.00  0.00    +0.000 A 
ATOM     12  C   UNL     1       7.325   7.633  17.322  0.00  0.00    +0.000 C 
ATOM     13  N   UNL     1       7.293   5.248  16.586  0.00  0.00    +0.000 NA
ATOM     14  N   UNL     1       6.420   4.188  16.669  0.00  0.00    +0.000 NA
ATOM     15  C   UNL     1       5.348   4.610  17.304  0.00  0.00    +0.000 A 
ATOM     16  C   UNL     1       4.122   3.928  17.631  0.00  0.00    +0.000 A 
ATOM     17  C   UNL     1       3.915   2.584  17.307  0.00  0.00    +0.000 A 
ATOM     18  C   UNL     1       2.700   1.974  17.613  0.00  0.00    +0.000 A 
ATOM     19  C   UNL     1       1.677   2.721  18.189  0.00  0.00    +0.000 A 
ATOM     20  C   UNL     1       1.871   4.074  18.478  0.00  0.00    +0.000 A 
ATOM     21  C   UNL     1       3.118   4.677  18.262  0.00  0.00    +0.000 A 
ENDBRANCH   5   8
BRANCH   7  22
ATOM     22  S   UNL     1       0.909  10.604  19.172  0.00  0.00    +0.000 S 
ATOM     23  O   UNL     1       1.208  11.512  20.261  0.00  0.00    +0.000 OA
ATOM     24  O   UNL     1       1.526  10.806  17.884  0.00  0.00    +0.000 OA
BRANCH  22  25
ATOM     25  N   UNL     1      -0.768  10.706  18.939  0.00  0.00    +0.000 NA
ATOM     26  H   UNL     1      -1.174  10.304  19.789  0.00  0.00    +0.000 HD
BRANCH  25  27
ATOM     27  C   UNL     1      -1.502  11.961  18.545  0.00  0.00    +0.000 C 
ATOM     28  C   UNL     1      -2.551  12.359  19.583  0.00  0.00    +0.000 C 
ATOM     29  C   UNL     1      -0.530  13.112  18.274  0.00  0.00    +0.000 C 
BRANCH  27  30
ATOM     30  C   UNL     1      -2.212  11.665  17.190  0.00  0.00    +0.000 C 
BRANCH  30  31
ATOM     31  O   UNL     1      -3.607  11.953  17.251  0.00  0.00    +0.000 OA
ATOM     32  H   UNL     1      -3.941  11.610  18.096  0.00  0.00    +0.000 HD
ENDBRANCH  30  31
ENDBRANCH  27  30
ENDBRANCH  25  27
ENDBRANCH  22  25
ENDBRANCH   7  22
TORSDOF 6
ENDMDL
