MODEL 1
REMARK VINA RESULT:      -7.7      0.000      0.000
REMARK  Name = 
REMARK  7 active torsions:
REMARK  status: ('A' for Active; 'I' for Inactive)
REMARK    1  A    between atoms: C_1  and  C_2
REMARK    2  A    between atoms: C_2  and  C_3
REMARK    3  A    between atoms: C_2  and  C_4
REMARK    4  A    between atoms: C_7  and  C_8
REMARK    5  A    between atoms: C_10  and  O_11
REMARK    6  A    between atoms: O_11  and  C_12
REMARK    7  A    between atoms: N_14  and  C_15
REMARK                            x       y       z     vdW  Elec       q    Type
REMARK                         _______ _______ _______ _____ _____    ______ ____
ROOT
ATOM      1  C   UNL     1       2.892   3.845  19.583  0.00  0.00    +0.000 C 
ATOM      2  C   UNL     1       1.698   3.816  18.605  0.00  0.00    +0.000 C 
ATOM      3  C   UNL     1       2.015   4.958  17.646  0.00  0.00    +0.000 C 
ATOM      4  C   UNL     1       3.361   5.452  18.181  0.00  0.00    +0.000 C 
ATOM      5  C   UNL     1       3.645   6.904  17.856  0.00  0.00    +0.000 C 
ATOM      6  O   UNL     1       3.179   5.266  19.614  0.00  0.00    +0.000 OA
ATOM      7  C   UNL     1       4.451   4.400  17.853  0.00  0.00    +0.000 C 
ATOM      8  C   UNL     1       4.160   3.310  18.894  0.00  0.00    +0.000 C 
ENDROOT
BRANCH   1  10
ATOM      9  C   UNL     1       1.073   2.936  21.119  0.00  0.00    +0.000 C 
ATOM     10  C   UNL     1       2.558   3.280  20.973  0.00  0.00    +0.000 C 
ATOM     11  C   UNL     1       3.409   2.066  21.355  0.00  0.00    +0.000 C 
ENDBRANCH   1  10
BRANCH   7  12
ATOM     12  O   UNL     1       5.778   4.929  18.036  0.00  0.00    +0.000 OA
BRANCH  12  13
ATOM     13  C   UNL     1       6.566   4.758  16.934  0.00  0.00    +0.000 C 
ATOM     14  O   UNL     1       7.754   4.472  17.005  0.00  0.00    +0.000 OA
ATOM     15  N   UNL     1       5.822   4.899  15.793  0.00  0.00    +0.000 N 
ATOM     16  H   UNL     1       4.879   5.242  15.932  0.00  0.00    +0.000 HD
BRANCH  15  17
ATOM     17  C   UNL     1       6.258   4.614  14.484  0.00  0.00    +0.000 A 
ATOM     18  C   UNL     1       7.384   5.214  13.911  0.00  0.00    +0.000 A 
ATOM     19  C   UNL     1       7.763   4.923  12.597  0.00  0.00    +0.000 A 
ATOM     20  C   UNL     1       7.022   4.027  11.845  0.00  0.00    +0.000 A 
ATOM     21  C   UNL     1       5.915   3.397  12.412  0.00  0.00    +0.000 A 
ATOM     22  C   UNL     1       5.539   3.680  13.731  0.00  0.00    +0.000 A 
ENDBRANCH  15  17
ENDBRANCH  12  13
ENDBRANCH   7  12
TORSDOF 4
ENDMDL
MODEL 2
REMARK VINA RESULT:      -7.5      0.491      1.374
REMARK  Name = 
REMARK  7 active torsions:
REMARK  status: ('A' for Active; 'I' for Inactive)
REMARK    1  A    between atoms: C_1  and  C_2
REMARK    2  A    between atoms: C_2  and  C_3
REMARK    3  A    between atoms: C_2  and  C_4
REMARK    4  A    between atoms: C_7  and  C_8
REMARK    5  A    between atoms: C_10  and  O_11
REMARK    6  A    between atoms: O_11  and  C_12
REMARK    7  A    between atoms: N_14  and  C_15
REMARK                            x       y       z     vdW  Elec       q    Type
REMARK                         _______ _______ _______ _____ _____    ______ ____
ROOT
ATOM      1  C   UNL     1       2.917   3.459  19.244  0.00  0.00    +0.000 C 
ATOM      2  C   UNL     1       1.625   3.562  18.405  0.00  0.00    +0.000 C 
ATOM      3  C   UNL     1       1.763   4.921  17.731  0.00  0.00    +0.000 C 
ATOM      4  C   UNL     1       3.129   5.387  18.241  0.00  0.00    +0.000 C 
ATOM      5  C   UNL     1       3.286   6.894  18.257  0.00  0.00    +0.000 C 
ATOM      6  O   UNL     1       3.120   4.851  19.596  0.00  0.00    +0.000 OA
ATOM      7  C   UNL     1       4.236   4.541  17.564  0.00  0.00    +0.000 C 
ATOM      8  C   UNL     1       4.130   3.214  18.329  0.00  0.00    +0.000 C 
ENDROOT
BRANCH   1  10
ATOM      9  C   UNL     1       4.121   1.995  20.947  0.00  0.00    +0.000 C 
ATOM     10  C   UNL     1       2.775   2.555  20.479  0.00  0.00    +0.000 C 
ATOM     11  C   UNL     1       2.063   3.236  21.651  0.00  0.00    +0.000 C 
ENDBRANCH   1  10
BRANCH   7  12
ATOM     12  O   UNL     1       5.541   5.122  17.746  0.00  0.00    +0.000 OA
BRANCH  12  13
ATOM     13  C   UNL     1       6.376   4.872  16.695  0.00  0.00    +0.000 C 
ATOM     14  O   UNL     1       7.542   4.528  16.840  0.00  0.00    +0.000 OA
ATOM     15  N   UNL     1       5.702   5.011  15.511  0.00  0.00    +0.000 N 
ATOM     16  H   UNL     1       4.773   5.408  15.587  0.00  0.00    +0.000 HD
BRANCH  15  17
ATOM     17  C   UNL     1       6.191   4.658  14.238  0.00  0.00    +0.000 A 
ATOM     18  C   UNL     1       5.607   3.661  13.450  0.00  0.00    +0.000 A 
ATOM     19  C   UNL     1       6.145   3.324  12.203  0.00  0.00    +0.000 A 
ATOM     20  C   UNL     1       7.268   3.982  11.732  0.00  0.00    +0.000 A 
ATOM     21  C   UNL     1       7.844   5.000  12.492  0.00  0.00    +0.000 A 
ATOM     22  C   UNL     1       7.301   5.346  13.736  0.00  0.00    +0.000 A 
ENDBRANCH  15  17
ENDBRANCH  12  13
ENDBRANCH   7  12
TORSDOF 4
ENDMDL
MODEL 3
REMARK VINA RESULT:      -7.1      3.435      7.438
REMARK  Name = 
REMARK  7 active torsions:
REMARK  status: ('A' for Active; 'I' for Inactive)
REMARK    1  A    between atoms: C_1  and  C_2
REMARK    2  A    between atoms: C_2  and  C_3
REMARK    3  A    between atoms: C_2  and  C_4
REMARK    4  A    between atoms: C_7  and  C_8
REMARK    5  A    between atoms: C_10  and  O_11
REMARK    6  A    between atoms: O_11  and  C_12
REMARK    7  A    between atoms: N_14  and  C_15
REMARK                            x       y       z     vdW  Elec       q    Type
REMARK                         _______ _______ _______ _____ _____    ______ ____
ROOT
ATOM      1  C   UNL     1       5.452   4.482  17.815  0.00  0.00    +0.000 C 
ATOM      2  C   UNL     1       4.752   3.662  16.710  0.00  0.00    +0.000 C 
ATOM      3  C   UNL     1       3.630   2.959  17.465  0.00  0.00    +0.000 C 
ATOM      4  C   UNL     1       3.817   3.505  18.883  0.00  0.00    +0.000 C 
ATOM      5  C   UNL     1       3.284   2.582  19.960  0.00  0.00    +0.000 C 
ATOM      6  O   UNL     1       5.268   3.605  18.955  0.00  0.00    +0.000 OA
ATOM      7  C   UNL     1       3.386   4.993  18.912  0.00  0.00    +0.000 C 
ATOM      8  C   UNL     1       4.577   5.678  18.228  0.00  0.00    +0.000 C 
ENDROOT
BRANCH   1  10
ATOM      9  C   UNL     1       7.236   4.783  16.020  0.00  0.00    +0.000 C 
ATOM     10  C   UNL     1       6.934   4.764  17.521  0.00  0.00    +0.000 C 
ATOM     11  C   UNL     1       7.445   6.055  18.166  0.00  0.00    +0.000 C 
ENDBRANCH   1  10
BRANCH   7  12
ATOM     12  O   UNL     1       3.231   5.480  20.258  0.00  0.00    +0.000 OA
BRANCH  12  13
ATOM     13  C   UNL     1       2.058   6.155  20.439  0.00  0.00    +0.000 C 
ATOM     14  O   UNL     1       0.999   5.592  20.681  0.00  0.00    +0.000 OA
ATOM     15  N   UNL     1       2.273   7.505  20.362  0.00  0.00    +0.000 N 
ATOM     16  H   UNL     1       3.195   7.779  20.047  0.00  0.00    +0.000 HD
BRANCH  15  17
ATOM     17  C   UNL     1       1.334   8.508  20.676  0.00  0.00    +0.000 A 
ATOM     18  C   UNL     1       0.712   9.297  19.703  0.00  0.00    +0.000 A 
ATOM     19  C   UNL     1      -0.193  10.301  20.063  0.00  0.00    +0.000 A 
ATOM     20  C   UNL     1      -0.485  10.524  21.397  0.00  0.00    +0.000 A 
ATOM     21  C   UNL     1       0.104   9.726  22.378  0.00  0.00    +0.000 A 
ATOM     22  C   UNL     1       1.002   8.713  22.019  0.00  0.00    +0.000 A 
ENDBRANCH  15  17
ENDBRANCH  12  13
ENDBRANCH   7  12
TORSDOF 4
ENDMDL
MODEL 4
REMARK VINA RESULT:      -7.1      3.435      7.485
REMARK  Name = 
REMARK  7 active torsions:
REMARK  status: ('A' for Active; 'I' for Inactive)
REMARK    1  A    between atoms: C_1  and  C_2
REMARK    2  A    between atoms: C_2  and  C_3
REMARK    3  A    between atoms: C_2  and  C_4
REMARK    4  A    between atoms: C_7  and  C_8
REMARK    5  A    between atoms: C_10  and  O_11
REMARK    6  A    between atoms: O_11  and  C_12
REMARK    7  A    between atoms: N_14  and  C_15
REMARK                            x       y       z     vdW  Elec       q    Type
REMARK                         _______ _______ _______ _____ _____    ______ ____
ROOT
ATOM      1  C   UNL     1       5.467   4.755  17.661  0.00  0.00    +0.000 C 
ATOM      2  C   UNL     1       4.802   3.838  16.612  0.00  0.00    +0.000 C 
ATOM      3  C   UNL     1       3.818   3.024  17.444  0.00  0.00    +0.000 C 
ATOM      4  C   UNL     1       4.026   3.615  18.841  0.00  0.00    +0.000 C 
ATOM      5  C   UNL     1       3.671   2.657  19.960  0.00  0.00    +0.000 C 
ATOM      6  O   UNL     1       5.457   3.885  18.821  0.00  0.00    +0.000 OA
ATOM      7  C   UNL     1       3.426   5.043  18.879  0.00  0.00    +0.000 C 
ATOM      8  C   UNL     1       4.484   5.849  18.114  0.00  0.00    +0.000 C 
ENDROOT
BRANCH   1  10
ATOM      9  C   UNL     1       7.218   4.876  15.814  0.00  0.00    +0.000 C 
ATOM     10  C   UNL     1       6.885   5.202  17.272  0.00  0.00    +0.000 C 
ATOM     11  C   UNL     1       7.148   6.686  17.542  0.00  0.00    +0.000 C 
ENDBRANCH   1  10
BRANCH   7  12
ATOM     12  O   UNL     1       3.297   5.534  20.227  0.00  0.00    +0.000 OA
BRANCH  12  13
ATOM     13  C   UNL     1       2.112   6.178  20.438  0.00  0.00    +0.000 C 
ATOM     14  O   UNL     1       1.070   5.586  20.686  0.00  0.00    +0.000 OA
ATOM     15  N   UNL     1       2.294   7.534  20.384  0.00  0.00    +0.000 N 
ATOM     16  H   UNL     1       3.205   7.835  20.059  0.00  0.00    +0.000 HD
BRANCH  15  17
ATOM     17  C   UNL     1       1.337   8.509  20.730  0.00  0.00    +0.000 A 
ATOM     18  C   UNL     1       0.848   8.664  22.032  0.00  0.00    +0.000 A 
ATOM     19  C   UNL     1      -0.123   9.627  22.324  0.00  0.00    +0.000 A 
ATOM     20  C   UNL     1      -0.612  10.444  21.320  0.00  0.00    +0.000 A 
ATOM     21  C   UNL     1      -0.114  10.323  20.023  0.00  0.00    +0.000 A 
ATOM     22  C   UNL     1       0.867   9.366  19.730  0.00  0.00    +0.000 A 
ENDBRANCH  15  17
ENDBRANCH  12  13
ENDBRANCH   7  12
TORSDOF 4
ENDMDL
MODEL 5
REMARK VINA RESULT:      -7.1      0.934      1.418
REMARK  Name = 
REMARK  7 active torsions:
REMARK  status: ('A' for Active; 'I' for Inactive)
REMARK    1  A    between atoms: C_1  and  C_2
REMARK    2  A    between atoms: C_2  and  C_3
REMARK    3  A    between atoms: C_2  and  C_4
REMARK    4  A    between atoms: C_7  and  C_8
REMARK    5  A    between atoms: C_10  and  O_11
REMARK    6  A    between atoms: O_11  and  C_12
REMARK    7  A    between atoms: N_14  and  C_15
REMARK                            x       y       z     vdW  Elec       q    Type
REMARK                         _______ _______ _______ _____ _____    ______ ____
ROOT
ATOM      1  C   UNL     1       2.890   3.626  19.611  0.00  0.00    +0.000 C 
ATOM      2  C   UNL     1       1.603   3.241  18.849  0.00  0.00    +0.000 C 
ATOM      3  C   UNL     1       1.406   4.415  17.898  0.00  0.00    +0.000 C 
ATOM      4  C   UNL     1       2.624   5.285  18.216  0.00  0.00    +0.000 C 
ATOM      5  C   UNL     1       2.416   6.753  17.907  0.00  0.00    +0.000 C 
ATOM      6  O   UNL     1       2.756   5.069  19.651  0.00  0.00    +0.000 OA
ATOM      7  C   UNL     1       3.896   4.592  17.665  0.00  0.00    +0.000 C 
ATOM      8  C   UNL     1       4.118   3.476  18.695  0.00  0.00    +0.000 C 
ENDROOT
BRANCH   1  10
ATOM      9  C   UNL     1       1.606   2.624  21.570  0.00  0.00    +0.000 C 
ATOM     10  C   UNL     1       2.980   3.004  21.013  0.00  0.00    +0.000 C 
ATOM     11  C   UNL     1       3.916   1.794  21.081  0.00  0.00    +0.000 C 
ENDBRANCH   1  10
BRANCH   7  12
ATOM     12  O   UNL     1       5.025   5.486  17.642  0.00  0.00    +0.000 OA
BRANCH  12  13
ATOM     13  C   UNL     1       5.474   5.729  16.375  0.00  0.00    +0.000 C 
ATOM     14  O   UNL     1       5.859   6.830  16.006  0.00  0.00    +0.000 OA
ATOM     15  N   UNL     1       5.472   4.571  15.643  0.00  0.00    +0.000 N 
ATOM     16  H   UNL     1       5.016   3.782  16.083  0.00  0.00    +0.000 HD
BRANCH  15  17
ATOM     17  C   UNL     1       6.035   4.405  14.362  0.00  0.00    +0.000 A 
ATOM     18  C   UNL     1       5.478   3.568  13.390  0.00  0.00    +0.000 A 
ATOM     19  C   UNL     1       6.088   3.411  12.141  0.00  0.00    +0.000 A 
ATOM     20  C   UNL     1       7.258   4.092  11.852  0.00  0.00    +0.000 A 
ATOM     21  C   UNL     1       7.810   4.954  12.799  0.00  0.00    +0.000 A 
ATOM     22  C   UNL     1       7.195   5.120  14.047  0.00  0.00    +0.000 A 
ENDBRANCH  15  17
ENDBRANCH  12  13
ENDBRANCH   7  12
TORSDOF 4
ENDMDL
MODEL 6
REMARK VINA RESULT:      -7.0      4.311      8.043
REMARK  Name = 
REMARK  7 active torsions:
REMARK  status: ('A' for Active; 'I' for Inactive)
REMARK    1  A    between atoms: C_1  and  C_2
REMARK    2  A    between atoms: C_2  and  C_3
REMARK    3  A    between atoms: C_2  and  C_4
REMARK    4  A    between atoms: C_7  and  C_8
REMARK    5  A    between atoms: C_10  and  O_11
REMARK    6  A    between atoms: O_11  and  C_12
REMARK    7  A    between atoms: N_14  and  C_15
REMARK                            x       y       z     vdW  Elec       q    Type
REMARK                         _______ _______ _______ _____ _____    ______ ____
ROOT
ATOM      1  C   UNL     1       3.821   4.552  17.902  0.00  0.00    +0.000 C 
ATOM      2  C   UNL     1       2.712   3.858  17.082  0.00  0.00    +0.000 C 
ATOM      3  C   UNL     1       1.535   3.837  18.050  0.00  0.00    +0.000 C 
ATOM      4  C   UNL     1       2.118   4.557  19.268  0.00  0.00    +0.000 C 
ATOM      5  C   UNL     1       1.447   4.177  20.572  0.00  0.00    +0.000 C 
ATOM      6  O   UNL     1       3.497   4.089  19.237  0.00  0.00    +0.000 OA
ATOM      7  C   UNL     1       2.278   6.062  18.937  0.00  0.00    +0.000 C 
ATOM      8  C   UNL     1       3.523   6.055  18.038  0.00  0.00    +0.000 C 
ENDROOT
BRANCH   1  10
ATOM      9  C   UNL     1       5.493   4.423  15.983  0.00  0.00    +0.000 C 
ATOM     10  C   UNL     1       5.241   4.155  17.469  0.00  0.00    +0.000 C 
ATOM     11  C   UNL     1       6.338   4.818  18.306  0.00  0.00    +0.000 C 
ENDBRANCH   1  10
BRANCH   7  12
ATOM     12  O   UNL     1       2.515   6.848  20.119  0.00  0.00    +0.000 OA
BRANCH  12  13
ATOM     13  C   UNL     1       1.812   8.019  20.119  0.00  0.00    +0.000 C 
ATOM     14  O   UNL     1       1.420   8.558  19.093  0.00  0.00    +0.000 OA
ATOM     15  N   UNL     1       1.583   8.433  21.405  0.00  0.00    +0.000 N 
ATOM     16  H   UNL     1       2.078   7.915  22.120  0.00  0.00    +0.000 HD
BRANCH  15  17
ATOM     17  C   UNL     1       0.741   9.494  21.791  0.00  0.00    +0.000 A 
ATOM     18  C   UNL     1      -0.192   9.385  22.828  0.00  0.00    +0.000 A 
ATOM     19  C   UNL     1      -1.028  10.457  23.158  0.00  0.00    +0.000 A 
ATOM     20  C   UNL     1      -0.938  11.647  22.457  0.00  0.00    +0.000 A 
ATOM     21  C   UNL     1       0.008  11.782  21.440  0.00  0.00    +0.000 A 
ATOM     22  C   UNL     1       0.853  10.713  21.115  0.00  0.00    +0.000 A 
ENDBRANCH  15  17
ENDBRANCH  12  13
ENDBRANCH   7  12
TORSDOF 4
ENDMDL
MODEL 7
REMARK VINA RESULT:      -7.0      4.241      7.924
REMARK  Name = 
REMARK  7 active torsions:
REMARK  status: ('A' for Active; 'I' for Inactive)
REMARK    1  A    between atoms: C_1  and  C_2
REMARK    2  A    between atoms: C_2  and  C_3
REMARK    3  A    between atoms: C_2  and  C_4
REMARK    4  A    between atoms: C_7  and  C_8
REMARK    5  A    between atoms: C_10  and  O_11
REMARK    6  A    between atoms: O_11  and  C_12
REMARK    7  A    between atoms: N_14  and  C_15
REMARK                            x       y       z     vdW  Elec       q    Type
REMARK                         _______ _______ _______ _____ _____    ______ ____
ROOT
ATOM      1  C   UNL     1       3.689   4.352  17.785  0.00  0.00    +0.000 C 
ATOM      2  C   UNL     1       2.532   3.685  17.011  0.00  0.00    +0.000 C 
ATOM      3  C   UNL     1       1.385   3.720  18.014  0.00  0.00    +0.000 C 
ATOM      4  C   UNL     1       2.030   4.438  19.202  0.00  0.00    +0.000 C 
ATOM      5  C   UNL     1       1.387   4.102  20.532  0.00  0.00    +0.000 C 
ATOM      6  O   UNL     1       3.390   3.921  19.137  0.00  0.00    +0.000 OA
ATOM      7  C   UNL     1       2.232   5.931  18.841  0.00  0.00    +0.000 C 
ATOM      8  C   UNL     1       3.447   5.867  17.906  0.00  0.00    +0.000 C 
ENDROOT
BRANCH   1  10
ATOM      9  C   UNL     1       5.313   4.179  15.829  0.00  0.00    +0.000 C 
ATOM     10  C   UNL     1       5.081   3.898  17.316  0.00  0.00    +0.000 C 
ATOM     11  C   UNL     1       6.223   4.500  18.139  0.00  0.00    +0.000 C 
ENDBRANCH   1  10
BRANCH   7  12
ATOM     12  O   UNL     1       2.532   6.727  20.003  0.00  0.00    +0.000 OA
BRANCH  12  13
ATOM     13  C   UNL     1       1.885   7.930  19.995  0.00  0.00    +0.000 C 
ATOM     14  O   UNL     1       1.715   8.585  18.976  0.00  0.00    +0.000 OA
ATOM     15  N   UNL     1       1.434   8.232  21.252  0.00  0.00    +0.000 N 
ATOM     16  H   UNL     1       1.766   7.622  21.989  0.00  0.00    +0.000 HD
BRANCH  15  17
ATOM     17  C   UNL     1       0.575   9.298  21.585  0.00  0.00    +0.000 A 
ATOM     18  C   UNL     1       0.287  10.345  20.703  0.00  0.00    +0.000 A 
ATOM     19  C   UNL     1      -0.549  11.398  21.088  0.00  0.00    +0.000 A 
ATOM     20  C   UNL     1      -1.108  11.412  22.354  0.00  0.00    +0.000 A 
ATOM     21  C   UNL     1      -0.855  10.361  23.234  0.00  0.00    +0.000 A 
ATOM     22  C   UNL     1      -0.025   9.300  22.848  0.00  0.00    +0.000 A 
ENDBRANCH  15  17
ENDBRANCH  12  13
ENDBRANCH   7  12
TORSDOF 4
ENDMDL
MODEL 8
REMARK VINA RESULT:      -6.9      4.049      7.488
REMARK  Name = 
REMARK  7 active torsions:
REMARK  status: ('A' for Active; 'I' for Inactive)
REMARK    1  A    between atoms: C_1  and  C_2
REMARK    2  A    between atoms: C_2  and  C_3
REMARK    3  A    between atoms: C_2  and  C_4
REMARK    4  A    between atoms: C_7  and  C_8
REMARK    5  A    between atoms: C_10  and  O_11
REMARK    6  A    between atoms: O_11  and  C_12
REMARK    7  A    between atoms: N_14  and  C_15
REMARK                            x       y       z     vdW  Elec       q    Type
REMARK                         _______ _______ _______ _____ _____    ______ ____
ROOT
ATOM      1  C   UNL     1       5.040   5.407  17.849  0.00  0.00    +0.000 C 
ATOM      2  C   UNL     1       4.420   4.236  17.058  0.00  0.00    +0.000 C 
ATOM      3  C   UNL     1       3.059   4.060  17.722  0.00  0.00    +0.000 C 
ATOM      4  C   UNL     1       3.072   5.177  18.767  0.00  0.00    +0.000 C 
ATOM      5  C   UNL     1       2.173   4.904  19.955  0.00  0.00    +0.000 C 
ATOM      6  O   UNL     1       4.474   5.173  19.164  0.00  0.00    +0.000 OA
ATOM      7  C   UNL     1       2.942   6.543  18.047  0.00  0.00    +0.000 C 
ATOM      8  C   UNL     1       4.353   6.731  17.471  0.00  0.00    +0.000 C 
ENDROOT
BRANCH   1  10
ATOM      9  C   UNL     1       7.158   4.512  16.750  0.00  0.00    +0.000 C 
ATOM     10  C   UNL     1       6.577   5.393  17.860  0.00  0.00    +0.000 C 
ATOM     11  C   UNL     1       7.197   6.791  17.786  0.00  0.00    +0.000 C 
ENDBRANCH   1  10
BRANCH   7  12
ATOM     12  O   UNL     1       2.629   7.606  18.967  0.00  0.00    +0.000 OA
BRANCH  12  13
ATOM     13  C   UNL     1       2.046   8.676  18.352  0.00  0.00    +0.000 C 
ATOM     14  O   UNL     1       2.226   8.943  17.172  0.00  0.00    +0.000 OA
ATOM     15  N   UNL     1       1.221   9.333  19.227  0.00  0.00    +0.000 N 
ATOM     16  H   UNL     1       1.285   9.030  20.191  0.00  0.00    +0.000 HD
BRANCH  15  17
ATOM     17  C   UNL     1       0.324  10.367  18.895  0.00  0.00    +0.000 A 
ATOM     18  C   UNL     1      -0.952  10.128  18.375  0.00  0.00    +0.000 A 
ATOM     19  C   UNL     1      -1.799  11.187  18.032  0.00  0.00    +0.000 A 
ATOM     20  C   UNL     1      -1.378  12.494  18.208  0.00  0.00    +0.000 A 
ATOM     21  C   UNL     1      -0.121  12.750  18.754  0.00  0.00    +0.000 A 
ATOM     22  C   UNL     1       0.725  11.690  19.107  0.00  0.00    +0.000 A 
ENDBRANCH  15  17
ENDBRANCH  12  13
ENDBRANCH   7  12
TORSDOF 4
ENDMDL
MODEL 9
REMARK VINA RESULT:      -6.9      4.038      7.456
REMARK  Name = 
REMARK  7 active torsions:
REMARK  status: ('A' for Active; 'I' for Inactive)
REMARK    1  A    between atoms: C_1  and  C_2
REMARK    2  A    between atoms: C_2  and  C_3
REMARK    3  A    between atoms: C_2  and  C_4
REMARK    4  A    between atoms: C_7  and  C_8
REMARK    5  A    between atoms: C_10  and  O_11
REMARK    6  A    between atoms: O_11  and  C_12
REMARK    7  A    between atoms: N_14  and  C_15
REMARK                            x       y       z     vdW  Elec       q    Type
REMARK                         _______ _______ _______ _____ _____    ______ ____
ROOT
ATOM      1  C   UNL     1       2.668   4.488  18.481  0.00  0.00    +0.000 C 
ATOM      2  C   UNL     1       3.788   4.188  19.500  0.00  0.00    +0.000 C 
ATOM      3  C   UNL     1       4.822   5.266  19.197  0.00  0.00    +0.000 C 
ATOM      4  C   UNL     1       4.136   6.054  18.079  0.00  0.00    +0.000 C 
ATOM      5  C   UNL     1       5.104   6.779  17.167  0.00  0.00    +0.000 C 
ATOM      6  O   UNL     1       3.448   4.987  17.365  0.00  0.00    +0.000 OA
ATOM      7  C   UNL     1       2.954   6.856  18.680  0.00  0.00    +0.000 C 
ATOM      8  C   UNL     1       1.901   5.758  18.887  0.00  0.00    +0.000 C 
ENDROOT
BRANCH   1  10
ATOM      9  C   UNL     1       2.704   2.069  17.680  0.00  0.00    +0.000 C 
ATOM     10  C   UNL     1       1.833   3.252  18.109  0.00  0.00    +0.000 C 
ATOM     11  C   UNL     1       0.875   2.812  19.219  0.00  0.00    +0.000 C 
ENDBRANCH   1  10
BRANCH   7  12
ATOM     12  O   UNL     1       2.465   7.856  17.766  0.00  0.00    +0.000 OA
BRANCH  12  13
ATOM     13  C   UNL     1       1.588   8.721  18.356  0.00  0.00    +0.000 C 
ATOM     14  O   UNL     1       0.731   9.328  17.729  0.00  0.00    +0.000 OA
ATOM     15  N   UNL     1       1.788   8.746  19.711  0.00  0.00    +0.000 N 
ATOM     16  H   UNL     1       2.615   8.260  20.035  0.00  0.00    +0.000 HD
BRANCH  15  17
ATOM     17  C   UNL     1       0.957   9.381  20.655  0.00  0.00    +0.000 A 
ATOM     18  C   UNL     1       0.754  10.765  20.678  0.00  0.00    +0.000 A 
ATOM     19  C   UNL     1      -0.057  11.356  21.652  0.00  0.00    +0.000 A 
ATOM     20  C   UNL     1      -0.675  10.569  22.610  0.00  0.00    +0.000 A 
ATOM     21  C   UNL     1      -0.507   9.185  22.582  0.00  0.00    +0.000 A 
ATOM     22  C   UNL     1       0.298   8.591  21.601  0.00  0.00    +0.000 A 
ENDBRANCH  15  17
ENDBRANCH  12  13
ENDBRANCH   7  12
TORSDOF 4
ENDMDL
