MODEL 1
REMARK VINA RESULT:      -7.5      0.000      0.000
REMARK  Name = 
REMARK  9 active torsions:
REMARK  status: ('A' for Active; 'I' for Inactive)
REMARK    1  A    between atoms: C_1  and  C_2
REMARK    2  A    between atoms: C_2  and  C_3
REMARK    3  A    between atoms: C_2  and  C_4
REMARK    4  A    between atoms: N_9  and  C_10
REMARK    5  A    between atoms: C_10  and  C_11
REMARK    6  A    between atoms: C_11  and  N_12
REMARK    7  A    between atoms: N_12  and  C_13
REMARK    8  A    between atoms: N_17  and  C_18
REMARK    9  A    between atoms: N_21  and  C_22
REMARK                            x       y       z     vdW  Elec       q    Type
REMARK                         _______ _______ _______ _____ _____    ______ ____
ROOT
ATOM      1  N   UNL     1       1.906   7.357  20.926  0.00  0.00    +0.000 N 
ATOM      2  H   UNL     1       2.729   7.467  21.530  0.00  0.00    +0.000 HD
ENDROOT
BRANCH   1   3
ATOM      3  C   UNL     1       1.583   8.405  20.105  0.00  0.00    +0.000 C 
ATOM      4  C   UNL     1       0.961   9.558  20.395  0.00  0.00    +0.000 C 
ATOM      5  C   UNL     1       0.622  10.466  19.277  0.00  0.00    +0.000 C 
ATOM      6  O   UNL     1       1.163  10.364  18.187  0.00  0.00    +0.000 OA
ATOM      7  N   UNL     1      -0.366  11.392  19.573  0.00  0.00    +0.000 N 
ATOM      8  C   UNL     1      -0.822  12.264  18.503  0.00  0.00    +0.000 C 
ATOM      9  C   UNL     1      -1.025  11.511  20.790  0.00  0.00    +0.000 C 
ATOM     10  O   UNL     1      -1.972  12.286  20.927  0.00  0.00    +0.000 OA
ATOM     11  N   UNL     1      -0.557  10.731  21.837  0.00  0.00    +0.000 N 
ATOM     12  C   UNL     1      -1.186  10.854  23.140  0.00  0.00    +0.000 C 
ATOM     13  C   UNL     1       0.517   9.859  21.761  0.00  0.00    +0.000 C 
ATOM     14  O   UNL     1       1.055   9.365  22.750  0.00  0.00    +0.000 OA
ENDBRANCH   1   3
BRANCH   1  15
ATOM     15  C   UNL     1       1.325   6.029  20.882  0.00  0.00    +0.000 C 
BRANCH  15  16
ATOM     16  C   UNL     1       2.417   4.964  20.671  0.00  0.00    +0.000 C 
BRANCH  16  22
ATOM     17  C   UNL     1       5.303   5.405  16.546  0.00  0.00    +0.000 C 
ATOM     18  O   UNL     1       5.046   6.270  15.706  0.00  0.00    +0.000 OA
ATOM     19  N   UNL     1       4.556   5.279  17.710  0.00  0.00    +0.000 N 
ATOM     20  C   UNL     1       3.339   6.082  17.885  0.00  0.00    +0.000 C 
ATOM     21  C   UNL     1       2.131   5.178  18.226  0.00  0.00    +0.000 C 
ATOM     22  N   UNL     1       2.351   4.258  19.370  0.00  0.00    +0.000 NA
ATOM     23  C   UNL     1       3.593   3.488  19.121  0.00  0.00    +0.000 C 
ATOM     24  C   UNL     1       4.824   4.372  18.834  0.00  0.00    +0.000 C 
BRANCH  17  26
ATOM     25  C   UNL     1       6.757   4.417  14.792  0.00  0.00    +0.000 C 
ATOM     26  C   UNL     1       6.387   4.352  16.274  0.00  0.00    +0.000 C 
ATOM     27  C   UNL     1       7.647   4.540  17.122  0.00  0.00    +0.000 C 
ENDBRANCH  17  26
ENDBRANCH  16  22
ENDBRANCH  15  16
ENDBRANCH   1  15
TORSDOF 5
ENDMDL
MODEL 2
REMARK VINA RESULT:      -7.4      3.108      7.454
REMARK  Name = 
REMARK  9 active torsions:
REMARK  status: ('A' for Active; 'I' for Inactive)
REMARK    1  A    between atoms: C_1  and  C_2
REMARK    2  A    between atoms: C_2  and  C_3
REMARK    3  A    between atoms: C_2  and  C_4
REMARK    4  A    between atoms: N_9  and  C_10
REMARK    5  A    between atoms: C_10  and  C_11
REMARK    6  A    between atoms: C_11  and  N_12
REMARK    7  A    between atoms: N_12  and  C_13
REMARK    8  A    between atoms: N_17  and  C_18
REMARK    9  A    between atoms: N_21  and  C_22
REMARK                            x       y       z     vdW  Elec       q    Type
REMARK                         _______ _______ _______ _____ _____    ______ ____
ROOT
ATOM      1  N   UNL     1       4.347   1.970  18.937  0.00  0.00    +0.000 N 
ATOM      2  H   UNL     1       4.940   1.137  18.842  0.00  0.00    +0.000 HD
ENDROOT
BRANCH   1   3
ATOM      3  C   UNL     1       4.978   3.174  19.104  0.00  0.00    +0.000 C 
ATOM      4  C   UNL     1       5.391   4.057  18.183  0.00  0.00    +0.000 C 
ATOM      5  C   UNL     1       6.168   5.230  18.642  0.00  0.00    +0.000 C 
ATOM      6  O   UNL     1       6.158   5.583  19.812  0.00  0.00    +0.000 OA
ATOM      7  N   UNL     1       6.912   5.847  17.649  0.00  0.00    +0.000 N 
ATOM      8  C   UNL     1       7.774   6.953  18.034  0.00  0.00    +0.000 C 
ATOM      9  C   UNL     1       6.973   5.451  16.319  0.00  0.00    +0.000 C 
ATOM     10  O   UNL     1       7.752   5.987  15.531  0.00  0.00    +0.000 OA
ATOM     11  N   UNL     1       6.110   4.440  15.925  0.00  0.00    +0.000 N 
ATOM     12  C   UNL     1       6.106   4.023  14.534  0.00  0.00    +0.000 C 
ATOM     13  C   UNL     1       5.191   3.812  16.750  0.00  0.00    +0.000 C 
ATOM     14  O   UNL     1       4.284   3.097  16.327  0.00  0.00    +0.000 OA
ENDBRANCH   1   3
BRANCH   1  15
ATOM     15  C   UNL     1       2.933   1.775  18.679  0.00  0.00    +0.000 C 
BRANCH  15  16
ATOM     16  C   UNL     1       2.090   2.272  19.869  0.00  0.00    +0.000 C 
BRANCH  16  22
ATOM     17  C   UNL     1       2.085   7.308  19.447  0.00  0.00    +0.000 C 
ATOM     18  O   UNL     1       1.897   8.008  20.446  0.00  0.00    +0.000 OA
ATOM     19  N   UNL     1       2.132   5.922  19.531  0.00  0.00    +0.000 N 
ATOM     20  C   UNL     1       1.798   5.258  20.797  0.00  0.00    +0.000 C 
ATOM     21  C   UNL     1       0.702   4.187  20.581  0.00  0.00    +0.000 C 
ATOM     22  N   UNL     1       0.999   3.206  19.508  0.00  0.00    +0.000 NA
ATOM     23  C   UNL     1       1.327   3.951  18.269  0.00  0.00    +0.000 C 
ATOM     24  C   UNL     1       2.458   4.986  18.447  0.00  0.00    +0.000 C 
BRANCH  17  26
ATOM     25  C   UNL     1       1.624   9.375  18.150  0.00  0.00    +0.000 C 
ATOM     26  C   UNL     1       2.151   7.943  18.051  0.00  0.00    +0.000 C 
ATOM     27  C   UNL     1       3.561   7.960  17.455  0.00  0.00    +0.000 C 
ENDBRANCH  17  26
ENDBRANCH  16  22
ENDBRANCH  15  16
ENDBRANCH   1  15
TORSDOF 5
ENDMDL
MODEL 3
REMARK VINA RESULT:      -7.3      6.660     10.074
REMARK  Name = 
REMARK  9 active torsions:
REMARK  status: ('A' for Active; 'I' for Inactive)
REMARK    1  A    between atoms: C_1  and  C_2
REMARK    2  A    between atoms: C_2  and  C_3
REMARK    3  A    between atoms: C_2  and  C_4
REMARK    4  A    between atoms: N_9  and  C_10
REMARK    5  A    between atoms: C_10  and  C_11
REMARK    6  A    between atoms: C_11  and  N_12
REMARK    7  A    between atoms: N_12  and  C_13
REMARK    8  A    between atoms: N_17  and  C_18
REMARK    9  A    between atoms: N_21  and  C_22
REMARK                            x       y       z     vdW  Elec       q    Type
REMARK                         _______ _______ _______ _____ _____    ______ ____
ROOT
ATOM      1  N   UNL     1       8.225   8.107  17.411  0.00  0.00    +0.000 N 
ATOM      2  H   UNL     1       8.869   7.806  16.669  0.00  0.00    +0.000 HD
ENDROOT
BRANCH   1   3
ATOM      3  C   UNL     1       7.653   7.130  18.182  0.00  0.00    +0.000 C 
ATOM      4  C   UNL     1       7.046   5.992  17.810  0.00  0.00    +0.000 C 
ATOM      5  C   UNL     1       6.397   5.175  18.858  0.00  0.00    +0.000 C 
ATOM      6  O   UNL     1       6.671   5.320  20.040  0.00  0.00    +0.000 OA
ATOM      7  N   UNL     1       5.452   4.281  18.382  0.00  0.00    +0.000 N 
ATOM      8  C   UNL     1       4.703   3.502  19.354  0.00  0.00    +0.000 C 
ATOM      9  C   UNL     1       5.092   4.116  17.050  0.00  0.00    +0.000 C 
ATOM     10  O   UNL     1       4.158   3.381  16.730  0.00  0.00    +0.000 OA
ATOM     11  N   UNL     1       5.841   4.805  16.108  0.00  0.00    +0.000 N 
ATOM     12  C   UNL     1       5.531   4.629  14.700  0.00  0.00    +0.000 C 
ATOM     13  C   UNL     1       6.919   5.626  16.394  0.00  0.00    +0.000 C 
ATOM     14  O   UNL     1       7.705   6.030  15.539  0.00  0.00    +0.000 OA
ENDBRANCH   1   3
BRANCH   1  15
ATOM     15  C   UNL     1       8.173   9.534  17.664  0.00  0.00    +0.000 C 
BRANCH  15  16
ATOM     16  C   UNL     1       9.013   9.897  18.902  0.00  0.00    +0.000 C 
BRANCH  16  22
ATOM     17  C   UNL     1       9.535  14.750  20.213  0.00  0.00    +0.000 C 
ATOM     18  O   UNL     1       9.056  15.634  19.500  0.00  0.00    +0.000 OA
ATOM     19  N   UNL     1       9.378  13.404  19.906  0.00  0.00    +0.000 N 
ATOM     20  C   UNL     1       8.768  13.017  18.628  0.00  0.00    +0.000 C 
ATOM     21  C   UNL     1       9.684  12.035  17.860  0.00  0.00    +0.000 C 
ATOM     22  N   UNL     1      10.117  10.851  18.643  0.00  0.00    +0.000 NA
ATOM     23  C   UNL     1      10.718  11.323  19.913  0.00  0.00    +0.000 C 
ATOM     24  C   UNL     1       9.799  12.260  20.725  0.00  0.00    +0.000 C 
BRANCH  17  26
ATOM     25  C   UNL     1      11.130  16.436  21.098  0.00  0.00    +0.000 C 
ATOM     26  C   UNL     1      10.431  15.111  21.407  0.00  0.00    +0.000 C 
ATOM     27  C   UNL     1       9.669  15.233  22.728  0.00  0.00    +0.000 C 
ENDBRANCH  17  26
ENDBRANCH  16  22
ENDBRANCH  15  16
ENDBRANCH   1  15
TORSDOF 5
ENDMDL
MODEL 4
REMARK VINA RESULT:      -7.2      6.312      7.714
REMARK  Name = 
REMARK  9 active torsions:
REMARK  status: ('A' for Active; 'I' for Inactive)
REMARK    1  A    between atoms: C_1  and  C_2
REMARK    2  A    between atoms: C_2  and  C_3
REMARK    3  A    between atoms: C_2  and  C_4
REMARK    4  A    between atoms: N_9  and  C_10
REMARK    5  A    between atoms: C_10  and  C_11
REMARK    6  A    between atoms: C_11  and  N_12
REMARK    7  A    between atoms: N_12  and  C_13
REMARK    8  A    between atoms: N_17  and  C_18
REMARK    9  A    between atoms: N_21  and  C_22
REMARK                            x       y       z     vdW  Elec       q    Type
REMARK                         _______ _______ _______ _____ _____    ______ ____
ROOT
ATOM      1  N   UNL     1       8.692   9.196  19.025  0.00  0.00    +0.000 N 
ATOM      2  H   UNL     1       8.518   9.209  20.036  0.00  0.00    +0.000 HD
ENDROOT
BRANCH   1   3
ATOM      3  C   UNL     1       9.280  10.303  18.472  0.00  0.00    +0.000 C 
ATOM      4  C   UNL     1       9.552  11.494  19.028  0.00  0.00    +0.000 C 
ATOM      5  C   UNL     1      10.079  12.565  18.154  0.00  0.00    +0.000 C 
ATOM      6  O   UNL     1      10.572  12.314  17.064  0.00  0.00    +0.000 OA
ATOM      7  N   UNL     1       9.933  13.844  18.666  0.00  0.00    +0.000 N 
ATOM      8  C   UNL     1      10.344  14.961  17.832  0.00  0.00    +0.000 C 
ATOM      9  C   UNL     1       9.347  14.165  19.885  0.00  0.00    +0.000 C 
ATOM     10  O   UNL     1       9.153  15.338  20.207  0.00  0.00    +0.000 OA
ATOM     11  N   UNL     1       9.009  13.110  20.717  0.00  0.00    +0.000 N 
ATOM     12  C   UNL     1       8.436  13.398  22.019  0.00  0.00    +0.000 C 
ATOM     13  C   UNL     1       9.222  11.771  20.431  0.00  0.00    +0.000 C 
ATOM     14  O   UNL     1       9.135  10.880  21.273  0.00  0.00    +0.000 OA
ENDBRANCH   1   3
BRANCH   1  15
ATOM     15  C   UNL     1       8.475   7.925  18.361  0.00  0.00    +0.000 C 
BRANCH  15  16
ATOM     16  C   UNL     1       7.183   7.963  17.522  0.00  0.00    +0.000 C 
BRANCH  16  22
ATOM     17  C   UNL     1       4.012   4.264  18.864  0.00  0.00    +0.000 C 
ATOM     18  O   UNL     1       4.397   3.368  19.619  0.00  0.00    +0.000 OA
ATOM     19  N   UNL     1       4.843   5.318  18.505  0.00  0.00    +0.000 N 
ATOM     20  C   UNL     1       6.257   5.295  18.897  0.00  0.00    +0.000 C 
ATOM     21  C   UNL     1       7.170   5.497  17.664  0.00  0.00    +0.000 C 
ATOM     22  N   UNL     1       6.847   6.691  16.844  0.00  0.00    +0.000 NA
ATOM     23  C   UNL     1       5.408   6.642  16.492  0.00  0.00    +0.000 C 
ATOM     24  C   UNL     1       4.474   6.498  17.711  0.00  0.00    +0.000 C 
BRANCH  17  26
ATOM     25  C   UNL     1       2.611   2.946  17.293  0.00  0.00    +0.000 C 
ATOM     26  C   UNL     1       2.633   4.181  18.195  0.00  0.00    +0.000 C 
ATOM     27  C   UNL     1       1.474   4.102  19.192  0.00  0.00    +0.000 C 
ENDBRANCH  17  26
ENDBRANCH  16  22
ENDBRANCH  15  16
ENDBRANCH   1  15
TORSDOF 5
ENDMDL
MODEL 5
REMARK VINA RESULT:      -7.1      2.119      9.184
REMARK  Name = 
REMARK  9 active torsions:
REMARK  status: ('A' for Active; 'I' for Inactive)
REMARK    1  A    between atoms: C_1  and  C_2
REMARK    2  A    between atoms: C_2  and  C_3
REMARK    3  A    between atoms: C_2  and  C_4
REMARK    4  A    between atoms: N_9  and  C_10
REMARK    5  A    between atoms: C_10  and  C_11
REMARK    6  A    between atoms: C_11  and  N_12
REMARK    7  A    between atoms: N_12  and  C_13
REMARK    8  A    between atoms: N_17  and  C_18
REMARK    9  A    between atoms: N_21  and  C_22
REMARK                            x       y       z     vdW  Elec       q    Type
REMARK                         _______ _______ _______ _____ _____    ______ ____
ROOT
ATOM      1  N   UNL     1       2.726   8.363  18.102  0.00  0.00    +0.000 N 
ATOM      2  H   UNL     1       3.710   8.542  17.870  0.00  0.00    +0.000 HD
ENDROOT
BRANCH   1   3
ATOM      3  C   UNL     1       2.450   7.260  18.867  0.00  0.00    +0.000 C 
ATOM      4  C   UNL     1       2.981   6.030  18.815  0.00  0.00    +0.000 C 
ATOM      5  C   UNL     1       2.399   4.983  19.684  0.00  0.00    +0.000 C 
ATOM      6  O   UNL     1       1.705   5.269  20.648  0.00  0.00    +0.000 OA
ATOM      7  N   UNL     1       2.683   3.687  19.286  0.00  0.00    +0.000 N 
ATOM      8  C   UNL     1       2.075   2.598  20.034  0.00  0.00    +0.000 C 
ATOM      9  C   UNL     1       3.439   3.328  18.177  0.00  0.00    +0.000 C 
ATOM     10  O   UNL     1       3.542   2.151  17.832  0.00  0.00    +0.000 OA
ATOM     11  N   UNL     1       4.076   4.352  17.493  0.00  0.00    +0.000 N 
ATOM     12  C   UNL     1       4.913   4.021  16.354  0.00  0.00    +0.000 C 
ATOM     13  C   UNL     1       4.025   5.692  17.841  0.00  0.00    +0.000 C 
ATOM     14  O   UNL     1       4.781   6.540  17.369  0.00  0.00    +0.000 OA
ENDBRANCH   1   3
BRANCH   1  15
ATOM     15  C   UNL     1       1.791   9.417  17.756  0.00  0.00    +0.000 C 
BRANCH  15  16
ATOM     16  C   UNL     1       0.845   9.713  18.934  0.00  0.00    +0.000 C 
BRANCH  16  22
ATOM     17  C   UNL     1      -2.325  12.586  21.623  0.00  0.00    +0.000 C 
ATOM     18  O   UNL     1      -3.088  13.365  21.046  0.00  0.00    +0.000 OA
ATOM     19  N   UNL     1      -1.468  11.753  20.916  0.00  0.00    +0.000 N 
ATOM     20  C   UNL     1      -1.344  11.903  19.461  0.00  0.00    +0.000 C 
ATOM     21  C   UNL     1       0.138  12.077  19.053  0.00  0.00    +0.000 C 
ATOM     22  N   UNL     1       1.051  11.032  19.577  0.00  0.00    +0.000 NA
ATOM     23  C   UNL     1       0.866  10.940  21.045  0.00  0.00    +0.000 C 
ATOM     24  C   UNL     1      -0.598  10.709  21.474  0.00  0.00    +0.000 C 
BRANCH  17  26
ATOM     25  C   UNL     1      -1.534  13.905  23.574  0.00  0.00    +0.000 C 
ATOM     26  C   UNL     1      -2.210  12.599  23.154  0.00  0.00    +0.000 C 
ATOM     27  C   UNL     1      -3.557  12.470  23.869  0.00  0.00    +0.000 C 
ENDBRANCH  17  26
ENDBRANCH  16  22
ENDBRANCH  15  16
ENDBRANCH   1  15
TORSDOF 5
ENDMDL
MODEL 6
REMARK VINA RESULT:      -7.1      0.930      1.362
REMARK  Name = 
REMARK  9 active torsions:
REMARK  status: ('A' for Active; 'I' for Inactive)
REMARK    1  A    between atoms: C_1  and  C_2
REMARK    2  A    between atoms: C_2  and  C_3
REMARK    3  A    between atoms: C_2  and  C_4
REMARK    4  A    between atoms: N_9  and  C_10
REMARK    5  A    between atoms: C_10  and  C_11
REMARK    6  A    between atoms: C_11  and  N_12
REMARK    7  A    between atoms: N_12  and  C_13
REMARK    8  A    between atoms: N_17  and  C_18
REMARK    9  A    between atoms: N_21  and  C_22
REMARK                            x       y       z     vdW  Elec       q    Type
REMARK                         _______ _______ _______ _____ _____    ______ ____
ROOT
ATOM      1  N   UNL     1       1.912   7.210  21.044  0.00  0.00    +0.000 N 
ATOM      2  H   UNL     1       2.633   7.461  21.730  0.00  0.00    +0.000 HD
ENDROOT
BRANCH   1   3
ATOM      3  C   UNL     1       1.537   8.172  20.144  0.00  0.00    +0.000 C 
ATOM      4  C   UNL     1       0.943   9.356  20.356  0.00  0.00    +0.000 C 
ATOM      5  C   UNL     1       0.530  10.149  19.177  0.00  0.00    +0.000 C 
ATOM      6  O   UNL     1       0.993   9.929  18.067  0.00  0.00    +0.000 OA
ATOM      7  N   UNL     1      -0.429  11.112  19.443  0.00  0.00    +0.000 N 
ATOM      8  C   UNL     1      -0.955  11.876  18.323  0.00  0.00    +0.000 C 
ATOM      9  C   UNL     1      -1.000  11.364  20.684  0.00  0.00    +0.000 C 
ATOM     10  O   UNL     1      -1.932  12.160  20.806  0.00  0.00    +0.000 OA
ATOM     11  N   UNL     1      -0.465  10.689  21.771  0.00  0.00    +0.000 N 
ATOM     12  C   UNL     1      -1.000  10.953  23.094  0.00  0.00    +0.000 C 
ATOM     13  C   UNL     1       0.597   9.802  21.711  0.00  0.00    +0.000 C 
ATOM     14  O   UNL     1       1.201   9.405  22.706  0.00  0.00    +0.000 OA
ENDBRANCH   1   3
BRANCH   1  15
ATOM     15  C   UNL     1       1.540   5.809  20.999  0.00  0.00    +0.000 C 
BRANCH  15  16
ATOM     16  C   UNL     1       2.004   5.165  19.679  0.00  0.00    +0.000 C 
BRANCH  16  22
ATOM     17  C   UNL     1       5.436   4.206  16.096  0.00  0.00    +0.000 C 
ATOM     18  O   UNL     1       5.320   3.204  15.386  0.00  0.00    +0.000 OA
ATOM     19  N   UNL     1       4.492   4.523  17.064  0.00  0.00    +0.000 N 
ATOM     20  C   UNL     1       3.413   3.574  17.366  0.00  0.00    +0.000 C 
ATOM     21  C   UNL     1       3.365   3.265  18.881  0.00  0.00    +0.000 C 
ATOM     22  N   UNL     1       3.305   4.462  19.756  0.00  0.00    +0.000 NA
ATOM     23  C   UNL     1       4.420   5.367  19.389  0.00  0.00    +0.000 C 
ATOM     24  C   UNL     1       4.454   5.736  17.892  0.00  0.00    +0.000 C 
BRANCH  17  26
ATOM     25  C   UNL     1       7.692   4.578  17.066  0.00  0.00    +0.000 C 
ATOM     26  C   UNL     1       6.698   5.076  16.016  0.00  0.00    +0.000 C 
ATOM     27  C   UNL     1       7.364   5.061  14.638  0.00  0.00    +0.000 C 
ENDBRANCH  17  26
ENDBRANCH  16  22
ENDBRANCH  15  16
ENDBRANCH   1  15
TORSDOF 5
ENDMDL
MODEL 7
REMARK VINA RESULT:      -7.0      2.287      9.143
REMARK  Name = 
REMARK  9 active torsions:
REMARK  status: ('A' for Active; 'I' for Inactive)
REMARK    1  A    between atoms: C_1  and  C_2
REMARK    2  A    between atoms: C_2  and  C_3
REMARK    3  A    between atoms: C_2  and  C_4
REMARK    4  A    between atoms: N_9  and  C_10
REMARK    5  A    between atoms: C_10  and  C_11
REMARK    6  A    between atoms: C_11  and  N_12
REMARK    7  A    between atoms: N_12  and  C_13
REMARK    8  A    between atoms: N_17  and  C_18
REMARK    9  A    between atoms: N_21  and  C_22
REMARK                            x       y       z     vdW  Elec       q    Type
REMARK                         _______ _______ _______ _____ _____    ______ ____
ROOT
ATOM      1  N   UNL     1       2.094   8.278  17.704  0.00  0.00    +0.000 N 
ATOM      2  H   UNL     1       1.433   8.217  16.921  0.00  0.00    +0.000 HD
ENDROOT
BRANCH   1   3
ATOM      3  C   UNL     1       3.357   7.789  17.501  0.00  0.00    +0.000 C 
ATOM      4  C   UNL     1       3.832   6.547  17.679  0.00  0.00    +0.000 C 
ATOM      5  C   UNL     1       5.285   6.326  17.504  0.00  0.00    +0.000 C 
ATOM      6  O   UNL     1       5.983   7.127  16.902  0.00  0.00    +0.000 OA
ATOM      7  N   UNL     1       5.763   5.172  18.102  0.00  0.00    +0.000 N 
ATOM      8  C   UNL     1       7.195   4.924  18.054  0.00  0.00    +0.000 C 
ATOM      9  C   UNL     1       5.002   4.259  18.822  0.00  0.00    +0.000 C 
ATOM     10  O   UNL     1       5.532   3.321  19.420  0.00  0.00    +0.000 OA
ATOM     11  N   UNL     1       3.629   4.447  18.822  0.00  0.00    +0.000 N 
ATOM     12  C   UNL     1       2.789   3.493  19.524  0.00  0.00    +0.000 C 
ATOM     13  C   UNL     1       2.965   5.462  18.152  0.00  0.00    +0.000 C 
ATOM     14  O   UNL     1       1.749   5.468  17.973  0.00  0.00    +0.000 OA
ENDBRANCH   1   3
BRANCH   1  15
ATOM     15  C   UNL     1       1.654   9.057  18.846  0.00  0.00    +0.000 C 
BRANCH  15  16
ATOM     16  C   UNL     1       0.661  10.150  18.408  0.00  0.00    +0.000 C 
BRANCH  16  22
ATOM     17  C   UNL     1      -2.475  12.565  21.550  0.00  0.00    +0.000 C 
ATOM     18  O   UNL     1      -3.354  13.302  21.095  0.00  0.00    +0.000 OA
ATOM     19  N   UNL     1      -1.621  11.854  20.717  0.00  0.00    +0.000 N 
ATOM     20  C   UNL     1      -1.649  12.096  19.269  0.00  0.00    +0.000 C 
ATOM     21  C   UNL     1      -0.233  12.428  18.742  0.00  0.00    +0.000 C 
ATOM     22  N   UNL     1       0.813  11.443  19.114  0.00  0.00    +0.000 NA
ATOM     23  C   UNL     1       0.776  11.253  20.583  0.00  0.00    +0.000 C 
ATOM     24  C   UNL     1      -0.615  10.865  21.126  0.00  0.00    +0.000 C 
BRANCH  17  26
ATOM     25  C   UNL     1      -1.410  13.738  23.462  0.00  0.00    +0.000 C 
ATOM     26  C   UNL     1      -2.216  12.502  23.062  0.00  0.00    +0.000 C 
ATOM     27  C   UNL     1      -3.496  12.437  23.899  0.00  0.00    +0.000 C 
ENDBRANCH  17  26
ENDBRANCH  16  22
ENDBRANCH  15  16
ENDBRANCH   1  15
TORSDOF 5
ENDMDL
MODEL 8
REMARK VINA RESULT:      -6.9      1.282      2.337
REMARK  Name = 
REMARK  9 active torsions:
REMARK  status: ('A' for Active; 'I' for Inactive)
REMARK    1  A    between atoms: C_1  and  C_2
REMARK    2  A    between atoms: C_2  and  C_3
REMARK    3  A    between atoms: C_2  and  C_4
REMARK    4  A    between atoms: N_9  and  C_10
REMARK    5  A    between atoms: C_10  and  C_11
REMARK    6  A    between atoms: C_11  and  N_12
REMARK    7  A    between atoms: N_12  and  C_13
REMARK    8  A    between atoms: N_17  and  C_18
REMARK    9  A    between atoms: N_21  and  C_22
REMARK                            x       y       z     vdW  Elec       q    Type
REMARK                         _______ _______ _______ _____ _____    ______ ____
ROOT
ATOM      1  N   UNL     1       1.714   7.112  20.976  0.00  0.00    +0.000 N 
ATOM      2  H   UNL     1       2.649   7.406  20.669  0.00  0.00    +0.000 HD
ENDROOT
BRANCH   1   3
ATOM      3  C   UNL     1       0.928   8.053  21.588  0.00  0.00    +0.000 C 
ATOM      4  C   UNL     1       0.553   9.266  21.157  0.00  0.00    +0.000 C 
ATOM      5  C   UNL     1      -0.200  10.134  22.089  0.00  0.00    +0.000 C 
ATOM      6  O   UNL     1      -0.759   9.677  23.075  0.00  0.00    +0.000 OA
ATOM      7  N   UNL     1      -0.179  11.480  21.760  0.00  0.00    +0.000 N 
ATOM      8  C   UNL     1      -0.819  12.412  22.673  0.00  0.00    +0.000 C 
ATOM      9  C   UNL     1       0.475  12.035  20.668  0.00  0.00    +0.000 C 
ATOM     10  O   UNL     1       0.539  13.256  20.518  0.00  0.00    +0.000 OA
ATOM     11  N   UNL     1       1.036  11.154  19.756  0.00  0.00    +0.000 N 
ATOM     12  C   UNL     1       1.691  11.687  18.575  0.00  0.00    +0.000 C 
ATOM     13  C   UNL     1       0.979   9.773  19.847  0.00  0.00    +0.000 C 
ATOM     14  O   UNL     1       1.271   9.024  18.917  0.00  0.00    +0.000 OA
ENDBRANCH   1   3
BRANCH   1  15
ATOM     15  C   UNL     1       1.285   5.799  20.533  0.00  0.00    +0.000 C 
BRANCH  15  16
ATOM     16  C   UNL     1       2.386   4.753  20.788  0.00  0.00    +0.000 C 
BRANCH  16  22
ATOM     17  C   UNL     1       5.268   6.218  16.905  0.00  0.00    +0.000 C 
ATOM     18  O   UNL     1       4.757   6.799  15.945  0.00  0.00    +0.000 OA
ATOM     19  N   UNL     1       4.515   5.835  18.007  0.00  0.00    +0.000 N 
ATOM     20  C   UNL     1       3.054   5.979  17.975  0.00  0.00    +0.000 C 
ATOM     21  C   UNL     1       2.365   4.638  18.321  0.00  0.00    +0.000 C 
ATOM     22  N   UNL     1       2.827   4.012  19.584  0.00  0.00    +0.000 NA
ATOM     23  C   UNL     1       4.305   3.904  19.541  0.00  0.00    +0.000 C 
ATOM     24  C   UNL     1       5.017   5.242  19.253  0.00  0.00    +0.000 C 
BRANCH  17  26
ATOM     25  C   UNL     1       7.014   5.154  15.494  0.00  0.00    +0.000 C 
ATOM     26  C   UNL     1       6.741   5.786  16.860  0.00  0.00    +0.000 C 
ATOM     27  C   UNL     1       7.723   6.936  17.094  0.00  0.00    +0.000 C 
ENDBRANCH  17  26
ENDBRANCH  16  22
ENDBRANCH  15  16
ENDBRANCH   1  15
TORSDOF 5
ENDMDL
MODEL 9
REMARK VINA RESULT:      -6.9      1.411      2.435
REMARK  Name = 
REMARK  9 active torsions:
REMARK  status: ('A' for Active; 'I' for Inactive)
REMARK    1  A    between atoms: C_1  and  C_2
REMARK    2  A    between atoms: C_2  and  C_3
REMARK    3  A    between atoms: C_2  and  C_4
REMARK    4  A    between atoms: N_9  and  C_10
REMARK    5  A    between atoms: C_10  and  C_11
REMARK    6  A    between atoms: C_11  and  N_12
REMARK    7  A    between atoms: N_12  and  C_13
REMARK    8  A    between atoms: N_17  and  C_18
REMARK    9  A    between atoms: N_21  and  C_22
REMARK                            x       y       z     vdW  Elec       q    Type
REMARK                         _______ _______ _______ _____ _____    ______ ____
ROOT
ATOM      1  N   UNL     1       1.629   8.145  21.169  0.00  0.00    +0.000 N 
ATOM      2  H   UNL     1       2.429   8.492  20.627  0.00  0.00    +0.000 HD
ENDROOT
BRANCH   1   3
ATOM      3  C   UNL     1       0.842   9.075  21.796  0.00  0.00    +0.000 C 
ATOM      4  C   UNL     1       0.423  10.273  21.362  0.00  0.00    +0.000 C 
ATOM      5  C   UNL     1      -0.318  11.136  22.309  0.00  0.00    +0.000 C 
ATOM      6  O   UNL     1      -0.831  10.679  23.320  0.00  0.00    +0.000 OA
ATOM      7  N   UNL     1      -0.341  12.476  21.962  0.00  0.00    +0.000 N 
ATOM      8  C   UNL     1      -0.972  13.406  22.884  0.00  0.00    +0.000 C 
ATOM      9  C   UNL     1       0.260  13.032  20.840  0.00  0.00    +0.000 C 
ATOM     10  O   UNL     1       0.289  14.252  20.672  0.00  0.00    +0.000 OA
ATOM     11  N   UNL     1       0.810  12.152  19.920  0.00  0.00    +0.000 N 
ATOM     12  C   UNL     1       1.410  12.684  18.710  0.00  0.00    +0.000 C 
ATOM     13  C   UNL     1       0.790  10.771  20.032  0.00  0.00    +0.000 C 
ATOM     14  O   UNL     1       1.067  10.016  19.102  0.00  0.00    +0.000 OA
ENDBRANCH   1   3
BRANCH   1  15
ATOM     15  C   UNL     1       1.330   6.733  21.023  0.00  0.00    +0.000 C 
BRANCH  15  16
ATOM     16  C   UNL     1       2.493   5.999  20.332  0.00  0.00    +0.000 C 
BRANCH  16  22
ATOM     17  C   UNL     1       5.263   5.799  16.110  0.00  0.00    +0.000 C 
ATOM     18  O   UNL     1       5.277   6.761  15.338  0.00  0.00    +0.000 OA
ATOM     19  N   UNL     1       4.545   5.833  17.299  0.00  0.00    +0.000 N 
ATOM     20  C   UNL     1       3.656   6.967  17.579  0.00  0.00    +0.000 C 
ATOM     21  C   UNL     1       2.231   6.472  17.921  0.00  0.00    +0.000 C 
ATOM     22  N   UNL     1       2.172   5.449  18.995  0.00  0.00    +0.000 NA
ATOM     23  C   UNL     1       3.094   4.344  18.640  0.00  0.00    +0.000 C 
ATOM     24  C   UNL     1       4.536   4.807  18.350  0.00  0.00    +0.000 C 
BRANCH  17  26
ATOM     25  C   UNL     1       5.914   4.352  14.199  0.00  0.00    +0.000 C 
ATOM     26  C   UNL     1       5.945   4.479  15.723  0.00  0.00    +0.000 C 
ATOM     27  C   UNL     1       7.391   4.372  16.213  0.00  0.00    +0.000 C 
ENDBRANCH  17  26
ENDBRANCH  16  22
ENDBRANCH  15  16
ENDBRANCH   1  15
TORSDOF 5
ENDMDL
