MODEL 1
REMARK VINA RESULT:      -8.9      0.000      0.000
REMARK  Name = 
REMARK  11 active torsions:
REMARK  status: ('A' for Active; 'I' for Inactive)
REMARK    1  A    between atoms: C_1  and  C_2
REMARK    2  A    between atoms: C_2  and  C_3
REMARK    3  A    between atoms: C_8  and  C_9
REMARK    4  A    between atoms: C_9  and  N_10
REMARK    5  A    between atoms: N_10  and  C_11
REMARK    6  A    between atoms: C_11  and  N_13
REMARK    7  A    between atoms: N_13  and  C_14
REMARK    8  A    between atoms: C_18  and  S_19
REMARK    9  A    between atoms: S_19  and  N_20
REMARK   10  A    between atoms: C_25  and  C_26
REMARK   11  A    between atoms: C_25  and  C_27
REMARK                            x       y       z     vdW  Elec       q    Type
REMARK                         _______ _______ _______ _____ _____    ______ ____
ROOT
ATOM      1  N   UNL     1       2.557   7.177  19.282  0.00  0.00    +0.000 N 
ATOM      2  H   UNL     1       3.320   6.883  19.884  0.00  0.00    +0.000 HD
ENDROOT
BRANCH   1   3
ATOM      3  C   UNL     1       1.824   8.246  19.701  0.00  0.00    +0.000 C 
ATOM      4  S   UNL     1       1.189   8.399  21.240  0.00  0.00    +0.000 S 
BRANCH   3   5
ATOM      5  N   UNL     1       1.623   9.092  18.620  0.00  0.00    +0.000 N 
ATOM      6  H   UNL     1       1.856   8.660  17.735  0.00  0.00    +0.000 HD
BRANCH   5   7
ATOM      7  C   UNL     1       0.768  10.194  18.596  0.00  0.00    +0.000 A 
ATOM      8  C   UNL     1       1.249  11.449  18.951  0.00  0.00    +0.000 A 
ATOM      9  C   UNL     1       0.418  12.562  18.843  0.00  0.00    +0.000 A 
ATOM     10  C   UNL     1      -0.905  12.406  18.412  0.00  0.00    +0.000 A 
ATOM     11  C   UNL     1      -1.378  11.131  18.098  0.00  0.00    +0.000 A 
ATOM     12  C   UNL     1      -0.564  10.019  18.233  0.00  0.00    +0.000 A 
BRANCH  11  13
ATOM     13  S   UNL     1      -2.966  10.887  17.382  0.00  0.00    +0.000 S 
ATOM     14  O   UNL     1      -3.264   9.478  17.334  0.00  0.00    +0.000 OA
ATOM     15  O   UNL     1      -3.873  11.875  17.915  0.00  0.00    +0.000 OA
BRANCH  13  16
ATOM     16  N   UNL     1      -2.634  11.372  15.812  0.00  0.00    +0.000 NA
ATOM     17  H   UNL     1      -1.888  10.819  15.393  0.00  0.00    +0.000 HD
ATOM     18  H   UNL     1      -3.483  11.481  15.263  0.00  0.00    +0.000 HD
ENDBRANCH  13  16
ENDBRANCH  11  13
ENDBRANCH   5   7
ENDBRANCH   3   5
ENDBRANCH   1   3
BRANCH   1  19
ATOM     19  C   UNL     1       2.316   6.325  18.127  0.00  0.00    +0.000 C 
BRANCH  19  27
ATOM     20  C   UNL     1       5.446   6.631  15.855  0.00  0.00    +0.000 C 
ATOM     21  C   UNL     1       6.076   6.081  17.142  0.00  0.00    +0.000 C 
ATOM     22  C   UNL     1       7.366   6.856  17.390  0.00  0.00    +0.000 C 
ATOM     23  O   UNL     1       6.342   4.681  16.979  0.00  0.00    +0.000 OA
ATOM     24  C   UNL     1       5.328   4.004  17.750  0.00  0.00    +0.000 C 
ATOM     25  C   UNL     1       4.088   3.723  16.889  0.00  0.00    +0.000 C 
ATOM     26  O   UNL     1       2.791   4.077  17.355  0.00  0.00    +0.000 OA
ATOM     27  C   UNL     1       2.641   4.884  18.524  0.00  0.00    +0.000 C 
ATOM     28  O   UNL     1       1.509   4.372  19.257  0.00  0.00    +0.000 OA
ATOM     29  C   UNL     1       2.034   3.257  19.977  0.00  0.00    +0.000 C 
ATOM     30  C   UNL     1       1.639   1.983  19.223  0.00  0.00    +0.000 C 
ATOM     31  C   UNL     1       1.373   3.233  21.355  0.00  0.00    +0.000 C 
ATOM     32  O   UNL     1       3.476   3.407  20.073  0.00  0.00    +0.000 OA
ATOM     33  C   UNL     1       3.735   4.736  19.546  0.00  0.00    +0.000 C 
ATOM     34  C   UNL     1       5.090   4.945  18.893  0.00  0.00    +0.000 C 
ATOM     35  O   UNL     1       5.203   6.248  18.276  0.00  0.00    +0.000 OA
ENDBRANCH  19  27
ENDBRANCH   1  19
TORSDOF 7
ENDMDL
MODEL 2
REMARK VINA RESULT:      -8.4      1.918      2.208
REMARK  Name = 
REMARK  11 active torsions:
REMARK  status: ('A' for Active; 'I' for Inactive)
REMARK    1  A    between atoms: C_1  and  C_2
REMARK    2  A    between atoms: C_2  and  C_3
REMARK    3  A    between atoms: C_8  and  C_9
REMARK    4  A    between atoms: C_9  and  N_10
REMARK    5  A    between atoms: N_10  and  C_11
REMARK    6  A    between atoms: C_11  and  N_13
REMARK    7  A    between atoms: N_13  and  C_14
REMARK    8  A    between atoms: C_18  and  S_19
REMARK    9  A    between atoms: S_19  and  N_20
REMARK   10  A    between atoms: C_25  and  C_26
REMARK   11  A    between atoms: C_25  and  C_27
REMARK                            x       y       z     vdW  Elec       q    Type
REMARK                         _______ _______ _______ _____ _____    ______ ____
ROOT
ATOM      1  N   UNL     1       2.406   7.125  19.505  0.00  0.00    +0.000 N 
ATOM      2  H   UNL     1       3.027   6.741  20.211  0.00  0.00    +0.000 HD
ENDROOT
BRANCH   1   3
ATOM      3  C   UNL     1       1.700   8.237  19.852  0.00  0.00    +0.000 C 
ATOM      4  S   UNL     1       1.008   8.475  21.356  0.00  0.00    +0.000 S 
BRANCH   3   5
ATOM      5  N   UNL     1       1.580   9.048  18.734  0.00  0.00    +0.000 N 
ATOM      6  H   UNL     1       1.993   8.639  17.905  0.00  0.00    +0.000 HD
BRANCH   5   7
ATOM      7  C   UNL     1       0.625  10.050  18.551  0.00  0.00    +0.000 A 
ATOM      8  C   UNL     1      -0.574   9.753  17.914  0.00  0.00    +0.000 A 
ATOM      9  C   UNL     1      -1.560  10.731  17.810  0.00  0.00    +0.000 A 
ATOM     10  C   UNL     1      -1.325  12.016  18.315  0.00  0.00    +0.000 A 
ATOM     11  C   UNL     1      -0.099  12.302  18.916  0.00  0.00    +0.000 A 
ATOM     12  C   UNL     1       0.895  11.341  18.994  0.00  0.00    +0.000 A 
BRANCH  11  13
ATOM     13  S   UNL     1       0.194  13.834  19.729  0.00  0.00    +0.000 S 
ATOM     14  O   UNL     1      -0.600  13.907  20.928  0.00  0.00    +0.000 OA
ATOM     15  O   UNL     1       1.609  14.116  19.692  0.00  0.00    +0.000 OA
BRANCH  13  16
ATOM     16  N   UNL     1      -0.507  14.871  18.613  0.00  0.00    +0.000 NA
ATOM     17  H   UNL     1      -0.848  14.374  17.793  0.00  0.00    +0.000 HD
ATOM     18  H   UNL     1      -1.154  15.520  19.054  0.00  0.00    +0.000 HD
ENDBRANCH  13  16
ENDBRANCH  11  13
ENDBRANCH   5   7
ENDBRANCH   3   5
ENDBRANCH   1   3
BRANCH   1  19
ATOM     19  C   UNL     1       2.300   6.345  18.282  0.00  0.00    +0.000 C 
BRANCH  19  27
ATOM     20  C   UNL     1       5.311   6.669  15.857  0.00  0.00    +0.000 C 
ATOM     21  C   UNL     1       5.998   6.071  17.092  0.00  0.00    +0.000 C 
ATOM     22  C   UNL     1       7.313   6.818  17.295  0.00  0.00    +0.000 C 
ATOM     23  O   UNL     1       6.232   4.672  16.875  0.00  0.00    +0.000 OA
ATOM     24  C   UNL     1       5.248   3.989  17.679  0.00  0.00    +0.000 C 
ATOM     25  C   UNL     1       3.960   3.753  16.877  0.00  0.00    +0.000 C 
ATOM     26  O   UNL     1       2.695   4.114  17.421  0.00  0.00    +0.000 OA
ATOM     27  C   UNL     1       2.621   4.888  18.619  0.00  0.00    +0.000 C 
ATOM     28  O   UNL     1       1.520   4.372  19.396  0.00  0.00    +0.000 OA
ATOM     29  C   UNL     1       2.063   3.227  20.054  0.00  0.00    +0.000 C 
ATOM     30  C   UNL     1       1.606   1.984  19.286  0.00  0.00    +0.000 C 
ATOM     31  C   UNL     1       1.474   3.173  21.464  0.00  0.00    +0.000 C 
ATOM     32  O   UNL     1       3.510   3.352  20.079  0.00  0.00    +0.000 OA
ATOM     33  C   UNL     1       3.764   4.692  19.577  0.00  0.00    +0.000 C 
ATOM     34  C   UNL     1       5.087   4.899  18.859  0.00  0.00    +0.000 C 
ATOM     35  O   UNL     1       5.189   6.218  18.275  0.00  0.00    +0.000 OA
ENDBRANCH  19  27
ENDBRANCH   1  19
TORSDOF 7
ENDMDL
MODEL 3
REMARK VINA RESULT:      -8.3      1.066      3.720
REMARK  Name = 
REMARK  11 active torsions:
REMARK  status: ('A' for Active; 'I' for Inactive)
REMARK    1  A    between atoms: C_1  and  C_2
REMARK    2  A    between atoms: C_2  and  C_3
REMARK    3  A    between atoms: C_8  and  C_9
REMARK    4  A    between atoms: C_9  and  N_10
REMARK    5  A    between atoms: N_10  and  C_11
REMARK    6  A    between atoms: C_11  and  N_13
REMARK    7  A    between atoms: N_13  and  C_14
REMARK    8  A    between atoms: C_18  and  S_19
REMARK    9  A    between atoms: S_19  and  N_20
REMARK   10  A    between atoms: C_25  and  C_26
REMARK   11  A    between atoms: C_25  and  C_27
REMARK                            x       y       z     vdW  Elec       q    Type
REMARK                         _______ _______ _______ _____ _____    ______ ____
ROOT
ATOM      1  N   UNL     1       3.142   7.123  18.746  0.00  0.00    +0.000 N 
ATOM      2  H   UNL     1       3.992   7.047  19.297  0.00  0.00    +0.000 HD
ENDROOT
BRANCH   1   3
ATOM      3  C   UNL     1       2.174   7.953  19.225  0.00  0.00    +0.000 C 
ATOM      4  S   UNL     1       1.483   7.806  20.741  0.00  0.00    +0.000 S 
BRANCH   3   5
ATOM      5  N   UNL     1       1.812   8.834  18.218  0.00  0.00    +0.000 N 
ATOM      6  H   UNL     1       1.882   8.426  17.294  0.00  0.00    +0.000 HD
BRANCH   5   7
ATOM      7  C   UNL     1       0.989   9.952  18.369  0.00  0.00    +0.000 A 
ATOM      8  C   UNL     1       1.531  11.153  18.810  0.00  0.00    +0.000 A 
ATOM      9  C   UNL     1       0.727  12.289  18.878  0.00  0.00    +0.000 A 
ATOM     10  C   UNL     1      -0.628  12.206  18.536  0.00  0.00    +0.000 A 
ATOM     11  C   UNL     1      -1.159  10.980  18.132  0.00  0.00    +0.000 A 
ATOM     12  C   UNL     1      -0.370   9.843  18.093  0.00  0.00    +0.000 A 
BRANCH  11  13
ATOM     13  S   UNL     1      -2.802  10.844  17.518  0.00  0.00    +0.000 S 
ATOM     14  O   UNL     1      -3.164   9.455  17.406  0.00  0.00    +0.000 OA
ATOM     15  O   UNL     1      -3.626  11.832  18.173  0.00  0.00    +0.000 OA
BRANCH  13  16
ATOM     16  N   UNL     1      -2.558  11.414  15.960  0.00  0.00    +0.000 NA
ATOM     17  H   UNL     1      -3.309  12.032  15.659  0.00  0.00    +0.000 HD
ATOM     18  H   UNL     1      -1.608  11.753  15.827  0.00  0.00    +0.000 HD
ENDBRANCH  13  16
ENDBRANCH  11  13
ENDBRANCH   5   7
ENDBRANCH   3   5
ENDBRANCH   1   3
BRANCH   1  19
ATOM     19  C   UNL     1       3.072   6.239  17.593  0.00  0.00    +0.000 C 
BRANCH  19  27
ATOM     20  C   UNL     1       1.157   4.085  20.190  0.00  0.00    +0.000 C 
ATOM     21  C   UNL     1       1.604   3.007  19.194  0.00  0.00    +0.000 C 
ATOM     22  C   UNL     1       0.423   2.066  18.972  0.00  0.00    +0.000 C 
ATOM     23  O   UNL     1       2.729   2.298  19.733  0.00  0.00    +0.000 OA
ATOM     24  C   UNL     1       3.874   2.778  18.999  0.00  0.00    +0.000 C 
ATOM     25  C   UNL     1       4.492   4.001  19.695  0.00  0.00    +0.000 C 
ATOM     26  O   UNL     1       4.775   5.184  18.956  0.00  0.00    +0.000 OA
ATOM     27  C   UNL     1       4.299   5.328  17.617  0.00  0.00    +0.000 C 
ATOM     28  O   UNL     1       5.339   5.983  16.860  0.00  0.00    +0.000 OA
ATOM     29  C   UNL     1       6.245   4.931  16.527  0.00  0.00    +0.000 C 
ATOM     30  C   UNL     1       7.429   5.008  17.496  0.00  0.00    +0.000 C 
ATOM     31  C   UNL     1       6.758   5.184  15.110  0.00  0.00    +0.000 C 
ATOM     32  O   UNL     1       5.540   3.665  16.628  0.00  0.00    +0.000 OA
ATOM     33  C   UNL     1       4.154   4.042  16.849  0.00  0.00    +0.000 C 
ATOM     34  C   UNL     1       3.310   3.057  17.639  0.00  0.00    +0.000 C 
ATOM     35  O   UNL     1       1.992   3.578  17.929  0.00  0.00    +0.000 OA
ENDBRANCH  19  27
ENDBRANCH   1  19
TORSDOF 7
ENDMDL
MODEL 4
REMARK VINA RESULT:      -8.3      1.380      1.407
REMARK  Name = 
REMARK  11 active torsions:
REMARK  status: ('A' for Active; 'I' for Inactive)
REMARK    1  A    between atoms: C_1  and  C_2
REMARK    2  A    between atoms: C_2  and  C_3
REMARK    3  A    between atoms: C_8  and  C_9
REMARK    4  A    between atoms: C_9  and  N_10
REMARK    5  A    between atoms: N_10  and  C_11
REMARK    6  A    between atoms: C_11  and  N_13
REMARK    7  A    between atoms: N_13  and  C_14
REMARK    8  A    between atoms: C_18  and  S_19
REMARK    9  A    between atoms: S_19  and  N_20
REMARK   10  A    between atoms: C_25  and  C_26
REMARK   11  A    between atoms: C_25  and  C_27
REMARK                            x       y       z     vdW  Elec       q    Type
REMARK                         _______ _______ _______ _____ _____    ______ ____
ROOT
ATOM      1  N   UNL     1       2.010   6.985  19.791  0.00  0.00    +0.000 N 
ATOM      2  H   UNL     1       1.209   6.518  20.205  0.00  0.00    +0.000 HD
ENDROOT
BRANCH   1   3
ATOM      3  C   UNL     1       1.812   8.256  19.344  0.00  0.00    +0.000 C 
ATOM      4  S   UNL     1       2.254   8.792  17.822  0.00  0.00    +0.000 S 
BRANCH   3   5
ATOM      5  N   UNL     1       1.296   9.014  20.385  0.00  0.00    +0.000 N 
ATOM      6  H   UNL     1       1.842   8.938  21.233  0.00  0.00    +0.000 HD
BRANCH   5   7
ATOM      7  C   UNL     1       0.464  10.126  20.249  0.00  0.00    +0.000 A 
ATOM      8  C   UNL     1       0.781  11.310  20.906  0.00  0.00    +0.000 A 
ATOM      9  C   UNL     1      -0.003  12.443  20.701  0.00  0.00    +0.000 A 
ATOM     10  C   UNL     1      -1.124  12.375  19.865  0.00  0.00    +0.000 A 
ATOM     11  C   UNL     1      -1.445  11.166  19.247  0.00  0.00    +0.000 A 
ATOM     12  C   UNL     1      -0.686  10.029  19.472  0.00  0.00    +0.000 A 
BRANCH  11  13
ATOM     13  S   UNL     1      -2.728  11.055  18.048  0.00  0.00    +0.000 S 
ATOM     14  O   UNL     1      -2.860   9.691  17.605  0.00  0.00    +0.000 OA
ATOM     15  O   UNL     1      -3.841  11.863  18.482  0.00  0.00    +0.000 OA
BRANCH  13  16
ATOM     16  N   UNL     1      -2.005  11.907  16.798  0.00  0.00    +0.000 NA
ATOM     17  H   UNL     1      -1.096  11.521  16.549  0.00  0.00    +0.000 HD
ATOM     18  H   UNL     1      -2.653  12.076  16.032  0.00  0.00    +0.000 HD
ENDBRANCH  13  16
ENDBRANCH  11  13
ENDBRANCH   5   7
ENDBRANCH   3   5
ENDBRANCH   1   3
BRANCH   1  19
ATOM     19  C   UNL     1       3.203   6.164  19.652  0.00  0.00    +0.000 C 
BRANCH  19  27
ATOM     20  C   UNL     1       5.433   6.266  16.479  0.00  0.00    +0.000 C 
ATOM     21  C   UNL     1       5.911   4.959  17.126  0.00  0.00    +0.000 C 
ATOM     22  C   UNL     1       7.433   4.925  17.025  0.00  0.00    +0.000 C 
ATOM     23  O   UNL     1       5.326   3.846  16.435  0.00  0.00    +0.000 OA
ATOM     24  C   UNL     1       4.295   3.348  17.312  0.00  0.00    +0.000 C 
ATOM     25  C   UNL     1       2.956   4.045  17.026  0.00  0.00    +0.000 C 
ATOM     26  O   UNL     1       2.196   4.609  18.089  0.00  0.00    +0.000 OA
ATOM     27  C   UNL     1       2.760   4.723  19.397  0.00  0.00    +0.000 C 
ATOM     28  O   UNL     1       1.715   4.417  20.343  0.00  0.00    +0.000 OA
ATOM     29  C   UNL     1       1.680   2.991  20.378  0.00  0.00    +0.000 C 
ATOM     30  C   UNL     1       0.505   2.529  19.511  0.00  0.00    +0.000 C 
ATOM     31  C   UNL     1       1.418   2.562  21.822  0.00  0.00    +0.000 C 
ATOM     32  O   UNL     1       2.950   2.486  19.888  0.00  0.00    +0.000 OA
ATOM     33  C   UNL     1       3.778   3.672  19.746  0.00  0.00    +0.000 C 
ATOM     34  C   UNL     1       4.855   3.614  18.676  0.00  0.00    +0.000 C 
ATOM     35  O   UNL     1       5.531   4.882  18.514  0.00  0.00    +0.000 OA
ENDBRANCH  19  27
ENDBRANCH   1  19
TORSDOF 7
ENDMDL
MODEL 5
REMARK VINA RESULT:      -8.2      1.379      1.379
REMARK  Name = 
REMARK  11 active torsions:
REMARK  status: ('A' for Active; 'I' for Inactive)
REMARK    1  A    between atoms: C_1  and  C_2
REMARK    2  A    between atoms: C_2  and  C_3
REMARK    3  A    between atoms: C_8  and  C_9
REMARK    4  A    between atoms: C_9  and  N_10
REMARK    5  A    between atoms: N_10  and  C_11
REMARK    6  A    between atoms: C_11  and  N_13
REMARK    7  A    between atoms: N_13  and  C_14
REMARK    8  A    between atoms: C_18  and  S_19
REMARK    9  A    between atoms: S_19  and  N_20
REMARK   10  A    between atoms: C_25  and  C_26
REMARK   11  A    between atoms: C_25  and  C_27
REMARK                            x       y       z     vdW  Elec       q    Type
REMARK                         _______ _______ _______ _____ _____    ______ ____
ROOT
ATOM      1  N   UNL     1       2.233   7.008  19.073  0.00  0.00    +0.000 N 
ATOM      2  H   UNL     1       2.417   6.594  19.982  0.00  0.00    +0.000 HD
ENDROOT
BRANCH   1   3
ATOM      3  C   UNL     1       1.911   8.331  19.057  0.00  0.00    +0.000 C 
ATOM      4  S   UNL     1       2.319   9.379  17.818  0.00  0.00    +0.000 S 
BRANCH   3   5
ATOM      5  N   UNL     1       1.304   8.651  20.262  0.00  0.00    +0.000 N 
ATOM      6  H   UNL     1       1.815   8.305  21.063  0.00  0.00    +0.000 HD
BRANCH   5   7
ATOM      7  C   UNL     1       0.410   9.702  20.471  0.00  0.00    +0.000 A 
ATOM      8  C   UNL     1       0.561  10.526  21.581  0.00  0.00    +0.000 A 
ATOM      9  C   UNL     1      -0.278  11.626  21.743  0.00  0.00    +0.000 A 
ATOM     10  C   UNL     1      -1.289  11.876  20.807  0.00  0.00    +0.000 A 
ATOM     11  C   UNL     1      -1.446  11.014  19.721  0.00  0.00    +0.000 A 
ATOM     12  C   UNL     1      -0.633   9.902  19.574  0.00  0.00    +0.000 A 
BRANCH  11  13
ATOM     13  S   UNL     1      -2.573  11.368  18.417  0.00  0.00    +0.000 S 
ATOM     14  O   UNL     1      -2.854  10.164  17.679  0.00  0.00    +0.000 OA
ATOM     15  O   UNL     1      -3.597  12.254  18.916  0.00  0.00    +0.000 OA
BRANCH  13  16
ATOM     16  N   UNL     1      -1.582  12.315  17.451  0.00  0.00    +0.000 NA
ATOM     17  H   UNL     1      -1.620  13.298  17.714  0.00  0.00    +0.000 HD
ATOM     18  H   UNL     1      -0.656  11.908  17.347  0.00  0.00    +0.000 HD
ENDBRANCH  13  16
ENDBRANCH  11  13
ENDBRANCH   5   7
ENDBRANCH   3   5
ENDBRANCH   1   3
BRANCH   1  19
ATOM     19  C   UNL     1       2.238   6.076  17.956  0.00  0.00    +0.000 C 
BRANCH  19  27
ATOM     20  C   UNL     1       5.456   6.524  15.836  0.00  0.00    +0.000 C 
ATOM     21  C   UNL     1       6.057   6.136  17.193  0.00  0.00    +0.000 C 
ATOM     22  C   UNL     1       7.250   7.051  17.448  0.00  0.00    +0.000 C 
ATOM     23  O   UNL     1       6.465   4.761  17.156  0.00  0.00    +0.000 OA
ATOM     24  C   UNL     1       5.475   4.045  17.923  0.00  0.00    +0.000 C 
ATOM     25  C   UNL     1       4.321   3.579  17.022  0.00  0.00    +0.000 C 
ATOM     26  O   UNL     1       2.971   3.836  17.389  0.00  0.00    +0.000 OA
ATOM     27  C   UNL     1       2.674   4.708  18.481  0.00  0.00    +0.000 C 
ATOM     28  O   UNL     1       1.554   4.140  19.192  0.00  0.00    +0.000 OA
ATOM     29  C   UNL     1       2.138   3.138  20.024  0.00  0.00    +0.000 C 
ATOM     30  C   UNL     1       1.912   1.780  19.353  0.00  0.00    +0.000 C 
ATOM     31  C   UNL     1       1.400   3.150  21.362  0.00  0.00    +0.000 C 
ATOM     32  O   UNL     1       3.551   3.438  20.185  0.00  0.00    +0.000 OA
ATOM     33  C   UNL     1       3.713   4.744  19.568  0.00  0.00    +0.000 C 
ATOM     34  C   UNL     1       5.080   5.038  18.974  0.00  0.00    +0.000 C 
ATOM     35  O   UNL     1       5.105   6.298  18.263  0.00  0.00    +0.000 OA
ENDBRANCH  19  27
ENDBRANCH   1  19
TORSDOF 7
ENDMDL
MODEL 6
REMARK VINA RESULT:      -8.2      2.059      2.467
REMARK  Name = 
REMARK  11 active torsions:
REMARK  status: ('A' for Active; 'I' for Inactive)
REMARK    1  A    between atoms: C_1  and  C_2
REMARK    2  A    between atoms: C_2  and  C_3
REMARK    3  A    between atoms: C_8  and  C_9
REMARK    4  A    between atoms: C_9  and  N_10
REMARK    5  A    between atoms: N_10  and  C_11
REMARK    6  A    between atoms: C_11  and  N_13
REMARK    7  A    between atoms: N_13  and  C_14
REMARK    8  A    between atoms: C_18  and  S_19
REMARK    9  A    between atoms: S_19  and  N_20
REMARK   10  A    between atoms: C_25  and  C_26
REMARK   11  A    between atoms: C_25  and  C_27
REMARK                            x       y       z     vdW  Elec       q    Type
REMARK                         _______ _______ _______ _____ _____    ______ ____
ROOT
ATOM      1  N   UNL     1       2.601   7.205  19.219  0.00  0.00    +0.000 N 
ATOM      2  H   UNL     1       3.535   7.116  19.608  0.00  0.00    +0.000 HD
ENDROOT
BRANCH   1   3
ATOM      3  C   UNL     1       1.746   8.045  19.866  0.00  0.00    +0.000 C 
ATOM      4  S   UNL     1       1.096   7.738  21.377  0.00  0.00    +0.000 S 
BRANCH   3   5
ATOM      5  N   UNL     1       1.447   9.104  19.022  0.00  0.00    +0.000 N 
ATOM      6  H   UNL     1       1.808   8.974  18.086  0.00  0.00    +0.000 HD
BRANCH   5   7
ATOM      7  C   UNL     1       0.398  10.009  19.190  0.00  0.00    +0.000 A 
ATOM      8  C   UNL     1      -0.528  10.191  18.169  0.00  0.00    +0.000 A 
ATOM      9  C   UNL     1      -1.622  11.029  18.370  0.00  0.00    +0.000 A 
ATOM     10  C   UNL     1      -1.764  11.711  19.585  0.00  0.00    +0.000 A 
ATOM     11  C   UNL     1      -0.802  11.543  20.582  0.00  0.00    +0.000 A 
ATOM     12  C   UNL     1       0.303  10.734  20.373  0.00  0.00    +0.000 A 
BRANCH  11  13
ATOM     13  S   UNL     1      -1.012  12.225  22.190  0.00  0.00    +0.000 S 
ATOM     14  O   UNL     1      -0.072  13.298  22.387  0.00  0.00    +0.000 OA
ATOM     15  O   UNL     1      -2.424  12.341  22.465  0.00  0.00    +0.000 OA
BRANCH  13  16
ATOM     16  N   UNL     1      -0.473  10.928  23.106  0.00  0.00    +0.000 NA
ATOM     17  H   UNL     1      -1.193  10.217  23.221  0.00  0.00    +0.000 HD
ATOM     18  H   UNL     1       0.442  10.604  22.802  0.00  0.00    +0.000 HD
ENDBRANCH  13  16
ENDBRANCH  11  13
ENDBRANCH   5   7
ENDBRANCH   3   5
ENDBRANCH   1   3
BRANCH   1  19
ATOM     19  C   UNL     1       2.312   6.327  18.096  0.00  0.00    +0.000 C 
BRANCH  19  27
ATOM     20  C   UNL     1       5.414   6.613  15.785  0.00  0.00    +0.000 C 
ATOM     21  C   UNL     1       6.062   6.090  17.074  0.00  0.00    +0.000 C 
ATOM     22  C   UNL     1       7.350   6.877  17.295  0.00  0.00    +0.000 C 
ATOM     23  O   UNL     1       6.336   4.689  16.933  0.00  0.00    +0.000 OA
ATOM     24  C   UNL     1       5.335   4.019  17.727  0.00  0.00    +0.000 C 
ATOM     25  C   UNL     1       4.087   3.714  16.884  0.00  0.00    +0.000 C 
ATOM     26  O   UNL     1       2.793   4.069  17.358  0.00  0.00    +0.000 OA
ATOM     27  C   UNL     1       2.650   4.895  18.514  0.00  0.00    +0.000 C 
ATOM     28  O   UNL     1       1.530   4.388  19.269  0.00  0.00    +0.000 OA
ATOM     29  C   UNL     1       2.070   3.289  20.002  0.00  0.00    +0.000 C 
ATOM     30  C   UNL     1       1.675   2.000  19.275  0.00  0.00    +0.000 C 
ATOM     31  C   UNL     1       1.424   3.285  21.387  0.00  0.00    +0.000 C 
ATOM     32  O   UNL     1       3.512   3.450  20.080  0.00  0.00    +0.000 OA
ATOM     33  C   UNL     1       3.756   4.772  19.527  0.00  0.00    +0.000 C 
ATOM     34  C   UNL     1       5.103   4.978  18.855  0.00  0.00    +0.000 C 
ATOM     35  O   UNL     1       5.200   6.271  18.215  0.00  0.00    +0.000 OA
ENDBRANCH  19  27
ENDBRANCH   1  19
TORSDOF 7
ENDMDL
MODEL 7
REMARK VINA RESULT:      -8.2      2.564      2.917
REMARK  Name = 
REMARK  11 active torsions:
REMARK  status: ('A' for Active; 'I' for Inactive)
REMARK    1  A    between atoms: C_1  and  C_2
REMARK    2  A    between atoms: C_2  and  C_3
REMARK    3  A    between atoms: C_8  and  C_9
REMARK    4  A    between atoms: C_9  and  N_10
REMARK    5  A    between atoms: N_10  and  C_11
REMARK    6  A    between atoms: C_11  and  N_13
REMARK    7  A    between atoms: N_13  and  C_14
REMARK    8  A    between atoms: C_18  and  S_19
REMARK    9  A    between atoms: S_19  and  N_20
REMARK   10  A    between atoms: C_25  and  C_26
REMARK   11  A    between atoms: C_25  and  C_27
REMARK                            x       y       z     vdW  Elec       q    Type
REMARK                         _______ _______ _______ _____ _____    ______ ____
ROOT
ATOM      1  N   UNL     1       2.223   6.977  19.412  0.00  0.00    +0.000 N 
ATOM      2  H   UNL     1       2.378   6.461  20.273  0.00  0.00    +0.000 HD
ENDROOT
BRANCH   1   3
ATOM      3  C   UNL     1       1.865   8.285  19.541  0.00  0.00    +0.000 C 
ATOM      4  S   UNL     1       1.721   9.347  18.256  0.00  0.00    +0.000 S 
BRANCH   3   5
ATOM      5  N   UNL     1       1.754   8.580  20.891  0.00  0.00    +0.000 N 
ATOM      6  H   UNL     1       2.597   8.369  21.410  0.00  0.00    +0.000 HD
BRANCH   5   7
ATOM      7  C   UNL     1       0.860   9.491  21.456  0.00  0.00    +0.000 A 
ATOM      8  C   UNL     1       0.057   9.100  22.521  0.00  0.00    +0.000 A 
ATOM      9  C   UNL     1      -0.772  10.033  23.140  0.00  0.00    +0.000 A 
ATOM     10  C   UNL     1      -0.818  11.349  22.663  0.00  0.00    +0.000 A 
ATOM     11  C   UNL     1      -0.032  11.709  21.568  0.00  0.00    +0.000 A 
ATOM     12  C   UNL     1       0.770  10.776  20.932  0.00  0.00    +0.000 A 
BRANCH  11  13
ATOM     13  S   UNL     1       0.094  13.381  21.033  0.00  0.00    +0.000 S 
ATOM     14  O   UNL     1       0.421  13.417  19.632  0.00  0.00    +0.000 OA
ATOM     15  O   UNL     1      -0.985  14.139  21.620  0.00  0.00    +0.000 OA
BRANCH  13  16
ATOM     16  N   UNL     1       1.475  13.830  21.871  0.00  0.00    +0.000 NA
ATOM     17  H   UNL     1       1.556  13.342  22.761  0.00  0.00    +0.000 HD
ATOM     18  H   UNL     1       2.298  13.826  21.273  0.00  0.00    +0.000 HD
ENDBRANCH  13  16
ENDBRANCH  11  13
ENDBRANCH   5   7
ENDBRANCH   3   5
ENDBRANCH   1   3
BRANCH   1  19
ATOM     19  C   UNL     1       2.304   6.189  18.193  0.00  0.00    +0.000 C 
BRANCH  19  27
ATOM     20  C   UNL     1       5.407   6.598  15.900  0.00  0.00    +0.000 C 
ATOM     21  C   UNL     1       6.062   6.059  17.179  0.00  0.00    +0.000 C 
ATOM     22  C   UNL     1       7.332   6.869  17.423  0.00  0.00    +0.000 C 
ATOM     23  O   UNL     1       6.368   4.668  17.006  0.00  0.00    +0.000 OA
ATOM     24  C   UNL     1       5.379   3.958  17.780  0.00  0.00    +0.000 C 
ATOM     25  C   UNL     1       4.141   3.645  16.926  0.00  0.00    +0.000 C 
ATOM     26  O   UNL     1       2.838   3.960  17.403  0.00  0.00    +0.000 OA
ATOM     27  C   UNL     1       2.673   4.755  18.578  0.00  0.00    +0.000 C 
ATOM     28  O   UNL     1       1.562   4.206  19.317  0.00  0.00    +0.000 OA
ATOM     29  C   UNL     1       2.125   3.102  20.026  0.00  0.00    +0.000 C 
ATOM     30  C   UNL     1       1.760   1.823  19.267  0.00  0.00    +0.000 C 
ATOM     31  C   UNL     1       1.474   3.051  21.408  0.00  0.00    +0.000 C 
ATOM     32  O   UNL     1       3.562   3.293  20.113  0.00  0.00    +0.000 OA
ATOM     33  C   UNL     1       3.779   4.633  19.592  0.00  0.00    +0.000 C 
ATOM     34  C   UNL     1       5.123   4.884  18.930  0.00  0.00    +0.000 C 
ATOM     35  O   UNL     1       5.193   6.194  18.320  0.00  0.00    +0.000 OA
ENDBRANCH  19  27
ENDBRANCH   1  19
TORSDOF 7
ENDMDL
MODEL 8
REMARK VINA RESULT:      -8.1      1.217      3.779
REMARK  Name = 
REMARK  11 active torsions:
REMARK  status: ('A' for Active; 'I' for Inactive)
REMARK    1  A    between atoms: C_1  and  C_2
REMARK    2  A    between atoms: C_2  and  C_3
REMARK    3  A    between atoms: C_8  and  C_9
REMARK    4  A    between atoms: C_9  and  N_10
REMARK    5  A    between atoms: N_10  and  C_11
REMARK    6  A    between atoms: C_11  and  N_13
REMARK    7  A    between atoms: N_13  and  C_14
REMARK    8  A    between atoms: C_18  and  S_19
REMARK    9  A    between atoms: S_19  and  N_20
REMARK   10  A    between atoms: C_25  and  C_26
REMARK   11  A    between atoms: C_25  and  C_27
REMARK                            x       y       z     vdW  Elec       q    Type
REMARK                         _______ _______ _______ _____ _____    ______ ____
ROOT
ATOM      1  N   UNL     1       2.946   6.907  18.917  0.00  0.00    +0.000 N 
ATOM      2  H   UNL     1       3.184   6.930  17.930  0.00  0.00    +0.000 HD
ENDROOT
BRANCH   1   3
ATOM      3  C   UNL     1       2.086   7.866  19.360  0.00  0.00    +0.000 C 
ATOM      4  S   UNL     1       1.381   7.862  20.877  0.00  0.00    +0.000 S 
BRANCH   3   5
ATOM      5  N   UNL     1       1.836   8.747  18.319  0.00  0.00    +0.000 N 
ATOM      6  H   UNL     1       2.058   8.357  17.412  0.00  0.00    +0.000 HD
BRANCH   5   7
ATOM      7  C   UNL     1       0.949   9.825  18.358  0.00  0.00    +0.000 A 
ATOM      8  C   UNL     1       1.375  11.051  18.856  0.00  0.00    +0.000 A 
ATOM      9  C   UNL     1       0.517  12.147  18.815  0.00  0.00    +0.000 A 
ATOM     10  C   UNL     1      -0.779  12.001  18.305  0.00  0.00    +0.000 A 
ATOM     11  C   UNL     1      -1.197  10.752  17.845  0.00  0.00    +0.000 A 
ATOM     12  C   UNL     1      -0.357   9.652  17.913  0.00  0.00    +0.000 A 
BRANCH  11  13
ATOM     13  S   UNL     1      -2.741  10.539  17.030  0.00  0.00    +0.000 S 
ATOM     14  O   UNL     1      -2.555  10.642  15.605  0.00  0.00    +0.000 OA
ATOM     15  O   UNL     1      -3.457   9.457  17.664  0.00  0.00    +0.000 OA
BRANCH  13  16
ATOM     16  N   UNL     1      -3.507  11.945  17.527  0.00  0.00    +0.000 NA
ATOM     17  H   UNL     1      -3.050  12.362  18.336  0.00  0.00    +0.000 HD
ATOM     18  H   UNL     1      -3.702  12.566  16.745  0.00  0.00    +0.000 HD
ENDBRANCH  13  16
ENDBRANCH  11  13
ENDBRANCH   5   7
ENDBRANCH   3   5
ENDBRANCH   1   3
BRANCH   1  19
ATOM     19  C   UNL     1       3.659   5.913  19.704  0.00  0.00    +0.000 C 
BRANCH  19  27
ATOM     20  C   UNL     1       1.686   2.754  20.792  0.00  0.00    +0.000 C 
ATOM     21  C   UNL     1       1.637   2.613  19.264  0.00  0.00    +0.000 C 
ATOM     22  C   UNL     1       0.221   2.193  18.885  0.00  0.00    +0.000 C 
ATOM     23  O   UNL     1       2.593   1.628  18.847  0.00  0.00    +0.000 OA
ATOM     24  C   UNL     1       3.685   2.371  18.269  0.00  0.00    +0.000 C 
ATOM     25  C   UNL     1       4.729   2.724  19.339  0.00  0.00    +0.000 C 
ATOM     26  O   UNL     1       5.203   4.060  19.471  0.00  0.00    +0.000 OA
ATOM     27  C   UNL     1       4.568   5.123  18.761  0.00  0.00    +0.000 C 
ATOM     28  O   UNL     1       5.605   6.019  18.309  0.00  0.00    +0.000 OA
ATOM     29  C   UNL     1       6.110   5.401  17.125  0.00  0.00    +0.000 C 
ATOM     30  C   UNL     1       7.414   4.685  17.490  0.00  0.00    +0.000 C 
ATOM     31  C   UNL     1       6.426   6.506  16.117  0.00  0.00    +0.000 C 
ATOM     32  O   UNL     1       5.106   4.481  16.620  0.00  0.00    +0.000 OA
ATOM     33  C   UNL     1       3.940   4.730  17.451  0.00  0.00    +0.000 C 
ATOM     34  C   UNL     1       2.999   3.555  17.656  0.00  0.00    +0.000 C 
ATOM     35  O   UNL     1       1.950   3.856  18.604  0.00  0.00    +0.000 OA
ENDBRANCH  19  27
ENDBRANCH   1  19
TORSDOF 7
ENDMDL
MODEL 9
REMARK VINA RESULT:      -8.1      2.484      2.838
REMARK  Name = 
REMARK  11 active torsions:
REMARK  status: ('A' for Active; 'I' for Inactive)
REMARK    1  A    between atoms: C_1  and  C_2
REMARK    2  A    between atoms: C_2  and  C_3
REMARK    3  A    between atoms: C_8  and  C_9
REMARK    4  A    between atoms: C_9  and  N_10
REMARK    5  A    between atoms: N_10  and  C_11
REMARK    6  A    between atoms: C_11  and  N_13
REMARK    7  A    between atoms: N_13  and  C_14
REMARK    8  A    between atoms: C_18  and  S_19
REMARK    9  A    between atoms: S_19  and  N_20
REMARK   10  A    between atoms: C_25  and  C_26
REMARK   11  A    between atoms: C_25  and  C_27
REMARK                            x       y       z     vdW  Elec       q    Type
REMARK                         _______ _______ _______ _____ _____    ______ ____
ROOT
ATOM      1  N   UNL     1       2.481   7.031  18.867  0.00  0.00    +0.000 N 
ATOM      2  H   UNL     1       2.435   6.875  17.865  0.00  0.00    +0.000 HD
ENDROOT
BRANCH   1   3
ATOM      3  C   UNL     1       1.824   8.124  19.347  0.00  0.00    +0.000 C 
ATOM      4  S   UNL     1       1.330   8.296  20.936  0.00  0.00    +0.000 S 
BRANCH   3   5
ATOM      5  N   UNL     1       1.561   8.979  18.287  0.00  0.00    +0.000 N 
ATOM      6  H   UNL     1       1.507   8.498  17.399  0.00  0.00    +0.000 HD
BRANCH   5   7
ATOM      7  C   UNL     1       0.952  10.231  18.382  0.00  0.00    +0.000 A 
ATOM      8  C   UNL     1      -0.435  10.328  18.360  0.00  0.00    +0.000 A 
ATOM      9  C   UNL     1      -1.043  11.568  18.541  0.00  0.00    +0.000 A 
ATOM     10  C   UNL     1      -0.255  12.713  18.709  0.00  0.00    +0.000 A 
ATOM     11  C   UNL     1       1.135  12.598  18.689  0.00  0.00    +0.000 A 
ATOM     12  C   UNL     1       1.743  11.371  18.479  0.00  0.00    +0.000 A 
BRANCH  11  13
ATOM     13  S   UNL     1       2.180  13.961  19.071  0.00  0.00    +0.000 S 
ATOM     14  O   UNL     1       1.506  15.192  18.751  0.00  0.00    +0.000 OA
ATOM     15  O   UNL     1       2.825  13.712  20.338  0.00  0.00    +0.000 OA
BRANCH  13  16
ATOM     16  N   UNL     1       3.363  13.732  17.905  0.00  0.00    +0.000 NA
ATOM     17  H   UNL     1       4.224  13.360  18.303  0.00  0.00    +0.000 HD
ATOM     18  H   UNL     1       2.997  13.253  17.085  0.00  0.00    +0.000 HD
ENDBRANCH  13  16
ENDBRANCH  11  13
ENDBRANCH   5   7
ENDBRANCH   3   5
ENDBRANCH   1   3
BRANCH   1  19
ATOM     19  C   UNL     1       3.339   6.111  19.598  0.00  0.00    +0.000 C 
BRANCH  19  27
ATOM     20  C   UNL     1       5.592   6.111  16.440  0.00  0.00    +0.000 C 
ATOM     21  C   UNL     1       6.010   4.787  17.093  0.00  0.00    +0.000 C 
ATOM     22  C   UNL     1       7.530   4.688  17.002  0.00  0.00    +0.000 C 
ATOM     23  O   UNL     1       5.384   3.698  16.401  0.00  0.00    +0.000 OA
ATOM     24  C   UNL     1       4.327   3.245  17.272  0.00  0.00    +0.000 C 
ATOM     25  C   UNL     1       3.020   3.997  16.976  0.00  0.00    +0.000 C 
ATOM     26  O   UNL     1       2.278   4.596  18.032  0.00  0.00    +0.000 OA
ATOM     27  C   UNL     1       2.837   4.689  19.343  0.00  0.00    +0.000 C 
ATOM     28  O   UNL     1       1.774   4.430  20.283  0.00  0.00    +0.000 OA
ATOM     29  C   UNL     1       1.679   3.007  20.321  0.00  0.00    +0.000 C 
ATOM     30  C   UNL     1       0.491   2.593  19.447  0.00  0.00    +0.000 C 
ATOM     31  C   UNL     1       1.389   2.593  21.764  0.00  0.00    +0.000 C 
ATOM     32  O   UNL     1       2.930   2.447  19.840  0.00  0.00    +0.000 OA
ATOM     33  C   UNL     1       3.808   3.598  19.702  0.00  0.00    +0.000 C 
ATOM     34  C   UNL     1       4.888   3.491  18.639  0.00  0.00    +0.000 C 
ATOM     35  O   UNL     1       5.619   4.729  18.478  0.00  0.00    +0.000 OA
ENDBRANCH  19  27
ENDBRANCH   1  19
TORSDOF 7
ENDMDL
