MODEL 1
REMARK VINA RESULT:      -8.7      0.000      0.000
REMARK  Name = 
REMARK  6 active torsions:
REMARK  status: ('A' for Active; 'I' for Inactive)
REMARK    1  A    between atoms: C_1  and  N_2
REMARK    2  A    between atoms: C_4  and  C_5
REMARK    3  A    between atoms: C_13  and  C_14
REMARK    4  A    between atoms: C_14  and  N_15
REMARK    5  A    between atoms: C_21  and  C_22
REMARK    6  A    between atoms: C_26  and  C_27
REMARK                            x       y       z     vdW  Elec       q    Type
REMARK                         _______ _______ _______ _____ _____    ______ ____
ROOT
ATOM      1  C   UNL     1       2.254   7.485  18.551  0.00  0.00    +0.000 A 
ATOM      2  C   UNL     1       1.930   7.737  19.865  0.00  0.00    +0.000 A 
ATOM      3  N   UNL     1       1.463   8.917  20.321  0.00  0.00    +0.000 NA
ATOM      4  C   UNL     1       1.298   9.908  19.436  0.00  0.00    +0.000 A 
ATOM      5  N   UNL     1       0.774  11.092  19.874  0.00  0.00    +0.000 N 
ATOM      6  C   UNL     1       0.362  11.274  21.262  0.00  0.00    +0.000 C 
ATOM      7  C   UNL     1      -1.148  11.544  21.356  0.00  0.00    +0.000 C 
ATOM      8  O   UNL     1      -1.611  12.531  20.414  0.00  0.00    +0.000 OA
ATOM      9  C   UNL     1      -1.241  12.216  19.046  0.00  0.00    +0.000 C 
ATOM     10  C   UNL     1       0.294  12.094  18.933  0.00  0.00    +0.000 C 
ATOM     11  N   UNL     1       1.601   9.766  18.137  0.00  0.00    +0.000 NA
ATOM     12  C   UNL     1       2.083   8.573  17.725  0.00  0.00    +0.000 A 
ENDROOT
BRANCH   1  16
ATOM     13  C   UNL     1       5.011   3.938  16.455  0.00  0.00    +0.000 C 
ATOM     14  N   UNL     1       3.968   4.641  17.162  0.00  0.00    +0.000 N 
ATOM     15  C   UNL     1       3.938   5.969  17.470  0.00  0.00    +0.000 A 
ATOM     16  C   UNL     1       2.720   6.201  18.079  0.00  0.00    +0.000 A 
ATOM     17  C   UNL     1       2.111   4.924  18.114  0.00  0.00    +0.000 A 
ATOM     18  N   UNL     1       2.874   3.975  17.568  0.00  0.00    +0.000 NA
ENDBRANCH   1  16
BRANCH   9  19
ATOM     19  C   UNL     1      -2.035  10.995  18.544  0.00  0.00    +0.000 C 
BRANCH  19  20
ATOM     20  N   UNL     1      -3.257  11.304  17.851  0.00  0.00    +0.000 N 
ATOM     21  N   UNL     1      -3.350  11.142  16.512  0.00  0.00    +0.000 NA
ATOM     22  N   UNL     1      -4.604  11.410  16.162  0.00  0.00    +0.000 NA
ATOM     23  C   UNL     1      -5.276  11.790  17.284  0.00  0.00    +0.000 A 
ATOM     24  N   UNL     1      -6.577  12.156  17.382  0.00  0.00    +0.000 NA
ATOM     25  C   UNL     1      -6.919  12.467  18.652  0.00  0.00    +0.000 A 
ATOM     26  C   UNL     1      -6.059  12.445  19.767  0.00  0.00    +0.000 A 
ATOM     27  N   UNL     1      -4.751  12.066  19.668  0.00  0.00    +0.000 NA
ATOM     28  C   UNL     1      -4.431  11.754  18.388  0.00  0.00    +0.000 A 
BRANCH  26  29
ATOM     29  C   UNL     1      -6.563  12.777  21.113  0.00  0.00    +0.000 A 
ATOM     30  C   UNL     1      -7.496  11.945  21.764  0.00  0.00    +0.000 A 
ATOM     31  C   UNL     1      -7.888  12.175  23.083  0.00  0.00    +0.000 A 
ATOM     32  C   UNL     1      -7.388  13.277  23.766  0.00  0.00    +0.000 A 
ATOM     33  C   UNL     1      -6.514  14.159  23.125  0.00  0.00    +0.000 A 
ATOM     34  C   UNL     1      -6.097  13.905  21.810  0.00  0.00    +0.000 A 
BRANCH  33  35
ATOM     35  C   UNL     1      -6.044  15.328  23.813  0.00  0.00    +0.000 C 
ATOM     36  N   UNL     1      -5.669  16.268  24.369  0.00  0.00    +0.000 NA
ENDBRANCH  33  35
ENDBRANCH  26  29
ENDBRANCH  19  20
ENDBRANCH   9  19
TORSDOF 5
ENDMDL
MODEL 2
REMARK VINA RESULT:      -8.7      1.094      1.271
REMARK  Name = 
REMARK  6 active torsions:
REMARK  status: ('A' for Active; 'I' for Inactive)
REMARK    1  A    between atoms: C_1  and  N_2
REMARK    2  A    between atoms: C_4  and  C_5
REMARK    3  A    between atoms: C_13  and  C_14
REMARK    4  A    between atoms: C_14  and  N_15
REMARK    5  A    between atoms: C_21  and  C_22
REMARK    6  A    between atoms: C_26  and  C_27
REMARK                            x       y       z     vdW  Elec       q    Type
REMARK                         _______ _______ _______ _____ _____    ______ ____
ROOT
ATOM      1  C   UNL     1       2.460   6.902  18.626  0.00  0.00    +0.000 A 
ATOM      2  C   UNL     1       2.027   7.220  19.894  0.00  0.00    +0.000 A 
ATOM      3  N   UNL     1       1.609   8.446  20.270  0.00  0.00    +0.000 NA
ATOM      4  C   UNL     1       1.609   9.416  19.348  0.00  0.00    +0.000 A 
ATOM      5  N   UNL     1       1.137  10.649  19.701  0.00  0.00    +0.000 N 
ATOM      6  C   UNL     1       0.605  10.907  21.035  0.00  0.00    +0.000 C 
ATOM      7  C   UNL     1      -0.882  11.291  20.968  0.00  0.00    +0.000 C 
ATOM      8  O   UNL     1      -1.173  12.277  19.960  0.00  0.00    +0.000 OA
ATOM      9  C   UNL     1      -0.694  11.891  18.645  0.00  0.00    +0.000 C 
ATOM     10  C   UNL     1       0.831  11.653  18.691  0.00  0.00    +0.000 C 
ATOM     11  N   UNL     1       2.027   9.210  18.091  0.00  0.00    +0.000 NA
ATOM     12  C   UNL     1       2.455   7.971  17.760  0.00  0.00    +0.000 A 
ENDROOT
BRANCH   1  16
ATOM     13  C   UNL     1       2.841   1.968  18.349  0.00  0.00    +0.000 C 
ATOM     14  N   UNL     1       3.008   3.381  18.117  0.00  0.00    +0.000 N 
ATOM     15  C   UNL     1       2.323   4.396  18.716  0.00  0.00    +0.000 A 
ATOM     16  C   UNL     1       2.870   5.572  18.237  0.00  0.00    +0.000 A 
ATOM     17  C   UNL     1       3.860   5.137  17.325  0.00  0.00    +0.000 A 
ATOM     18  N   UNL     1       3.936   3.806  17.243  0.00  0.00    +0.000 NA
ENDBRANCH   1  16
BRANCH   9  19
ATOM     19  C   UNL     1      -1.526  10.717  18.096  0.00  0.00    +0.000 C 
BRANCH  19  20
ATOM     20  N   UNL     1      -2.783  11.083  17.501  0.00  0.00    +0.000 N 
ATOM     21  N   UNL     1      -2.976  10.964  16.169  0.00  0.00    +0.000 NA
ATOM     22  N   UNL     1      -4.243  11.281  15.917  0.00  0.00    +0.000 NA
ATOM     23  C   UNL     1      -4.820  11.648  17.095  0.00  0.00    +0.000 A 
ATOM     24  N   UNL     1      -6.098  12.050  17.296  0.00  0.00    +0.000 NA
ATOM     25  C   UNL     1      -6.339  12.335  18.596  0.00  0.00    +0.000 A 
ATOM     26  C   UNL     1      -5.402  12.253  19.645  0.00  0.00    +0.000 A 
ATOM     27  N   UNL     1      -4.118  11.837  19.442  0.00  0.00    +0.000 NA
ATOM     28  C   UNL     1      -3.901  11.553  18.134  0.00  0.00    +0.000 A 
BRANCH  26  29
ATOM     29  C   UNL     1      -5.798  12.560  21.033  0.00  0.00    +0.000 A 
ATOM     30  C   UNL     1      -7.115  12.330  21.480  0.00  0.00    +0.000 A 
ATOM     31  C   UNL     1      -7.474  12.496  22.817  0.00  0.00    +0.000 A 
ATOM     32  C   UNL     1      -6.529  12.946  23.732  0.00  0.00    +0.000 A 
ATOM     33  C   UNL     1      -5.233  13.248  23.306  0.00  0.00    +0.000 A 
ATOM     34  C   UNL     1      -4.868  13.048  21.967  0.00  0.00    +0.000 A 
BRANCH  33  35
ATOM     35  C   UNL     1      -4.276  13.768  24.240  0.00  0.00    +0.000 C 
ATOM     36  N   UNL     1      -3.503  14.188  24.990  0.00  0.00    +0.000 NA
ENDBRANCH  33  35
ENDBRANCH  26  29
ENDBRANCH  19  20
ENDBRANCH   9  19
TORSDOF 5
ENDMDL
MODEL 3
REMARK VINA RESULT:      -8.4      2.495      5.975
REMARK  Name = 
REMARK  6 active torsions:
REMARK  status: ('A' for Active; 'I' for Inactive)
REMARK    1  A    between atoms: C_1  and  N_2
REMARK    2  A    between atoms: C_4  and  C_5
REMARK    3  A    between atoms: C_13  and  C_14
REMARK    4  A    between atoms: C_14  and  N_15
REMARK    5  A    between atoms: C_21  and  C_22
REMARK    6  A    between atoms: C_26  and  C_27
REMARK                            x       y       z     vdW  Elec       q    Type
REMARK                         _______ _______ _______ _____ _____    ______ ____
ROOT
ATOM      1  C   UNL     1       0.173  11.387  20.252  0.00  0.00    +0.000 A 
ATOM      2  C   UNL     1       0.295  11.534  21.615  0.00  0.00    +0.000 A 
ATOM      3  N   UNL     1      -0.307  12.504  22.333  0.00  0.00    +0.000 NA
ATOM      4  C   UNL     1      -1.081  13.378  21.677  0.00  0.00    +0.000 A 
ATOM      5  N   UNL     1      -1.741  14.333  22.398  0.00  0.00    +0.000 N 
ATOM      6  C   UNL     1      -1.648  14.387  23.854  0.00  0.00    +0.000 C 
ATOM      7  C   UNL     1      -3.022  14.153  24.501  0.00  0.00    +0.000 C 
ATOM      8  O   UNL     1      -4.076  14.926  23.897  0.00  0.00    +0.000 OA
ATOM      9  C   UNL     1      -4.159  14.733  22.460  0.00  0.00    +0.000 C 
ATOM     10  C   UNL     1      -2.815  15.114  21.802  0.00  0.00    +0.000 C 
ATOM     11  N   UNL     1      -1.250  13.328  20.347  0.00  0.00    +0.000 NA
ATOM     12  C   UNL     1      -0.613  12.351  19.664  0.00  0.00    +0.000 A 
ENDROOT
BRANCH   1  16
ATOM     13  C   UNL     1       2.409   7.117  19.096  0.00  0.00    +0.000 C 
ATOM     14  N   UNL     1       1.774   8.409  19.016  0.00  0.00    +0.000 N 
ATOM     15  C   UNL     1       1.218   9.113  20.043  0.00  0.00    +0.000 A 
ATOM     16  C   UNL     1       0.801  10.317  19.509  0.00  0.00    +0.000 A 
ATOM     17  C   UNL     1       1.130  10.211  18.138  0.00  0.00    +0.000 A 
ATOM     18  N   UNL     1       1.709   9.047  17.836  0.00  0.00    +0.000 NA
ENDBRANCH   1  16
BRANCH   9  19
ATOM     19  C   UNL     1      -4.668  13.316  22.138  0.00  0.00    +0.000 C 
BRANCH  19  20
ATOM     20  N   UNL     1      -5.764  13.256  21.209  0.00  0.00    +0.000 N 
ATOM     21  N   UNL     1      -6.970  13.774  21.531  0.00  0.00    +0.000 NA
ATOM     22  N   UNL     1      -7.753  13.661  20.462  0.00  0.00    +0.000 NA
ATOM     23  C   UNL     1      -7.042  13.023  19.492  0.00  0.00    +0.000 A 
ATOM     24  N   UNL     1      -7.457  12.699  18.244  0.00  0.00    +0.000 NA
ATOM     25  C   UNL     1      -6.489  12.072  17.537  0.00  0.00    +0.000 A 
ATOM     26  C   UNL     1      -5.197  11.759  18.005  0.00  0.00    +0.000 A 
ATOM     27  N   UNL     1      -4.778  12.096  19.259  0.00  0.00    +0.000 NA
ATOM     28  C   UNL     1      -5.761  12.727  19.947  0.00  0.00    +0.000 A 
BRANCH  26  29
ATOM     29  C   UNL     1      -4.217  11.100  17.122  0.00  0.00    +0.000 A 
ATOM     30  C   UNL     1      -3.000  10.604  17.632  0.00  0.00    +0.000 A 
ATOM     31  C   UNL     1      -2.119   9.869  16.839  0.00  0.00    +0.000 A 
ATOM     32  C   UNL     1      -2.416   9.655  15.498  0.00  0.00    +0.000 A 
ATOM     33  C   UNL     1      -3.582  10.193  14.946  0.00  0.00    +0.000 A 
ATOM     34  C   UNL     1      -4.481  10.903  15.756  0.00  0.00    +0.000 A 
BRANCH  33  35
ATOM     35  C   UNL     1      -3.858  10.021  13.548  0.00  0.00    +0.000 C 
ATOM     36  N   UNL     1      -4.084   9.881  12.424  0.00  0.00    +0.000 NA
ENDBRANCH  33  35
ENDBRANCH  26  29
ENDBRANCH  19  20
ENDBRANCH   9  19
TORSDOF 5
ENDMDL
MODEL 4
REMARK VINA RESULT:      -8.0      1.404      1.739
REMARK  Name = 
REMARK  6 active torsions:
REMARK  status: ('A' for Active; 'I' for Inactive)
REMARK    1  A    between atoms: C_1  and  N_2
REMARK    2  A    between atoms: C_4  and  C_5
REMARK    3  A    between atoms: C_13  and  C_14
REMARK    4  A    between atoms: C_14  and  N_15
REMARK    5  A    between atoms: C_21  and  C_22
REMARK    6  A    between atoms: C_26  and  C_27
REMARK                            x       y       z     vdW  Elec       q    Type
REMARK                         _______ _______ _______ _____ _____    ______ ____
ROOT
ATOM      1  C   UNL     1       2.612   6.536  18.701  0.00  0.00    +0.000 A 
ATOM      2  C   UNL     1       2.191   6.591  20.010  0.00  0.00    +0.000 A 
ATOM      3  N   UNL     1       1.714   7.702  20.609  0.00  0.00    +0.000 NA
ATOM      4  C   UNL     1       1.640   8.822  19.881  0.00  0.00    +0.000 A 
ATOM      5  N   UNL     1       1.108   9.941  20.459  0.00  0.00    +0.000 N 
ATOM      6  C   UNL     1       0.592   9.919  21.824  0.00  0.00    +0.000 C 
ATOM      7  C   UNL     1      -0.915  10.221  21.846  0.00  0.00    +0.000 C 
ATOM      8  O   UNL     1      -1.282  11.356  21.039  0.00  0.00    +0.000 OA
ATOM      9  C   UNL     1      -0.813  11.244  19.670  0.00  0.00    +0.000 C 
ATOM     10  C   UNL     1       0.724  11.092  19.653  0.00  0.00    +0.000 C 
ATOM     11  N   UNL     1       2.041   8.874  18.602  0.00  0.00    +0.000 NA
ATOM     12  C   UNL     1       2.529   7.743  18.045  0.00  0.00    +0.000 A 
ENDROOT
BRANCH   1  16
ATOM     13  C   UNL     1       5.282   3.351  15.999  0.00  0.00    +0.000 C 
ATOM     14  N   UNL     1       4.297   3.927  16.881  0.00  0.00    +0.000 N 
ATOM     15  C   UNL     1       4.232   5.222  17.303  0.00  0.00    +0.000 A 
ATOM     16  C   UNL     1       3.087   5.325  18.070  0.00  0.00    +0.000 A 
ATOM     17  C   UNL     1       2.559   4.013  18.067  0.00  0.00    +0.000 A 
ATOM     18  N   UNL     1       3.300   3.161  17.355  0.00  0.00    +0.000 NA
ENDBRANCH   1  16
BRANCH   9  19
ATOM     19  C   UNL     1      -1.590  10.143  18.925  0.00  0.00    +0.000 C 
BRANCH  19  20
ATOM     20  N   UNL     1      -2.415  10.603  17.841  0.00  0.00    +0.000 N 
ATOM     21  N   UNL     1      -2.102  10.305  16.561  0.00  0.00    +0.000 NA
ATOM     22  N   UNL     1      -3.078  10.774  15.789  0.00  0.00    +0.000 NA
ATOM     23  C   UNL     1      -3.973  11.411  16.594  0.00  0.00    +0.000 A 
ATOM     24  N   UNL     1      -5.115  12.038  16.222  0.00  0.00    +0.000 NA
ATOM     25  C   UNL     1      -5.772  12.561  17.283  0.00  0.00    +0.000 A 
ATOM     26  C   UNL     1      -5.350  12.500  18.625  0.00  0.00    +0.000 A 
ATOM     27  N   UNL     1      -4.204  11.860  18.998  0.00  0.00    +0.000 NA
ATOM     28  C   UNL     1      -3.566  11.339  17.922  0.00  0.00    +0.000 A 
BRANCH  26  29
ATOM     29  C   UNL     1      -6.175  13.084  19.700  0.00  0.00    +0.000 A 
ATOM     30  C   UNL     1      -7.033  14.173  19.446  0.00  0.00    +0.000 A 
ATOM     31  C   UNL     1      -7.911  14.656  20.416  0.00  0.00    +0.000 A 
ATOM     32  C   UNL     1      -7.913  14.088  21.685  0.00  0.00    +0.000 A 
ATOM     33  C   UNL     1      -7.025  13.052  21.988  0.00  0.00    +0.000 A 
ATOM     34  C   UNL     1      -6.168  12.548  20.999  0.00  0.00    +0.000 A 
BRANCH  33  35
ATOM     35  C   UNL     1      -6.988  12.506  23.315  0.00  0.00    +0.000 C 
ATOM     36  N   UNL     1      -6.956  12.069  24.384  0.00  0.00    +0.000 NA
ENDBRANCH  33  35
ENDBRANCH  26  29
ENDBRANCH  19  20
ENDBRANCH   9  19
TORSDOF 5
ENDMDL
MODEL 5
REMARK VINA RESULT:      -7.9      1.330      1.472
REMARK  Name = 
REMARK  6 active torsions:
REMARK  status: ('A' for Active; 'I' for Inactive)
REMARK    1  A    between atoms: C_1  and  N_2
REMARK    2  A    between atoms: C_4  and  C_5
REMARK    3  A    between atoms: C_13  and  C_14
REMARK    4  A    between atoms: C_14  and  N_15
REMARK    5  A    between atoms: C_21  and  C_22
REMARK    6  A    between atoms: C_26  and  C_27
REMARK                            x       y       z     vdW  Elec       q    Type
REMARK                         _______ _______ _______ _____ _____    ______ ____
ROOT
ATOM      1  C   UNL     1       2.154   6.392  19.183  0.00  0.00    +0.000 A 
ATOM      2  C   UNL     1       1.791   6.816  20.441  0.00  0.00    +0.000 A 
ATOM      3  N   UNL     1       1.489   8.092  20.756  0.00  0.00    +0.000 NA
ATOM      4  C   UNL     1       1.537   9.006  19.778  0.00  0.00    +0.000 A 
ATOM      5  N   UNL     1       1.180  10.292  20.070  0.00  0.00    +0.000 N 
ATOM      6  C   UNL     1       0.716  10.669  21.401  0.00  0.00    +0.000 C 
ATOM      7  C   UNL     1      -0.736  11.172  21.355  0.00  0.00    +0.000 C 
ATOM      8  O   UNL     1      -0.978  12.120  20.299  0.00  0.00    +0.000 OA
ATOM      9  C   UNL     1      -0.578  11.621  18.995  0.00  0.00    +0.000 C 
ATOM     10  C   UNL     1       0.923  11.258  19.011  0.00  0.00    +0.000 C 
ATOM     11  N   UNL     1       1.894   8.694  18.523  0.00  0.00    +0.000 NA
ATOM     12  C   UNL     1       2.207   7.407  18.255  0.00  0.00    +0.000 A 
ENDROOT
BRANCH   1  16
ATOM     13  C   UNL     1       4.059   1.817  19.277  0.00  0.00    +0.000 C 
ATOM     14  N   UNL     1       3.283   2.983  18.934  0.00  0.00    +0.000 N 
ATOM     15  C   UNL     1       3.270   4.180  19.588  0.00  0.00    +0.000 A 
ATOM     16  C   UNL     1       2.440   5.012  18.862  0.00  0.00    +0.000 A 
ATOM     17  C   UNL     1       1.982   4.192  17.804  0.00  0.00    +0.000 A 
ATOM     18  N   UNL     1       2.484   2.956  17.855  0.00  0.00    +0.000 NA
ENDBRANCH   1  16
BRANCH   9  19
ATOM     19  C   UNL     1      -1.521  10.491  18.542  0.00  0.00    +0.000 C 
BRANCH  19  20
ATOM     20  N   UNL     1      -2.598  10.902  17.682  0.00  0.00    +0.000 N 
ATOM     21  N   UNL     1      -2.566  10.630  16.358  0.00  0.00    +0.000 NA
ATOM     22  N   UNL     1      -3.719  11.038  15.837  0.00  0.00    +0.000 NA
ATOM     23  C   UNL     1      -4.446  11.613  16.836  0.00  0.00    +0.000 A 
ATOM     24  N   UNL     1      -5.679  12.166  16.745  0.00  0.00    +0.000 NA
ATOM     25  C   UNL     1      -6.108  12.641  17.936  0.00  0.00    +0.000 A 
ATOM     26  C   UNL     1      -5.389  12.602  19.147  0.00  0.00    +0.000 A 
ATOM     27  N   UNL     1      -4.151  12.035  19.238  0.00  0.00    +0.000 NA
ATOM     28  C   UNL     1      -3.743  11.561  18.035  0.00  0.00    +0.000 A 
BRANCH  26  29
ATOM     29  C   UNL     1      -5.983  13.127  20.391  0.00  0.00    +0.000 A 
ATOM     30  C   UNL     1      -6.273  12.272  21.473  0.00  0.00    +0.000 A 
ATOM     31  C   UNL     1      -6.716  12.767  22.699  0.00  0.00    +0.000 A 
ATOM     32  C   UNL     1      -6.926  14.133  22.854  0.00  0.00    +0.000 A 
ATOM     33  C   UNL     1      -6.713  14.999  21.778  0.00  0.00    +0.000 A 
ATOM     34  C   UNL     1      -6.235  14.500  20.557  0.00  0.00    +0.000 A 
BRANCH  33  35
ATOM     35  C   UNL     1      -6.986  16.401  21.922  0.00  0.00    +0.000 C 
ATOM     36  N   UNL     1      -7.209  17.528  22.037  0.00  0.00    +0.000 NA
ENDBRANCH  33  35
ENDBRANCH  26  29
ENDBRANCH  19  20
ENDBRANCH   9  19
TORSDOF 5
ENDMDL
MODEL 6
REMARK VINA RESULT:      -7.9      4.630      9.011
REMARK  Name = 
REMARK  6 active torsions:
REMARK  status: ('A' for Active; 'I' for Inactive)
REMARK    1  A    between atoms: C_1  and  N_2
REMARK    2  A    between atoms: C_4  and  C_5
REMARK    3  A    between atoms: C_13  and  C_14
REMARK    4  A    between atoms: C_14  and  N_15
REMARK    5  A    between atoms: C_21  and  C_22
REMARK    6  A    between atoms: C_26  and  C_27
REMARK                            x       y       z     vdW  Elec       q    Type
REMARK                         _______ _______ _______ _____ _____    ______ ____
ROOT
ATOM      1  C   UNL     1       5.035  15.322  18.718  0.00  0.00    +0.000 A 
ATOM      2  C   UNL     1       4.357  16.465  19.077  0.00  0.00    +0.000 A 
ATOM      3  N   UNL     1       3.014  16.586  19.073  0.00  0.00    +0.000 NA
ATOM      4  C   UNL     1       2.292  15.521  18.701  0.00  0.00    +0.000 A 
ATOM      5  N   UNL     1       0.929  15.611  18.744  0.00  0.00    +0.000 N 
ATOM      6  C   UNL     1       0.261  16.819  19.221  0.00  0.00    +0.000 C 
ATOM      7  C   UNL     1      -0.563  16.528  20.485  0.00  0.00    +0.000 C 
ATOM      8  O   UNL     1      -1.376  15.345  20.377  0.00  0.00    +0.000 OA
ATOM      9  C   UNL     1      -0.611  14.171  19.996  0.00  0.00    +0.000 C 
ATOM     10  C   UNL     1       0.095  14.422  18.645  0.00  0.00    +0.000 C 
ATOM     11  N   UNL     1       2.860  14.368  18.318  0.00  0.00    +0.000 NA
ATOM     12  C   UNL     1       4.210  14.296  18.320  0.00  0.00    +0.000 A 
ENDROOT
BRANCH   1  16
ATOM     13  C   UNL     1       9.704  15.064  20.365  0.00  0.00    +0.000 C 
ATOM     14  N   UNL     1       8.536  15.073  19.518  0.00  0.00    +0.000 N 
ATOM     15  C   UNL     1       7.235  15.159  19.917  0.00  0.00    +0.000 A 
ATOM     16  C   UNL     1       6.475  15.205  18.764  0.00  0.00    +0.000 A 
ATOM     17  C   UNL     1       7.431  15.106  17.726  0.00  0.00    +0.000 A 
ATOM     18  N   UNL     1       8.682  15.013  18.184  0.00  0.00    +0.000 NA
ENDBRANCH   1  16
BRANCH   9  19
ATOM     19  C   UNL     1       0.313  13.737  21.149  0.00  0.00    +0.000 C 
BRANCH  19  20
ATOM     20  N   UNL     1      -0.156  12.618  21.920  0.00  0.00    +0.000 N 
ATOM     21  N   UNL     1      -0.938  12.808  23.006  0.00  0.00    +0.000 NA
ATOM     22  N   UNL     1      -1.292  11.610  23.460  0.00  0.00    +0.000 NA
ATOM     23  C   UNL     1      -0.682  10.674  22.681  0.00  0.00    +0.000 A 
ATOM     24  N   UNL     1      -0.764   9.326  22.794  0.00  0.00    +0.000 NA
ATOM     25  C   UNL     1      -0.033   8.695  21.848  0.00  0.00    +0.000 A 
ATOM     26  C   UNL     1       0.747   9.320  20.855  0.00  0.00    +0.000 A 
ATOM     27  N   UNL     1       0.820  10.678  20.736  0.00  0.00    +0.000 NA
ATOM     28  C   UNL     1       0.077  11.289  21.691  0.00  0.00    +0.000 A 
BRANCH  26  29
ATOM     29  C   UNL     1       1.476   8.517  19.855  0.00  0.00    +0.000 A 
ATOM     30  C   UNL     1       1.747   9.029  18.570  0.00  0.00    +0.000 A 
ATOM     31  C   UNL     1       2.541   8.336  17.658  0.00  0.00    +0.000 A 
ATOM     32  C   UNL     1       3.044   7.085  17.995  0.00  0.00    +0.000 A 
ATOM     33  C   UNL     1       2.736   6.520  19.236  0.00  0.00    +0.000 A 
ATOM     34  C   UNL     1       1.965   7.236  20.163  0.00  0.00    +0.000 A 
BRANCH  33  35
ATOM     35  C   UNL     1       3.208   5.203  19.560  0.00  0.00    +0.000 C 
ATOM     36  N   UNL     1       3.587   4.145  19.824  0.00  0.00    +0.000 NA
ENDBRANCH  33  35
ENDBRANCH  26  29
ENDBRANCH  19  20
ENDBRANCH   9  19
TORSDOF 5
ENDMDL
MODEL 7
REMARK VINA RESULT:      -7.8      5.772     12.868
REMARK  Name = 
REMARK  6 active torsions:
REMARK  status: ('A' for Active; 'I' for Inactive)
REMARK    1  A    between atoms: C_1  and  N_2
REMARK    2  A    between atoms: C_4  and  C_5
REMARK    3  A    between atoms: C_13  and  C_14
REMARK    4  A    between atoms: C_14  and  N_15
REMARK    5  A    between atoms: C_21  and  C_22
REMARK    6  A    between atoms: C_26  and  C_27
REMARK                            x       y       z     vdW  Elec       q    Type
REMARK                         _______ _______ _______ _____ _____    ______ ____
ROOT
ATOM      1  C   UNL     1       1.445   7.238  20.072  0.00  0.00    +0.000 A 
ATOM      2  C   UNL     1       1.076   6.048  20.658  0.00  0.00    +0.000 A 
ATOM      3  N   UNL     1       1.222   4.838  20.079  0.00  0.00    +0.000 NA
ATOM      4  C   UNL     1       1.768   4.791  18.858  0.00  0.00    +0.000 A 
ATOM      5  N   UNL     1       1.973   3.568  18.283  0.00  0.00    +0.000 N 
ATOM      6  C   UNL     1       1.647   2.332  18.987  0.00  0.00    +0.000 C 
ATOM      7  C   UNL     1       2.908   1.488  19.228  0.00  0.00    +0.000 C 
ATOM      8  O   UNL     1       3.741   1.361  18.060  0.00  0.00    +0.000 OA
ATOM      9  C   UNL     1       4.099   2.645  17.484  0.00  0.00    +0.000 C 
ATOM     10  C   UNL     1       2.820   3.424  17.107  0.00  0.00    +0.000 C 
ATOM     11  N   UNL     1       2.145   5.896  18.198  0.00  0.00    +0.000 NA
ATOM     12  C   UNL     1       1.964   7.090  18.806  0.00  0.00    +0.000 A 
ENDROOT
BRANCH   1  16
ATOM     13  C   UNL     1       0.763  12.081  20.878  0.00  0.00    +0.000 C 
ATOM     14  N   UNL     1       0.985  10.668  21.062  0.00  0.00    +0.000 N 
ATOM     15  C   UNL     1       0.980   9.705  20.097  0.00  0.00    +0.000 A 
ATOM     16  C   UNL     1       1.310   8.520  20.726  0.00  0.00    +0.000 A 
ATOM     17  C   UNL     1       1.460   8.888  22.083  0.00  0.00    +0.000 A 
ATOM     18  N   UNL     1       1.250  10.191  22.290  0.00  0.00    +0.000 NA
ENDBRANCH   1  16
BRANCH   9  19
ATOM     19  C   UNL     1       5.075   3.394  18.410  0.00  0.00    +0.000 C 
BRANCH  19  20
ATOM     20  N   UNL     1       5.923   4.354  17.757  0.00  0.00    +0.000 N 
ATOM     21  N   UNL     1       6.614   5.267  18.476  0.00  0.00    +0.000 NA
ATOM     22  N   UNL     1       7.374   5.953  17.629  0.00  0.00    +0.000 NA
ATOM     23  C   UNL     1       7.112   5.496  16.372  0.00  0.00    +0.000 A 
ATOM     24  N   UNL     1       7.662   5.921  15.209  0.00  0.00    +0.000 NA
ATOM     25  C   UNL     1       7.176   5.244  14.144  0.00  0.00    +0.000 A 
ATOM     26  C   UNL     1       6.204   4.225  14.189  0.00  0.00    +0.000 A 
ATOM     27  N   UNL     1       5.659   3.792  15.362  0.00  0.00    +0.000 NA
ATOM     28  C   UNL     1       6.164   4.480  16.416  0.00  0.00    +0.000 A 
BRANCH  26  29
ATOM     29  C   UNL     1       5.779   3.537  12.955  0.00  0.00    +0.000 A 
ATOM     30  C   UNL     1       6.353   2.308  12.574  0.00  0.00    +0.000 A 
ATOM     31  C   UNL     1       5.877   1.584  11.482  0.00  0.00    +0.000 A 
ATOM     32  C   UNL     1       4.841   2.102  10.712  0.00  0.00    +0.000 A 
ATOM     33  C   UNL     1       4.298   3.351  11.023  0.00  0.00    +0.000 A 
ATOM     34  C   UNL     1       4.757   4.060  12.143  0.00  0.00    +0.000 A 
BRANCH  33  35
ATOM     35  C   UNL     1       3.269   3.911  10.193  0.00  0.00    +0.000 C 
ATOM     36  N   UNL     1       2.439   4.358   9.526  0.00  0.00    +0.000 NA
ENDBRANCH  33  35
ENDBRANCH  26  29
ENDBRANCH  19  20
ENDBRANCH   9  19
TORSDOF 5
ENDMDL
MODEL 8
REMARK VINA RESULT:      -7.7      2.786      6.329
REMARK  Name = 
REMARK  6 active torsions:
REMARK  status: ('A' for Active; 'I' for Inactive)
REMARK    1  A    between atoms: C_1  and  N_2
REMARK    2  A    between atoms: C_4  and  C_5
REMARK    3  A    between atoms: C_13  and  C_14
REMARK    4  A    between atoms: C_14  and  N_15
REMARK    5  A    between atoms: C_21  and  C_22
REMARK    6  A    between atoms: C_26  and  C_27
REMARK                            x       y       z     vdW  Elec       q    Type
REMARK                         _______ _______ _______ _____ _____    ______ ____
ROOT
ATOM      1  C   UNL     1      -0.495  11.746  21.103  0.00  0.00    +0.000 A 
ATOM      2  C   UNL     1      -0.715  11.862  22.456  0.00  0.00    +0.000 A 
ATOM      3  N   UNL     1      -1.397  12.873  23.032  0.00  0.00    +0.000 NA
ATOM      4  C   UNL     1      -1.899  13.823  22.234  0.00  0.00    +0.000 A 
ATOM      5  N   UNL     1      -2.639  14.824  22.799  0.00  0.00    +0.000 N 
ATOM      6  C   UNL     1      -2.918  14.849  24.231  0.00  0.00    +0.000 C 
ATOM      7  C   UNL     1      -4.427  14.733  24.499  0.00  0.00    +0.000 C 
ATOM      8  O   UNL     1      -5.221  15.607  23.675  0.00  0.00    +0.000 OA
ATOM      9  C   UNL     1      -4.949  15.443  22.258  0.00  0.00    +0.000 C 
ATOM     10  C   UNL     1      -3.454  15.709  21.978  0.00  0.00    +0.000 C 
ATOM     11  N   UNL     1      -1.725  13.807  20.904  0.00  0.00    +0.000 NA
ATOM     12  C   UNL     1      -1.020  12.786  20.370  0.00  0.00    +0.000 A 
ENDROOT
BRANCH   1  16
ATOM     13  C   UNL     1       2.148   8.968  17.961  0.00  0.00    +0.000 C 
ATOM     14  N   UNL     1       1.400   9.427  19.106  0.00  0.00    +0.000 N 
ATOM     15  C   UNL     1       0.918  10.684  19.319  0.00  0.00    +0.000 A 
ATOM     16  C   UNL     1       0.209  10.634  20.504  0.00  0.00    +0.000 A 
ATOM     17  C   UNL     1       0.363   9.295  20.934  0.00  0.00    +0.000 A 
ATOM     18  N   UNL     1       1.097   8.565  20.091  0.00  0.00    +0.000 NA
ENDBRANCH   1  16
BRANCH   9  19
ATOM     19  C   UNL     1      -5.477  14.083  21.766  0.00  0.00    +0.000 C 
BRANCH  19  20
ATOM     20  N   UNL     1      -6.294  14.135  20.584  0.00  0.00    +0.000 N 
ATOM     21  N   UNL     1      -7.421  14.881  20.557  0.00  0.00    +0.000 NA
ATOM     22  N   UNL     1      -7.916  14.816  19.325  0.00  0.00    +0.000 NA
ATOM     23  C   UNL     1      -7.117  13.983  18.601  0.00  0.00    +0.000 A 
ATOM     24  N   UNL     1      -7.258  13.631  17.300  0.00  0.00    +0.000 NA
ATOM     25  C   UNL     1      -6.281  12.788  16.897  0.00  0.00    +0.000 A 
ATOM     26  C   UNL     1      -5.233  12.296  17.700  0.00  0.00    +0.000 A 
ATOM     27  N   UNL     1      -5.087  12.660  19.007  0.00  0.00    +0.000 NA
ATOM     28  C   UNL     1      -6.074  13.509  19.388  0.00  0.00    +0.000 A 
BRANCH  26  29
ATOM     29  C   UNL     1      -4.205  11.403  17.132  0.00  0.00    +0.000 A 
ATOM     30  C   UNL     1      -3.238  10.794  17.955  0.00  0.00    +0.000 A 
ATOM     31  C   UNL     1      -2.339   9.852  17.455  0.00  0.00    +0.000 A 
ATOM     32  C   UNL     1      -2.357   9.534  16.102  0.00  0.00    +0.000 A 
ATOM     33  C   UNL     1      -3.259  10.173  15.247  0.00  0.00    +0.000 A 
ATOM     34  C   UNL     1      -4.183  11.095  15.760  0.00  0.00    +0.000 A 
BRANCH  33  35
ATOM     35  C   UNL     1      -3.238   9.887  13.841  0.00  0.00    +0.000 C 
ATOM     36  N   UNL     1      -3.221   9.660  12.708  0.00  0.00    +0.000 NA
ENDBRANCH  33  35
ENDBRANCH  26  29
ENDBRANCH  19  20
ENDBRANCH   9  19
TORSDOF 5
ENDMDL
MODEL 9
REMARK VINA RESULT:      -7.6      5.000      9.208
REMARK  Name = 
REMARK  6 active torsions:
REMARK  status: ('A' for Active; 'I' for Inactive)
REMARK    1  A    between atoms: C_1  and  N_2
REMARK    2  A    between atoms: C_4  and  C_5
REMARK    3  A    between atoms: C_13  and  C_14
REMARK    4  A    between atoms: C_14  and  N_15
REMARK    5  A    between atoms: C_21  and  C_22
REMARK    6  A    between atoms: C_26  and  C_27
REMARK                            x       y       z     vdW  Elec       q    Type
REMARK                         _______ _______ _______ _____ _____    ______ ____
ROOT
ATOM      1  C   UNL     1       5.978  15.370  18.511  0.00  0.00    +0.000 A 
ATOM      2  C   UNL     1       5.546  16.279  19.449  0.00  0.00    +0.000 A 
ATOM      3  N   UNL     1       4.250  16.547  19.709  0.00  0.00    +0.000 NA
ATOM      4  C   UNL     1       3.321  15.879  19.013  0.00  0.00    +0.000 A 
ATOM      5  N   UNL     1       2.005  16.101  19.304  0.00  0.00    +0.000 N 
ATOM      6  C   UNL     1       1.604  17.010  20.373  0.00  0.00    +0.000 C 
ATOM      7  C   UNL     1       0.848  16.258  21.479  0.00  0.00    +0.000 C 
ATOM      8  O   UNL     1      -0.170  15.373  20.975  0.00  0.00    +0.000 OA
ATOM      9  C   UNL     1       0.340  14.436  19.989  0.00  0.00    +0.000 C 
ATOM     10  C   UNL     1       0.966  15.208  18.807  0.00  0.00    +0.000 C 
ATOM     11  N   UNL     1       3.642  14.985  18.066  0.00  0.00    +0.000 NA
ATOM     12  C   UNL     1       4.953  14.760  17.825  0.00  0.00    +0.000 A 
ENDROOT
BRANCH   1  16
ATOM     13  C   UNL     1      10.279  12.953  18.033  0.00  0.00    +0.000 C 
ATOM     14  N   UNL     1       9.265  13.979  18.049  0.00  0.00    +0.000 N 
ATOM     15  C   UNL     1       7.934  13.812  18.292  0.00  0.00    +0.000 A 
ATOM     16  C   UNL     1       7.373  15.074  18.274  0.00  0.00    +0.000 A 
ATOM     17  C   UNL     1       8.463  15.924  17.975  0.00  0.00    +0.000 A 
ATOM     18  N   UNL     1       9.610  15.258  17.825  0.00  0.00    +0.000 NA
ENDBRANCH   1  16
BRANCH   9  19
ATOM     19  C   UNL     1       1.263  13.403  20.661  0.00  0.00    +0.000 C 
BRANCH  19  20
ATOM     20  N   UNL     1       0.592  12.399  21.443  0.00  0.00    +0.000 N 
ATOM     21  N   UNL     1      -0.233  12.751  22.454  0.00  0.00    +0.000 NA
ATOM     22  N   UNL     1      -0.779  11.636  22.931  0.00  0.00    +0.000 NA
ATOM     23  C   UNL     1      -0.247  10.587  22.245  0.00  0.00    +0.000 A 
ATOM     24  N   UNL     1      -0.520   9.270  22.412  0.00  0.00    +0.000 NA
ATOM     25  C   UNL     1       0.184   8.497  21.555  0.00  0.00    +0.000 A 
ATOM     26  C   UNL     1       1.112   8.957  20.600  0.00  0.00    +0.000 A 
ATOM     27  N   UNL     1       1.377  10.285  20.427  0.00  0.00    +0.000 NA
ATOM     28  C   UNL     1       0.657  11.041  21.292  0.00  0.00    +0.000 A 
BRANCH  26  29
ATOM     29  C   UNL     1       1.795   8.011  19.698  0.00  0.00    +0.000 A 
ATOM     30  C   UNL     1       2.209   8.407  18.410  0.00  0.00    +0.000 A 
ATOM     31  C   UNL     1       2.965   7.567  17.594  0.00  0.00    +0.000 A 
ATOM     32  C   UNL     1       3.283   6.286  18.031  0.00  0.00    +0.000 A 
ATOM     33  C   UNL     1       2.828   5.840  19.275  0.00  0.00    +0.000 A 
ATOM     34  C   UNL     1       2.097   6.701  20.107  0.00  0.00    +0.000 A 
BRANCH  33  35
ATOM     35  C   UNL     1       3.108   4.498  19.701  0.00  0.00    +0.000 C 
ATOM     36  N   UNL     1       3.332   3.419  20.046  0.00  0.00    +0.000 NA
ENDBRANCH  33  35
ENDBRANCH  26  29
ENDBRANCH  19  20
ENDBRANCH   9  19
TORSDOF 5
ENDMDL
