MODEL 1
REMARK VINA RESULT:      -7.4      0.000      0.000
REMARK  Name = 
REMARK  11 active torsions:
REMARK  status: ('A' for Active; 'I' for Inactive)
REMARK    1  A    between atoms: C_1  and  C_2
REMARK    2  A    between atoms: C_4  and  N_5
REMARK    3  A    between atoms: C_6  and  C_8
REMARK    4  A    between atoms: C_8  and  N_9
REMARK    5  A    between atoms: N_9  and  C_10
REMARK    6  A    between atoms: N_9  and  C_11
REMARK    7  A    between atoms: C_13  and  C_14
REMARK    8  A    between atoms: C_15  and  C_16
REMARK    9  A    between atoms: N_21  and  C_22
REMARK   10  A    between atoms: C_22  and  C_23
REMARK   11  A    between atoms: C_27  and  O_28
REMARK                            x       y       z     vdW  Elec       q    Type
REMARK                         _______ _______ _______ _____ _____    ______ ____
ROOT
ATOM      1  C   UNL     1       0.616  10.665  19.689  0.00  0.00    +0.000 A 
ATOM      2  C   UNL     1      -0.477  11.014  18.923  0.00  0.00    +0.000 A 
ATOM      3  N   UNL     1      -0.876  12.290  18.775  0.00  0.00    +0.000 NA
ATOM      4  N   UNL     1      -0.217  13.239  19.469  0.00  0.00    +0.000 NA
ATOM      5  C   UNL     1       0.825  12.893  20.257  0.00  0.00    +0.000 A 
ATOM      6  N   UNL     1       1.442  13.840  21.054  0.00  0.00    +0.000 N 
ATOM      7  N   UNL     1       1.289  11.640  20.349  0.00  0.00    +0.000 NA
ATOM      8  H   UNL     1       2.336  13.480  21.377  0.00  0.00    +0.000 HD
ENDROOT
BRANCH   1  16
ATOM      9  C   UNL     1       2.287   9.218  17.619  0.00  0.00    +0.000 C 
ATOM     10  C   UNL     1       1.885   8.596  18.938  0.00  0.00    +0.000 A 
ATOM     11  C   UNL     1       2.354   7.285  19.155  0.00  0.00    +0.000 A 
ATOM     12  C   UNL     1       2.062   6.565  20.303  0.00  0.00    +0.000 A 
ATOM     13  C   UNL     1       1.258   7.183  21.261  0.00  0.00    +0.000 A 
ATOM     14  C   UNL     1       0.753   8.501  21.085  0.00  0.00    +0.000 A 
ATOM     15  C   UNL     1      -0.136   9.020  22.191  0.00  0.00    +0.000 C 
ATOM     16  C   UNL     1       1.075   9.257  19.912  0.00  0.00    +0.000 A 
BRANCH  12  17
ATOM     17  N   UNL     1       2.516   5.245  20.528  0.00  0.00    +0.000 N 
ATOM     18  C   UNL     1       1.755   4.089  20.497  0.00  0.00    +0.000 C 
ATOM     19  O   UNL     1       0.562   3.999  20.213  0.00  0.00    +0.000 OA
ATOM     20  H   UNL     1       3.492   5.120  20.784  0.00  0.00    +0.000 HD
BRANCH  18  21
ATOM     21  C   UNL     1       2.547   2.818  20.819  0.00  0.00    +0.000 C 
BRANCH  21  22
ATOM     22  N   UNL     1       3.636   2.579  19.843  0.00  0.00    +0.000 NA
ATOM     23  C   UNL     1       4.726   1.806  20.461  0.00  0.00    +0.000 C 
ATOM     24  C   UNL     1       3.095   1.809  18.714  0.00  0.00    +0.000 C 
ENDBRANCH  21  22
ENDBRANCH  18  21
ENDBRANCH  12  17
ENDBRANCH   1  16
BRANCH   6  25
ATOM     25  C   UNL     1       1.512  15.166  20.456  0.00  0.00    +0.000 C 
BRANCH  25  26
ATOM     26  C   UNL     1       2.889  15.543  19.969  0.00  0.00    +0.000 A 
ATOM     27  N   UNL     1       3.615  14.812  19.146  0.00  0.00    +0.000 NA
ATOM     28  C   UNL     1       4.833  15.431  18.922  0.00  0.00    +0.000 A 
ATOM     29  C   UNL     1       5.878  14.915  18.131  0.00  0.00    +0.000 A 
ATOM     30  C   UNL     1       7.058  15.647  18.011  0.00  0.00    +0.000 A 
ATOM     31  C   UNL     1       7.214  16.875  18.640  0.00  0.00    +0.000 A 
ATOM     32  C   UNL     1       6.187  17.409  19.420  0.00  0.00    +0.000 A 
ATOM     33  C   UNL     1       5.004  16.663  19.555  0.00  0.00    +0.000 A 
ATOM     34  S   UNL     1       3.588  17.033  20.460  0.00  0.00    +0.000 S 
BRANCH  30  35
ATOM     35  O   UNL     1       8.105  15.178  17.273  0.00  0.00    +0.000 OA
ATOM     36  H   UNL     1       8.090  15.609  16.401  0.00  0.00    +0.000 HD
ENDBRANCH  30  35
ENDBRANCH  25  26
ENDBRANCH   6  25
TORSDOF 7
ENDMDL
MODEL 2
REMARK VINA RESULT:      -7.4      4.834     10.279
REMARK  Name = 
REMARK  11 active torsions:
REMARK  status: ('A' for Active; 'I' for Inactive)
REMARK    1  A    between atoms: C_1  and  C_2
REMARK    2  A    between atoms: C_4  and  N_5
REMARK    3  A    between atoms: C_6  and  C_8
REMARK    4  A    between atoms: C_8  and  N_9
REMARK    5  A    between atoms: N_9  and  C_10
REMARK    6  A    between atoms: N_9  and  C_11
REMARK    7  A    between atoms: C_13  and  C_14
REMARK    8  A    between atoms: C_15  and  C_16
REMARK    9  A    between atoms: N_21  and  C_22
REMARK   10  A    between atoms: C_22  and  C_23
REMARK   11  A    between atoms: C_27  and  O_28
REMARK                            x       y       z     vdW  Elec       q    Type
REMARK                         _______ _______ _______ _____ _____    ______ ____
ROOT
ATOM      1  C   UNL     1      -0.188  12.011  19.145  0.00  0.00    +0.000 A 
ATOM      2  C   UNL     1       0.724  12.926  18.662  0.00  0.00    +0.000 A 
ATOM      3  N   UNL     1       1.923  12.559  18.173  0.00  0.00    +0.000 NA
ATOM      4  N   UNL     1       2.255  11.255  18.236  0.00  0.00    +0.000 NA
ATOM      5  C   UNL     1       1.381  10.363  18.752  0.00  0.00    +0.000 A 
ATOM      6  N   UNL     1       1.748   9.040  18.918  0.00  0.00    +0.000 N 
ATOM      7  N   UNL     1       0.150  10.698  19.164  0.00  0.00    +0.000 NA
ATOM      8  H   UNL     1       0.918   8.474  19.073  0.00  0.00    +0.000 HD
ENDROOT
BRANCH   1  16
ATOM      9  C   UNL     1      -2.756  11.550  17.606  0.00  0.00    +0.000 C 
ATOM     10  C   UNL     1      -2.722  12.127  19.004  0.00  0.00    +0.000 A 
ATOM     11  C   UNL     1      -3.981  12.430  19.561  0.00  0.00    +0.000 A 
ATOM     12  C   UNL     1      -4.127  12.980  20.825  0.00  0.00    +0.000 A 
ATOM     13  C   UNL     1      -2.965  13.247  21.547  0.00  0.00    +0.000 A 
ATOM     14  C   UNL     1      -1.671  12.967  21.026  0.00  0.00    +0.000 A 
ATOM     15  C   UNL     1      -0.507  13.348  21.909  0.00  0.00    +0.000 C 
ATOM     16  C   UNL     1      -1.518  12.373  19.731  0.00  0.00    +0.000 A 
BRANCH  12  17
ATOM     17  N   UNL     1      -5.382  13.300  21.391  0.00  0.00    +0.000 N 
ATOM     18  C   UNL     1      -6.471  12.455  21.527  0.00  0.00    +0.000 C 
ATOM     19  O   UNL     1      -6.521  11.263  21.231  0.00  0.00    +0.000 OA
ATOM     20  H   UNL     1      -5.532  14.259  21.696  0.00  0.00    +0.000 HD
BRANCH  18  21
ATOM     21  C   UNL     1      -7.698  13.123  22.156  0.00  0.00    +0.000 C 
BRANCH  21  22
ATOM     22  N   UNL     1      -7.321  14.159  23.147  0.00  0.00    +0.000 NA
ATOM     23  C   UNL     1      -7.912  15.458  22.790  0.00  0.00    +0.000 C 
ATOM     24  C   UNL     1      -7.832  13.756  24.466  0.00  0.00    +0.000 C 
ENDBRANCH  21  22
ENDBRANCH  18  21
ENDBRANCH  12  17
ENDBRANCH   1  16
BRANCH   6  25
ATOM     25  C   UNL     1       2.631   8.533  17.877  0.00  0.00    +0.000 C 
BRANCH  25  26
ATOM     26  C   UNL     1       2.794   7.034  17.894  0.00  0.00    +0.000 A 
ATOM     27  N   UNL     1       1.851   6.184  18.251  0.00  0.00    +0.000 NA
ATOM     28  C   UNL     1       2.336   4.890  18.178  0.00  0.00    +0.000 A 
ATOM     29  C   UNL     1       1.620   3.728  18.530  0.00  0.00    +0.000 A 
ATOM     30  C   UNL     1       2.248   2.489  18.417  0.00  0.00    +0.000 A 
ATOM     31  C   UNL     1       3.553   2.378  17.954  0.00  0.00    +0.000 A 
ATOM     32  C   UNL     1       4.276   3.516  17.590  0.00  0.00    +0.000 A 
ATOM     33  C   UNL     1       3.648   4.766  17.719  0.00  0.00    +0.000 A 
ATOM     34  S   UNL     1       4.277   6.333  17.385  0.00  0.00    +0.000 S 
BRANCH  30  35
ATOM     35  O   UNL     1       1.602   1.339  18.766  0.00  0.00    +0.000 OA
ATOM     36  H   UNL     1       0.766   1.289  18.272  0.00  0.00    +0.000 HD
ENDBRANCH  30  35
ENDBRANCH  25  26
ENDBRANCH   6  25
TORSDOF 7
ENDMDL
MODEL 3
REMARK VINA RESULT:      -7.2      4.503      7.065
REMARK  Name = 
REMARK  11 active torsions:
REMARK  status: ('A' for Active; 'I' for Inactive)
REMARK    1  A    between atoms: C_1  and  C_2
REMARK    2  A    between atoms: C_4  and  N_5
REMARK    3  A    between atoms: C_6  and  C_8
REMARK    4  A    between atoms: C_8  and  N_9
REMARK    5  A    between atoms: N_9  and  C_10
REMARK    6  A    between atoms: N_9  and  C_11
REMARK    7  A    between atoms: C_13  and  C_14
REMARK    8  A    between atoms: C_15  and  C_16
REMARK    9  A    between atoms: N_21  and  C_22
REMARK   10  A    between atoms: C_22  and  C_23
REMARK   11  A    between atoms: C_27  and  O_28
REMARK                            x       y       z     vdW  Elec       q    Type
REMARK                         _______ _______ _______ _____ _____    ______ ____
ROOT
ATOM      1  C   UNL     1       0.186  10.442  19.385  0.00  0.00    +0.000 A 
ATOM      2  C   UNL     1       0.840  11.653  19.301  0.00  0.00    +0.000 A 
ATOM      3  N   UNL     1       0.209  12.792  18.961  0.00  0.00    +0.000 NA
ATOM      4  N   UNL     1      -1.092  12.710  18.620  0.00  0.00    +0.000 NA
ATOM      5  C   UNL     1      -1.724  11.516  18.656  0.00  0.00    +0.000 A 
ATOM      6  N   UNL     1      -3.027  11.401  18.209  0.00  0.00    +0.000 N 
ATOM      7  N   UNL     1      -1.133  10.388  19.074  0.00  0.00    +0.000 NA
ATOM      8  H   UNL     1      -3.420  10.521  18.532  0.00  0.00    +0.000 HD
ENDROOT
BRANCH   1  16
ATOM      9  C   UNL     1      -0.279   9.094  22.057  0.00  0.00    +0.000 C 
ATOM     10  C   UNL     1       0.603   8.507  20.978  0.00  0.00    +0.000 A 
ATOM     11  C   UNL     1       1.196   7.268  21.292  0.00  0.00    +0.000 A 
ATOM     12  C   UNL     1       2.045   6.602  20.423  0.00  0.00    +0.000 A 
ATOM     13  C   UNL     1       2.318   7.212  19.199  0.00  0.00    +0.000 A 
ATOM     14  C   UNL     1       1.752   8.466  18.838  0.00  0.00    +0.000 A 
ATOM     15  C   UNL     1       2.172   9.020  17.498  0.00  0.00    +0.000 C 
ATOM     16  C   UNL     1       0.852   9.144  19.724  0.00  0.00    +0.000 A 
BRANCH  12  17
ATOM     17  N   UNL     1       2.656   5.364  20.729  0.00  0.00    +0.000 N 
ATOM     18  C   UNL     1       2.036   4.129  20.801  0.00  0.00    +0.000 C 
ATOM     19  O   UNL     1       0.857   3.880  20.556  0.00  0.00    +0.000 OA
ATOM     20  H   UNL     1       3.645   5.372  20.967  0.00  0.00    +0.000 HD
BRANCH  18  21
ATOM     21  C   UNL     1       2.978   2.985  21.191  0.00  0.00    +0.000 C 
BRANCH  21  22
ATOM     22  N   UNL     1       3.538   2.296  20.004  0.00  0.00    +0.000 NA
ATOM     23  C   UNL     1       2.518   2.166  18.952  0.00  0.00    +0.000 C 
ATOM     24  C   UNL     1       4.655   3.096  19.480  0.00  0.00    +0.000 C 
ENDBRANCH  21  22
ENDBRANCH  18  21
ENDBRANCH  12  17
ENDBRANCH   1  16
BRANCH   6  25
ATOM     25  C   UNL     1      -3.856  12.565  18.489  0.00  0.00    +0.000 C 
BRANCH  25  26
ATOM     26  C   UNL     1      -4.368  12.622  19.906  0.00  0.00    +0.000 A 
ATOM     27  N   UNL     1      -3.599  12.617  20.977  0.00  0.00    +0.000 NA
ATOM     28  C   UNL     1      -4.384  12.652  22.117  0.00  0.00    +0.000 A 
ATOM     29  C   UNL     1      -3.905  12.612  23.441  0.00  0.00    +0.000 A 
ATOM     30  C   UNL     1      -4.822  12.639  24.491  0.00  0.00    +0.000 A 
ATOM     31  C   UNL     1      -6.188  12.720  24.257  0.00  0.00    +0.000 A 
ATOM     32  C   UNL     1      -6.683  12.770  22.952  0.00  0.00    +0.000 A 
ATOM     33  C   UNL     1      -5.761  12.726  21.894  0.00  0.00    +0.000 A 
ATOM     34  S   UNL     1      -6.056  12.740  20.199  0.00  0.00    +0.000 S 
BRANCH  30  35
ATOM     35  O   UNL     1      -4.406  12.582  25.789  0.00  0.00    +0.000 OA
ATOM     36  H   UNL     1      -3.440  12.465  25.802  0.00  0.00    +0.000 HD
ENDBRANCH  30  35
ENDBRANCH  25  26
ENDBRANCH   6  25
TORSDOF 7
ENDMDL
MODEL 4
REMARK VINA RESULT:      -7.2      4.825      9.742
REMARK  Name = 
REMARK  11 active torsions:
REMARK  status: ('A' for Active; 'I' for Inactive)
REMARK    1  A    between atoms: C_1  and  C_2
REMARK    2  A    between atoms: C_4  and  N_5
REMARK    3  A    between atoms: C_6  and  C_8
REMARK    4  A    between atoms: C_8  and  N_9
REMARK    5  A    between atoms: N_9  and  C_10
REMARK    6  A    between atoms: N_9  and  C_11
REMARK    7  A    between atoms: C_13  and  C_14
REMARK    8  A    between atoms: C_15  and  C_16
REMARK    9  A    between atoms: N_21  and  C_22
REMARK   10  A    between atoms: C_22  and  C_23
REMARK   11  A    between atoms: C_27  and  O_28
REMARK                            x       y       z     vdW  Elec       q    Type
REMARK                         _______ _______ _______ _____ _____    ______ ____
ROOT
ATOM      1  C   UNL     1       1.099   9.399  19.903  0.00  0.00    +0.000 A 
ATOM      2  C   UNL     1       1.263   9.521  18.539  0.00  0.00    +0.000 A 
ATOM      3  N   UNL     1       1.800   8.542  17.787  0.00  0.00    +0.000 NA
ATOM      4  N   UNL     1       2.257   7.444  18.420  0.00  0.00    +0.000 NA
ATOM      5  C   UNL     1       2.140   7.343  19.762  0.00  0.00    +0.000 A 
ATOM      6  N   UNL     1       2.698   6.271  20.434  0.00  0.00    +0.000 N 
ATOM      7  N   UNL     1       1.531   8.270  20.515  0.00  0.00    +0.000 NA
ATOM      8  H   UNL     1       2.311   6.220  21.373  0.00  0.00    +0.000 HD
ENDROOT
BRANCH   1  16
ATOM      9  C   UNL     1       1.675  12.324  19.364  0.00  0.00    +0.000 C 
ATOM     10  C   UNL     1       0.800  11.850  20.503  0.00  0.00    +0.000 A 
ATOM     11  C   UNL     1       0.248  12.870  21.304  0.00  0.00    +0.000 A 
ATOM     12  C   UNL     1      -0.561  12.608  22.398  0.00  0.00    +0.000 A 
ATOM     13  C   UNL     1      -0.814  11.272  22.704  0.00  0.00    +0.000 A 
ATOM     14  C   UNL     1      -0.275  10.206  21.932  0.00  0.00    +0.000 A 
ATOM     15  C   UNL     1      -0.604   8.811  22.410  0.00  0.00    +0.000 C 
ATOM     16  C   UNL     1       0.540  10.474  20.785  0.00  0.00    +0.000 A 
BRANCH  12  17
ATOM     17  N   UNL     1      -1.111  13.621  23.217  0.00  0.00    +0.000 N 
ATOM     18  C   UNL     1      -2.399  14.125  23.161  0.00  0.00    +0.000 C 
ATOM     19  O   UNL     1      -3.309  13.743  22.428  0.00  0.00    +0.000 OA
ATOM     20  H   UNL     1      -0.496  14.066  23.894  0.00  0.00    +0.000 HD
BRANCH  18  21
ATOM     21  C   UNL     1      -2.669  15.246  24.171  0.00  0.00    +0.000 C 
BRANCH  21  22
ATOM     22  N   UNL     1      -1.415  15.852  24.679  0.00  0.00    +0.000 NA
ATOM     23  C   UNL     1      -1.319  17.263  24.272  0.00  0.00    +0.000 C 
ATOM     24  C   UNL     1      -1.422  15.785  26.147  0.00  0.00    +0.000 C 
ENDBRANCH  21  22
ENDBRANCH  18  21
ENDBRANCH  12  17
ENDBRANCH   1  16
BRANCH   6  25
ATOM     25  C   UNL     1       2.645   5.016  19.697  0.00  0.00    +0.000 C 
BRANCH  25  26
ATOM     26  C   UNL     1       3.743   4.863  18.674  0.00  0.00    +0.000 A 
ATOM     27  N   UNL     1       3.552   4.478  17.428  0.00  0.00    +0.000 NA
ATOM     28  C   UNL     1       4.767   4.417  16.766  0.00  0.00    +0.000 A 
ATOM     29  C   UNL     1       4.951   3.999  15.433  0.00  0.00    +0.000 A 
ATOM     30  C   UNL     1       6.241   3.976  14.906  0.00  0.00    +0.000 A 
ATOM     31  C   UNL     1       7.339   4.370  15.661  0.00  0.00    +0.000 A 
ATOM     32  C   UNL     1       7.176   4.797  16.981  0.00  0.00    +0.000 A 
ATOM     33  C   UNL     1       5.878   4.804  17.517  0.00  0.00    +0.000 A 
ATOM     34  S   UNL     1       5.363   5.242  19.100  0.00  0.00    +0.000 S 
BRANCH  30  35
ATOM     35  O   UNL     1       6.471   3.559  13.628  0.00  0.00    +0.000 OA
ATOM     36  H   UNL     1       5.834   3.997  13.038  0.00  0.00    +0.000 HD
ENDBRANCH  30  35
ENDBRANCH  25  26
ENDBRANCH   6  25
TORSDOF 7
ENDMDL
MODEL 5
REMARK VINA RESULT:      -7.1      4.846      9.920
REMARK  Name = 
REMARK  11 active torsions:
REMARK  status: ('A' for Active; 'I' for Inactive)
REMARK    1  A    between atoms: C_1  and  C_2
REMARK    2  A    between atoms: C_4  and  N_5
REMARK    3  A    between atoms: C_6  and  C_8
REMARK    4  A    between atoms: C_8  and  N_9
REMARK    5  A    between atoms: N_9  and  C_10
REMARK    6  A    between atoms: N_9  and  C_11
REMARK    7  A    between atoms: C_13  and  C_14
REMARK    8  A    between atoms: C_15  and  C_16
REMARK    9  A    between atoms: N_21  and  C_22
REMARK   10  A    between atoms: C_22  and  C_23
REMARK   11  A    between atoms: C_27  and  O_28
REMARK                            x       y       z     vdW  Elec       q    Type
REMARK                         _______ _______ _______ _____ _____    ______ ____
ROOT
ATOM      1  C   UNL     1       1.038   9.465  19.874  0.00  0.00    +0.000 A 
ATOM      2  C   UNL     1       1.222   9.579  18.512  0.00  0.00    +0.000 A 
ATOM      3  N   UNL     1       1.774   8.599  17.775  0.00  0.00    +0.000 NA
ATOM      4  N   UNL     1       2.226   7.506  18.420  0.00  0.00    +0.000 NA
ATOM      5  C   UNL     1       2.089   7.413  19.762  0.00  0.00    +0.000 A 
ATOM      6  N   UNL     1       2.641   6.346  20.448  0.00  0.00    +0.000 N 
ATOM      7  N   UNL     1       1.465   8.341  20.500  0.00  0.00    +0.000 NA
ATOM      8  H   UNL     1       2.240   6.300  21.381  0.00  0.00    +0.000 HD
ENDROOT
BRANCH   1  16
ATOM      9  C   UNL     1      -0.668   8.790  22.284  0.00  0.00    +0.000 C 
ATOM     10  C   UNL     1      -0.320  10.208  21.889  0.00  0.00    +0.000 A 
ATOM     11  C   UNL     1      -0.835  11.213  22.733  0.00  0.00    +0.000 A 
ATOM     12  C   UNL     1      -0.625  12.563  22.504  0.00  0.00    +0.000 A 
ATOM     13  C   UNL     1       0.121  12.915  21.380  0.00  0.00    +0.000 A 
ATOM     14  C   UNL     1       0.655  11.940  20.493  0.00  0.00    +0.000 A 
ATOM     15  C   UNL     1       1.406  12.475  19.297  0.00  0.00    +0.000 C 
ATOM     16  C   UNL     1       0.462  10.542  20.741  0.00  0.00    +0.000 A 
BRANCH  12  17
ATOM     17  N   UNL     1      -1.145  13.581  23.336  0.00  0.00    +0.000 N 
ATOM     18  C   UNL     1      -2.464  13.993  23.417  0.00  0.00    +0.000 C 
ATOM     19  O   UNL     1      -3.426  13.507  22.824  0.00  0.00    +0.000 OA
ATOM     20  H   UNL     1      -0.487  14.106  23.907  0.00  0.00    +0.000 HD
BRANCH  18  21
ATOM     21  C   UNL     1      -2.693  15.149  24.397  0.00  0.00    +0.000 C 
BRANCH  21  22
ATOM     22  N   UNL     1      -3.695  16.117  23.890  0.00  0.00    +0.000 NA
ATOM     23  C   UNL     1      -4.291  16.876  25.001  0.00  0.00    +0.000 C 
ATOM     24  C   UNL     1      -3.021  17.059  22.984  0.00  0.00    +0.000 C 
ENDBRANCH  21  22
ENDBRANCH  18  21
ENDBRANCH  12  17
ENDBRANCH   1  16
BRANCH   6  25
ATOM     25  C   UNL     1       2.604   5.087  19.718  0.00  0.00    +0.000 C 
BRANCH  25  26
ATOM     26  C   UNL     1       3.718   4.932  18.714  0.00  0.00    +0.000 A 
ATOM     27  N   UNL     1       3.548   4.545  17.465  0.00  0.00    +0.000 NA
ATOM     28  C   UNL     1       4.773   4.483  16.823  0.00  0.00    +0.000 A 
ATOM     29  C   UNL     1       4.979   4.063  15.494  0.00  0.00    +0.000 A 
ATOM     30  C   UNL     1       6.278   4.039  14.988  0.00  0.00    +0.000 A 
ATOM     31  C   UNL     1       7.363   4.432  15.761  0.00  0.00    +0.000 A 
ATOM     32  C   UNL     1       7.179   4.861  17.077  0.00  0.00    +0.000 A 
ATOM     33  C   UNL     1       5.873   4.870  17.592  0.00  0.00    +0.000 A 
ATOM     34  S   UNL     1       5.332   5.310  19.165  0.00  0.00    +0.000 S 
BRANCH  30  35
ATOM     35  O   UNL     1       6.528   3.620  13.714  0.00  0.00    +0.000 OA
ATOM     36  H   UNL     1       6.094   4.231  13.094  0.00  0.00    +0.000 HD
ENDBRANCH  30  35
ENDBRANCH  25  26
ENDBRANCH   6  25
TORSDOF 7
ENDMDL
MODEL 6
REMARK VINA RESULT:      -7.1      4.817      9.836
REMARK  Name = 
REMARK  11 active torsions:
REMARK  status: ('A' for Active; 'I' for Inactive)
REMARK    1  A    between atoms: C_1  and  C_2
REMARK    2  A    between atoms: C_4  and  N_5
REMARK    3  A    between atoms: C_6  and  C_8
REMARK    4  A    between atoms: C_8  and  N_9
REMARK    5  A    between atoms: N_9  and  C_10
REMARK    6  A    between atoms: N_9  and  C_11
REMARK    7  A    between atoms: C_13  and  C_14
REMARK    8  A    between atoms: C_15  and  C_16
REMARK    9  A    between atoms: N_21  and  C_22
REMARK   10  A    between atoms: C_22  and  C_23
REMARK   11  A    between atoms: C_27  and  O_28
REMARK                            x       y       z     vdW  Elec       q    Type
REMARK                         _______ _______ _______ _____ _____    ______ ____
ROOT
ATOM      1  C   UNL     1       1.052   9.494  19.842  0.00  0.00    +0.000 A 
ATOM      2  C   UNL     1       1.219   9.589  18.476  0.00  0.00    +0.000 A 
ATOM      3  N   UNL     1       1.759   8.597  17.745  0.00  0.00    +0.000 NA
ATOM      4  N   UNL     1       2.215   7.511  18.400  0.00  0.00    +0.000 NA
ATOM      5  C   UNL     1       2.096   7.437  19.744  0.00  0.00    +0.000 A 
ATOM      6  N   UNL     1       2.653   6.379  20.438  0.00  0.00    +0.000 N 
ATOM      7  N   UNL     1       1.484   8.377  20.478  0.00  0.00    +0.000 NA
ATOM      8  H   UNL     1       2.264   6.346  21.377  0.00  0.00    +0.000 HD
ENDROOT
BRANCH   1  16
ATOM      9  C   UNL     1      -0.671   8.859  22.251  0.00  0.00    +0.000 C 
ATOM     10  C   UNL     1      -0.299  10.269  21.849  0.00  0.00    +0.000 A 
ATOM     11  C   UNL     1      -0.801  11.287  22.686  0.00  0.00    +0.000 A 
ATOM     12  C   UNL     1      -0.569  12.632  22.450  0.00  0.00    +0.000 A 
ATOM     13  C   UNL     1       0.184  12.967  21.326  0.00  0.00    +0.000 A 
ATOM     14  C   UNL     1       0.706  11.978  20.446  0.00  0.00    +0.000 A 
ATOM     15  C   UNL     1       1.468  12.495  19.249  0.00  0.00    +0.000 C 
ATOM     16  C   UNL     1       0.491  10.585  20.701  0.00  0.00    +0.000 A 
BRANCH  12  17
ATOM     17  N   UNL     1      -1.076  13.663  23.274  0.00  0.00    +0.000 N 
ATOM     18  C   UNL     1      -2.210  14.425  23.048  0.00  0.00    +0.000 C 
ATOM     19  O   UNL     1      -3.008  14.301  22.121  0.00  0.00    +0.000 OA
ATOM     20  H   UNL     1      -0.539  13.914  24.101  0.00  0.00    +0.000 HD
BRANCH  18  21
ATOM     21  C   UNL     1      -2.467  15.488  24.122  0.00  0.00    +0.000 C 
BRANCH  21  22
ATOM     22  N   UNL     1      -1.210  15.947  24.761  0.00  0.00    +0.000 NA
ATOM     23  C   UNL     1      -0.980  17.374  24.485  0.00  0.00    +0.000 C 
ATOM     24  C   UNL     1      -1.329  15.762  26.215  0.00  0.00    +0.000 C 
ENDBRANCH  21  22
ENDBRANCH  18  21
ENDBRANCH  12  17
ENDBRANCH   1  16
BRANCH   6  25
ATOM     25  C   UNL     1       2.603   5.110  19.727  0.00  0.00    +0.000 C 
BRANCH  25  26
ATOM     26  C   UNL     1       3.710   4.933  18.717  0.00  0.00    +0.000 A 
ATOM     27  N   UNL     1       3.528   4.542  17.471  0.00  0.00    +0.000 NA
ATOM     28  C   UNL     1       4.749   4.458  16.824  0.00  0.00    +0.000 A 
ATOM     29  C   UNL     1       4.942   4.029  15.496  0.00  0.00    +0.000 A 
ATOM     30  C   UNL     1       6.238   3.982  14.985  0.00  0.00    +0.000 A 
ATOM     31  C   UNL     1       7.332   4.363  15.750  0.00  0.00    +0.000 A 
ATOM     32  C   UNL     1       7.162   4.802  17.064  0.00  0.00    +0.000 A 
ATOM     33  C   UNL     1       5.858   4.833  17.585  0.00  0.00    +0.000 A 
ATOM     34  S   UNL     1       5.331   5.289  19.159  0.00  0.00    +0.000 S 
BRANCH  30  35
ATOM     35  O   UNL     1       6.476   3.553  13.712  0.00  0.00    +0.000 OA
ATOM     36  H   UNL     1       7.340   3.896  13.424  0.00  0.00    +0.000 HD
ENDBRANCH  30  35
ENDBRANCH  25  26
ENDBRANCH   6  25
TORSDOF 7
ENDMDL
MODEL 7
REMARK VINA RESULT:      -6.9      4.457      6.829
REMARK  Name = 
REMARK  11 active torsions:
REMARK  status: ('A' for Active; 'I' for Inactive)
REMARK    1  A    between atoms: C_1  and  C_2
REMARK    2  A    between atoms: C_4  and  N_5
REMARK    3  A    between atoms: C_6  and  C_8
REMARK    4  A    between atoms: C_8  and  N_9
REMARK    5  A    between atoms: N_9  and  C_10
REMARK    6  A    between atoms: N_9  and  C_11
REMARK    7  A    between atoms: C_13  and  C_14
REMARK    8  A    between atoms: C_15  and  C_16
REMARK    9  A    between atoms: N_21  and  C_22
REMARK   10  A    between atoms: C_22  and  C_23
REMARK   11  A    between atoms: C_27  and  O_28
REMARK                            x       y       z     vdW  Elec       q    Type
REMARK                         _______ _______ _______ _____ _____    ______ ____
ROOT
ATOM      1  C   UNL     1       0.431  10.301  19.407  0.00  0.00    +0.000 A 
ATOM      2  C   UNL     1       1.163  11.466  19.317  0.00  0.00    +0.000 A 
ATOM      3  N   UNL     1       0.602  12.648  19.004  0.00  0.00    +0.000 NA
ATOM      4  N   UNL     1      -0.710  12.658  18.697  0.00  0.00    +0.000 NA
ATOM      5  C   UNL     1      -1.420  11.508  18.739  0.00  0.00    +0.000 A 
ATOM      6  N   UNL     1      -2.739  11.486  18.327  0.00  0.00    +0.000 N 
ATOM      7  N   UNL     1      -0.896  10.339  19.132  0.00  0.00    +0.000 NA
ATOM      8  H   UNL     1      -3.182  10.631  18.653  0.00  0.00    +0.000 HD
ENDROOT
BRANCH   1  16
ATOM      9  C   UNL     1       2.242   8.890  17.431  0.00  0.00    +0.000 C 
ATOM     10  C   UNL     1       1.891   8.316  18.786  0.00  0.00    +0.000 A 
ATOM     11  C   UNL     1       2.477   7.069  19.083  0.00  0.00    +0.000 A 
ATOM     12  C   UNL     1       2.246   6.397  20.272  0.00  0.00    +0.000 A 
ATOM     13  C   UNL     1       1.383   6.995  21.190  0.00  0.00    +0.000 A 
ATOM     14  C   UNL     1       0.759   8.247  20.934  0.00  0.00    +0.000 A 
ATOM     15  C   UNL     1      -0.181   8.748  22.004  0.00  0.00    +0.000 C 
ATOM     16  C   UNL     1       1.017   8.958  19.717  0.00  0.00    +0.000 A 
BRANCH  12  17
ATOM     17  N   UNL     1       2.818   5.141  20.578  0.00  0.00    +0.000 N 
ATOM     18  C   UNL     1       2.146   3.944  20.757  0.00  0.00    +0.000 C 
ATOM     19  O   UNL     1       0.939   3.749  20.625  0.00  0.00    +0.000 OA
ATOM     20  H   UNL     1       3.824   5.105  20.730  0.00  0.00    +0.000 HD
BRANCH  18  21
ATOM     21  C   UNL     1       3.061   2.767  21.114  0.00  0.00    +0.000 C 
BRANCH  21  22
ATOM     22  N   UNL     1       3.737   2.207  19.919  0.00  0.00    +0.000 NA
ATOM     23  C   UNL     1       2.763   1.949  18.846  0.00  0.00    +0.000 C 
ATOM     24  C   UNL     1       4.722   3.184  19.435  0.00  0.00    +0.000 C 
ENDBRANCH  21  22
ENDBRANCH  18  21
ENDBRANCH  12  17
ENDBRANCH   1  16
BRANCH   6  25
ATOM     25  C   UNL     1      -3.480  12.699  18.639  0.00  0.00    +0.000 C 
BRANCH  25  26
ATOM     26  C   UNL     1      -4.071  12.713  20.026  0.00  0.00    +0.000 A 
ATOM     27  N   UNL     1      -3.364  12.673  21.138  0.00  0.00    +0.000 NA
ATOM     28  C   UNL     1      -4.212  12.674  22.233  0.00  0.00    +0.000 A 
ATOM     29  C   UNL     1      -3.808  12.592  23.580  0.00  0.00    +0.000 A 
ATOM     30  C   UNL     1      -4.782  12.588  24.577  0.00  0.00    +0.000 A 
ATOM     31  C   UNL     1      -6.133  12.678  24.269  0.00  0.00    +0.000 A 
ATOM     32  C   UNL     1      -6.554  12.770  22.941  0.00  0.00    +0.000 A 
ATOM     33  C   UNL     1      -5.573  12.758  21.936  0.00  0.00    +0.000 A 
ATOM     34  S   UNL     1      -5.773  12.826  20.227  0.00  0.00    +0.000 S 
BRANCH  30  35
ATOM     35  O   UNL     1      -4.440  12.489  25.894  0.00  0.00    +0.000 OA
ATOM     36  H   UNL     1      -3.524  12.166  25.954  0.00  0.00    +0.000 HD
ENDBRANCH  30  35
ENDBRANCH  25  26
ENDBRANCH   6  25
TORSDOF 7
ENDMDL
MODEL 8
REMARK VINA RESULT:      -6.9      1.167      1.238
REMARK  Name = 
REMARK  11 active torsions:
REMARK  status: ('A' for Active; 'I' for Inactive)
REMARK    1  A    between atoms: C_1  and  C_2
REMARK    2  A    between atoms: C_4  and  N_5
REMARK    3  A    between atoms: C_6  and  C_8
REMARK    4  A    between atoms: C_8  and  N_9
REMARK    5  A    between atoms: N_9  and  C_10
REMARK    6  A    between atoms: N_9  and  C_11
REMARK    7  A    between atoms: C_13  and  C_14
REMARK    8  A    between atoms: C_15  and  C_16
REMARK    9  A    between atoms: N_21  and  C_22
REMARK   10  A    between atoms: C_22  and  C_23
REMARK   11  A    between atoms: C_27  and  O_28
REMARK                            x       y       z     vdW  Elec       q    Type
REMARK                         _______ _______ _______ _____ _____    ______ ____
ROOT
ATOM      1  C   UNL     1       0.656  11.410  20.252  0.00  0.00    +0.000 A 
ATOM      2  C   UNL     1      -0.511  11.946  19.749  0.00  0.00    +0.000 A 
ATOM      3  N   UNL     1      -0.749  13.271  19.734  0.00  0.00    +0.000 NA
ATOM      4  N   UNL     1       0.166  14.079  20.304  0.00  0.00    +0.000 NA
ATOM      5  C   UNL     1       1.289  13.551  20.840  0.00  0.00    +0.000 A 
ATOM      6  N   UNL     1       2.184  14.357  21.520  0.00  0.00    +0.000 N 
ATOM      7  N   UNL     1       1.581  12.245  20.788  0.00  0.00    +0.000 NA
ATOM      8  H   UNL     1       3.066  13.864  21.633  0.00  0.00    +0.000 HD
ENDROOT
BRANCH   1  16
ATOM      9  C   UNL     1       1.955   9.960  17.932  0.00  0.00    +0.000 C 
ATOM     10  C   UNL     1       1.585   9.278  19.230  0.00  0.00    +0.000 A 
ATOM     11  C   UNL     1       1.899   7.906  19.301  0.00  0.00    +0.000 A 
ATOM     12  C   UNL     1       1.613   7.128  20.412  0.00  0.00    +0.000 A 
ATOM     13  C   UNL     1       0.975   7.751  21.484  0.00  0.00    +0.000 A 
ATOM     14  C   UNL     1       0.630   9.130  21.458  0.00  0.00    +0.000 A 
ATOM     15  C   UNL     1      -0.093   9.653  22.677  0.00  0.00    +0.000 C 
ATOM     16  C   UNL     1       0.949   9.943  20.323  0.00  0.00    +0.000 A 
BRANCH  12  17
ATOM     17  N   UNL     1       1.912   5.749  20.492  0.00  0.00    +0.000 N 
ATOM     18  C   UNL     1       3.059   5.120  20.039  0.00  0.00    +0.000 C 
ATOM     19  O   UNL     1       4.045   5.658  19.538  0.00  0.00    +0.000 OA
ATOM     20  H   UNL     1       1.201   5.134  20.881  0.00  0.00    +0.000 HD
BRANCH  18  21
ATOM     21  C   UNL     1       3.058   3.602  20.248  0.00  0.00    +0.000 C 
BRANCH  21  22
ATOM     22  N   UNL     1       2.690   2.871  19.013  0.00  0.00    +0.000 NA
ATOM     23  C   UNL     1       3.633   1.769  18.763  0.00  0.00    +0.000 C 
ATOM     24  C   UNL     1       1.343   2.306  19.185  0.00  0.00    +0.000 C 
ENDBRANCH  21  22
ENDBRANCH  18  21
ENDBRANCH  12  17
ENDBRANCH   1  16
BRANCH   6  25
ATOM     25  C   UNL     1       2.314  15.698  20.968  0.00  0.00    +0.000 C 
BRANCH  25  26
ATOM     26  C   UNL     1       3.670  15.981  20.370  0.00  0.00    +0.000 A 
ATOM     27  N   UNL     1       4.251  15.234  19.453  0.00  0.00    +0.000 NA
ATOM     28  C   UNL     1       5.494  15.757  19.141  0.00  0.00    +0.000 A 
ATOM     29  C   UNL     1       6.415  15.195  18.235  0.00  0.00    +0.000 A 
ATOM     30  C   UNL     1       7.639  15.830  18.035  0.00  0.00    +0.000 A 
ATOM     31  C   UNL     1       7.959  17.008  18.698  0.00  0.00    +0.000 A 
ATOM     32  C   UNL     1       7.057  17.587  19.593  0.00  0.00    +0.000 A 
ATOM     33  C   UNL     1       5.831  16.938  19.806  0.00  0.00    +0.000 A 
ATOM     34  S   UNL     1       4.540  17.380  20.855  0.00  0.00    +0.000 S 
BRANCH  30  35
ATOM     35  O   UNL     1       8.570  15.311  17.184  0.00  0.00    +0.000 OA
ATOM     36  H   UNL     1       9.175  16.023  16.913  0.00  0.00    +0.000 HD
ENDBRANCH  30  35
ENDBRANCH  25  26
ENDBRANCH   6  25
TORSDOF 7
ENDMDL
MODEL 9
REMARK VINA RESULT:      -6.9      2.675      3.197
REMARK  Name = 
REMARK  11 active torsions:
REMARK  status: ('A' for Active; 'I' for Inactive)
REMARK    1  A    between atoms: C_1  and  C_2
REMARK    2  A    between atoms: C_4  and  N_5
REMARK    3  A    between atoms: C_6  and  C_8
REMARK    4  A    between atoms: C_8  and  N_9
REMARK    5  A    between atoms: N_9  and  C_10
REMARK    6  A    between atoms: N_9  and  C_11
REMARK    7  A    between atoms: C_13  and  C_14
REMARK    8  A    between atoms: C_15  and  C_16
REMARK    9  A    between atoms: N_21  and  C_22
REMARK   10  A    between atoms: C_22  and  C_23
REMARK   11  A    between atoms: C_27  and  O_28
REMARK                            x       y       z     vdW  Elec       q    Type
REMARK                         _______ _______ _______ _____ _____    ______ ____
ROOT
ATOM      1  C   UNL     1      -0.436  10.916  20.214  0.00  0.00    +0.000 A 
ATOM      2  C   UNL     1      -1.657  11.065  19.590  0.00  0.00    +0.000 A 
ATOM      3  N   UNL     1      -2.415  12.166  19.740  0.00  0.00    +0.000 NA
ATOM      4  N   UNL     1      -1.982  13.114  20.595  0.00  0.00    +0.000 NA
ATOM      5  C   UNL     1      -0.809  12.949  21.244  0.00  0.00    +0.000 A 
ATOM      6  N   UNL     1      -0.405  13.862  22.201  0.00  0.00    +0.000 N 
ATOM      7  N   UNL     1      -0.001  11.899  21.041  0.00  0.00    +0.000 NA
ATOM      8  H   UNL     1       0.584  13.731  22.399  0.00  0.00    +0.000 HD
ENDROOT
BRANCH   1  16
ATOM      9  C   UNL     1       1.321  10.450  17.792  0.00  0.00    +0.000 C 
ATOM     10  C   UNL     1       1.267   9.501  18.969  0.00  0.00    +0.000 A 
ATOM     11  C   UNL     1       2.109   8.375  18.875  0.00  0.00    +0.000 A 
ATOM     12  C   UNL     1       2.168   7.399  19.857  0.00  0.00    +0.000 A 
ATOM     13  C   UNL     1       1.341   7.557  20.969  0.00  0.00    +0.000 A 
ATOM     14  C   UNL     1       0.468   8.672  21.107  0.00  0.00    +0.000 A 
ATOM     15  C   UNL     1      -0.396   8.684  22.346  0.00  0.00    +0.000 C 
ATOM     16  C   UNL     1       0.424   9.695  20.106  0.00  0.00    +0.000 A 
BRANCH  12  17
ATOM     17  N   UNL     1       2.998   6.258  19.770  0.00  0.00    +0.000 N 
ATOM     18  C   UNL     1       2.808   5.153  18.958  0.00  0.00    +0.000 C 
ATOM     19  O   UNL     1       1.915   4.993  18.128  0.00  0.00    +0.000 OA
ATOM     20  H   UNL     1       3.800   6.210  20.395  0.00  0.00    +0.000 HD
BRANCH  18  21
ATOM     21  C   UNL     1       3.878   4.069  19.128  0.00  0.00    +0.000 C 
BRANCH  21  22
ATOM     22  N   UNL     1       3.360   2.886  19.855  0.00  0.00    +0.000 NA
ATOM     23  C   UNL     1       2.335   3.286  20.832  0.00  0.00    +0.000 C 
ATOM     24  C   UNL     1       2.749   1.967  18.882  0.00  0.00    +0.000 C 
ENDBRANCH  21  22
ENDBRANCH  18  21
ENDBRANCH  12  17
ENDBRANCH   1  16
BRANCH   6  25
ATOM     25  C   UNL     1      -0.777  15.238  21.903  0.00  0.00    +0.000 C 
BRANCH  25  26
ATOM     26  C   UNL     1      -0.087  15.807  20.689  0.00  0.00    +0.000 A 
ATOM     27  N   UNL     1      -0.674  16.566  19.785  0.00  0.00    +0.000 NA
ATOM     28  C   UNL     1       0.232  16.896  18.791  0.00  0.00    +0.000 A 
ATOM     29  C   UNL     1      -0.057  17.657  17.641  0.00  0.00    +0.000 A 
ATOM     30  C   UNL     1       0.958  17.894  16.717  0.00  0.00    +0.000 A 
ATOM     31  C   UNL     1       2.245  17.411  16.915  0.00  0.00    +0.000 A 
ATOM     32  C   UNL     1       2.555  16.663  18.053  0.00  0.00    +0.000 A 
ATOM     33  C   UNL     1       1.528  16.410  18.976  0.00  0.00    +0.000 A 
ATOM     34  S   UNL     1       1.586  15.507  20.440  0.00  0.00    +0.000 S 
BRANCH  30  35
ATOM     35  O   UNL     1       0.720  18.608  15.578  0.00  0.00    +0.000 OA
ATOM     36  H   UNL     1       1.564  18.740  15.112  0.00  0.00    +0.000 HD
ENDBRANCH  30  35
ENDBRANCH  25  26
ENDBRANCH   6  25
TORSDOF 7
ENDMDL
