MODEL 1
REMARK VINA RESULT:      -8.0      0.000      0.000
REMARK  Name = 
REMARK  4 active torsions:
REMARK  status: ('A' for Active; 'I' for Inactive)
REMARK    1  A    between atoms: C_1  and  C_2
REMARK    2  A    between atoms: C_2  and  C_17
REMARK    3  A    between atoms: N_3  and  N_4
REMARK    4  A    between atoms: C_7  and  C_8
REMARK                            x       y       z     vdW  Elec       q    Type
REMARK                         _______ _______ _______ _____ _____    ______ ____
ROOT
ATOM      1  N   UNL     1       1.656   7.073  20.969  0.00  0.00    +0.000 N 
ATOM      2  C   UNL     1       2.190   6.100  20.178  0.00  0.00    +0.000 A 
ATOM      3  N   UNL     1       3.003   6.271  19.158  0.00  0.00    +0.000 NA
ATOM      4  C   UNL     1       3.296   5.059  18.555  0.00  0.00    +0.000 A 
ATOM      5  C   UNL     1       2.698   3.961  19.141  0.00  0.00    +0.000 A 
ATOM      6  S   UNL     1       1.779   4.453  20.497  0.00  0.00    +0.000 S 
ATOM      7  H   UNL     1       0.997   6.716  21.654  0.00  0.00    +0.000 HD
ENDROOT
BRANCH   4   8
ATOM      8  C   UNL     1       4.199   4.981  17.413  0.00  0.00    +0.000 A 
ATOM      9  C   UNL     1       4.607   6.164  16.777  0.00  0.00    +0.000 A 
ATOM     10  C   UNL     1       5.484   6.122  15.688  0.00  0.00    +0.000 A 
ATOM     11  C   UNL     1       5.949   4.895  15.223  0.00  0.00    +0.000 A 
ATOM     12 CL   UNL     1       7.022   4.838  13.880  0.00  0.00    +0.000 Cl
ATOM     13  C   UNL     1       5.547   3.711  15.837  0.00  0.00    +0.000 A 
ATOM     14  C   UNL     1       4.675   3.753  16.929  0.00  0.00    +0.000 A 
ENDBRANCH   4   8
BRANCH   1  17
ATOM     15  C   UNL     1      -0.337   8.683  22.211  0.00  0.00    +0.000 C 
ATOM     16  C   UNL     1       0.533   9.083  21.034  0.00  0.00    +0.000 C 
ATOM     17  N   UNL     1       1.466   8.341  20.512  0.00  0.00    +0.000 NA
BRANCH  16  18
ATOM     18  C   UNL     1       0.301  10.445  20.434  0.00  0.00    +0.000 A 
ATOM     19  C   UNL     1       0.945  11.587  20.929  0.00  0.00    +0.000 A 
ATOM     20  C   UNL     1       0.701  12.839  20.361  0.00  0.00    +0.000 A 
ATOM     21  C   UNL     1      -0.191  12.969  19.295  0.00  0.00    +0.000 A 
ATOM     22 CL   UNL     1      -0.436  14.549  18.642  0.00  0.00    +0.000 Cl
ATOM     23  C   UNL     1      -0.842  11.836  18.794  0.00  0.00    +0.000 A 
ATOM     24 CL   UNL     1      -1.962  11.924  17.481  0.00  0.00    +0.000 Cl
ATOM     25  C   UNL     1      -0.597  10.581  19.363  0.00  0.00    +0.000 A 
ENDBRANCH  16  18
ENDBRANCH   1  17
TORSDOF 3
ENDMDL
MODEL 2
REMARK VINA RESULT:      -8.0      0.931      1.216
REMARK  Name = 
REMARK  4 active torsions:
REMARK  status: ('A' for Active; 'I' for Inactive)
REMARK    1  A    between atoms: C_1  and  C_2
REMARK    2  A    between atoms: C_2  and  C_17
REMARK    3  A    between atoms: N_3  and  N_4
REMARK    4  A    between atoms: C_7  and  C_8
REMARK                            x       y       z     vdW  Elec       q    Type
REMARK                         _______ _______ _______ _____ _____    ______ ____
ROOT
ATOM      1  N   UNL     1       1.557   7.235  21.008  0.00  0.00    +0.000 N 
ATOM      2  C   UNL     1       2.079   6.254  20.220  0.00  0.00    +0.000 A 
ATOM      3  N   UNL     1       2.910   6.408  19.212  0.00  0.00    +0.000 NA
ATOM      4  C   UNL     1       3.183   5.192  18.608  0.00  0.00    +0.000 A 
ATOM      5  C   UNL     1       2.552   4.107  19.182  0.00  0.00    +0.000 A 
ATOM      6  S   UNL     1       1.626   4.615  20.528  0.00  0.00    +0.000 S 
ATOM      7  H   UNL     1       0.881   6.892  21.682  0.00  0.00    +0.000 HD
ENDROOT
BRANCH   4   8
ATOM      8  C   UNL     1       4.100   5.097  17.479  0.00  0.00    +0.000 A 
ATOM      9  C   UNL     1       4.533   6.272  16.844  0.00  0.00    +0.000 A 
ATOM     10  C   UNL     1       5.423   6.214  15.767  0.00  0.00    +0.000 A 
ATOM     11  C   UNL     1       5.876   4.978  15.311  0.00  0.00    +0.000 A 
ATOM     12 CL   UNL     1       6.966   4.901  13.983  0.00  0.00    +0.000 Cl
ATOM     13  C   UNL     1       5.449   3.802  15.924  0.00  0.00    +0.000 A 
ATOM     14  C   UNL     1       4.563   3.861  17.004  0.00  0.00    +0.000 A 
ENDBRANCH   4   8
BRANCH   1  17
ATOM     15  C   UNL     1      -0.380   8.903  22.261  0.00  0.00    +0.000 C 
ATOM     16  C   UNL     1       0.495   9.278  21.080  0.00  0.00    +0.000 C 
ATOM     17  N   UNL     1       1.403   8.509  20.553  0.00  0.00    +0.000 NA
BRANCH  16  18
ATOM     18  C   UNL     1       0.301  10.647  20.483  0.00  0.00    +0.000 A 
ATOM     19  C   UNL     1      -0.845  11.409  20.745  0.00  0.00    +0.000 A 
ATOM     20  C   UNL     1      -1.004  12.671  20.167  0.00  0.00    +0.000 A 
ATOM     21  C   UNL     1      -0.023  13.187  19.318  0.00  0.00    +0.000 A 
ATOM     22 CL   UNL     1      -0.288  14.755  18.647  0.00  0.00    +0.000 Cl
ATOM     23  C   UNL     1       1.126  12.434  19.047  0.00  0.00    +0.000 A 
ATOM     24 CL   UNL     1       2.376  13.008  18.003  0.00  0.00    +0.000 Cl
ATOM     25  C   UNL     1       1.284  11.170  19.627  0.00  0.00    +0.000 A 
ENDBRANCH  16  18
ENDBRANCH   1  17
TORSDOF 3
ENDMDL
MODEL 3
REMARK VINA RESULT:      -7.8      0.903      1.053
REMARK  Name = 
REMARK  4 active torsions:
REMARK  status: ('A' for Active; 'I' for Inactive)
REMARK    1  A    between atoms: C_1  and  C_2
REMARK    2  A    between atoms: C_2  and  C_17
REMARK    3  A    between atoms: N_3  and  N_4
REMARK    4  A    between atoms: C_7  and  C_8
REMARK                            x       y       z     vdW  Elec       q    Type
REMARK                         _______ _______ _______ _____ _____    ______ ____
ROOT
ATOM      1  N   UNL     1       1.659   7.116  20.938  0.00  0.00    +0.000 N 
ATOM      2  C   UNL     1       2.184   6.144  20.140  0.00  0.00    +0.000 A 
ATOM      3  N   UNL     1       3.008   6.313  19.128  0.00  0.00    +0.000 NA
ATOM      4  C   UNL     1       3.286   5.103  18.513  0.00  0.00    +0.000 A 
ATOM      5  C   UNL     1       2.665   4.009  19.082  0.00  0.00    +0.000 A 
ATOM      6  S   UNL     1       1.744   4.500  20.437  0.00  0.00    +0.000 S 
ATOM      7  H   UNL     1       0.990   6.763  21.614  0.00  0.00    +0.000 HD
ENDROOT
BRANCH   4   8
ATOM      8  C   UNL     1       4.196   5.024  17.377  0.00  0.00    +0.000 A 
ATOM      9  C   UNL     1       4.578   6.203  16.718  0.00  0.00    +0.000 A 
ATOM     10  C   UNL     1       5.461   6.160  15.634  0.00  0.00    +0.000 A 
ATOM     11  C   UNL     1       5.958   4.934  15.197  0.00  0.00    +0.000 A 
ATOM     12 CL   UNL     1       7.039   4.876  13.860  0.00  0.00    +0.000 Cl
ATOM     13  C   UNL     1       5.581   3.754  15.833  0.00  0.00    +0.000 A 
ATOM     14  C   UNL     1       4.703   3.798  16.920  0.00  0.00    +0.000 A 
ENDBRANCH   4   8
BRANCH   1  17
ATOM     15  C   UNL     1      -0.463   8.670  22.027  0.00  0.00    +0.000 C 
ATOM     16  C   UNL     1       0.505   9.109  20.944  0.00  0.00    +0.000 C 
ATOM     17  N   UNL     1       1.493   8.392  20.494  0.00  0.00    +0.000 NA
BRANCH  16  18
ATOM     18  C   UNL     1       0.309  10.482  20.356  0.00  0.00    +0.000 A 
ATOM     19  C   UNL     1       1.136  10.972  19.337  0.00  0.00    +0.000 A 
ATOM     20  C   UNL     1       0.938  12.254  18.820  0.00  0.00    +0.000 A 
ATOM     21  C   UNL     1      -0.085  13.065  19.314  0.00  0.00    +0.000 A 
ATOM     22 CL   UNL     1      -0.270  14.635  18.621  0.00  0.00    +0.000 Cl
ATOM     23  C   UNL     1      -0.916  12.588  20.335  0.00  0.00    +0.000 A 
ATOM     24 CL   UNL     1      -2.197  13.538  20.998  0.00  0.00    +0.000 Cl
ATOM     25  C   UNL     1      -0.718  11.302  20.852  0.00  0.00    +0.000 A 
ENDBRANCH  16  18
ENDBRANCH   1  17
TORSDOF 3
ENDMDL
MODEL 4
REMARK VINA RESULT:      -7.8      0.727      1.791
REMARK  Name = 
REMARK  4 active torsions:
REMARK  status: ('A' for Active; 'I' for Inactive)
REMARK    1  A    between atoms: C_1  and  C_2
REMARK    2  A    between atoms: C_2  and  C_17
REMARK    3  A    between atoms: N_3  and  N_4
REMARK    4  A    between atoms: C_7  and  C_8
REMARK                            x       y       z     vdW  Elec       q    Type
REMARK                         _______ _______ _______ _____ _____    ______ ____
ROOT
ATOM      1  N   UNL     1       1.701   7.071  20.956  0.00  0.00    +0.000 N 
ATOM      2  C   UNL     1       2.226   6.119  20.135  0.00  0.00    +0.000 A 
ATOM      3  N   UNL     1       3.038   6.313  19.118  0.00  0.00    +0.000 NA
ATOM      4  C   UNL     1       3.322   5.118  18.479  0.00  0.00    +0.000 A 
ATOM      5  C   UNL     1       2.717   4.007  19.034  0.00  0.00    +0.000 A 
ATOM      6  S   UNL     1       1.805   4.465  20.407  0.00  0.00    +0.000 S 
ATOM      7  H   UNL     1       1.042   6.699  21.632  0.00  0.00    +0.000 HD
ENDROOT
BRANCH   4   8
ATOM      8  C   UNL     1       4.221   5.067  17.333  0.00  0.00    +0.000 A 
ATOM      9  C   UNL     1       4.679   3.823  16.872  0.00  0.00    +0.000 A 
ATOM     10  C   UNL     1       5.531   3.742  15.766  0.00  0.00    +0.000 A 
ATOM     11  C   UNL     1       5.939   4.907  15.122  0.00  0.00    +0.000 A 
ATOM     12 CL   UNL     1       6.993   4.813  13.766  0.00  0.00    +0.000 Cl
ATOM     13  C   UNL     1       5.502   6.151  15.572  0.00  0.00    +0.000 A 
ATOM     14  C   UNL     1       4.645   6.231  16.674  0.00  0.00    +0.000 A 
ENDBRANCH   4   8
BRANCH   1  17
ATOM     15  C   UNL     1      -0.471   8.560  22.037  0.00  0.00    +0.000 C 
ATOM     16  C   UNL     1       0.508   9.041  20.983  0.00  0.00    +0.000 C 
ATOM     17  N   UNL     1       1.518   8.353  20.536  0.00  0.00    +0.000 NA
BRANCH  16  18
ATOM     18  C   UNL     1       0.296  10.423  20.422  0.00  0.00    +0.000 A 
ATOM     19  C   UNL     1      -0.165  10.624  19.115  0.00  0.00    +0.000 A 
ATOM     20  C   UNL     1      -0.340  11.917  18.617  0.00  0.00    +0.000 A 
ATOM     21  C   UNL     1      -0.055  13.025  19.415  0.00  0.00    +0.000 A 
ATOM     22 CL   UNL     1      -0.302  14.592  18.731  0.00  0.00    +0.000 Cl
ATOM     23  C   UNL     1       0.410  12.837  20.722  0.00  0.00    +0.000 A 
ATOM     24 CL   UNL     1       0.788  14.163  21.764  0.00  0.00    +0.000 Cl
ATOM     25  C   UNL     1       0.584  11.541  21.221  0.00  0.00    +0.000 A 
ENDBRANCH  16  18
ENDBRANCH   1  17
TORSDOF 3
ENDMDL
MODEL 5
REMARK VINA RESULT:      -7.4      2.221      8.398
REMARK  Name = 
REMARK  4 active torsions:
REMARK  status: ('A' for Active; 'I' for Inactive)
REMARK    1  A    between atoms: C_1  and  C_2
REMARK    2  A    between atoms: C_2  and  C_17
REMARK    3  A    between atoms: N_3  and  N_4
REMARK    4  A    between atoms: C_7  and  C_8
REMARK                            x       y       z     vdW  Elec       q    Type
REMARK                         _______ _______ _______ _____ _____    ______ ____
ROOT
ATOM      1  N   UNL     1       2.033   7.682  20.981  0.00  0.00    +0.000 N 
ATOM      2  C   UNL     1       1.087   8.650  20.824  0.00  0.00    +0.000 A 
ATOM      3  N   UNL     1       0.342   8.861  19.760  0.00  0.00    +0.000 NA
ATOM      4  C   UNL     1      -0.470   9.968  19.939  0.00  0.00    +0.000 A 
ATOM      5  C   UNL     1      -0.337  10.592  21.164  0.00  0.00    +0.000 A 
ATOM      6  S   UNL     1       0.803   9.751  22.125  0.00  0.00    +0.000 S 
ATOM      7  H   UNL     1       2.534   7.751  21.861  0.00  0.00    +0.000 HD
ENDROOT
BRANCH   4   8
ATOM      8  C   UNL     1      -1.407  10.394  18.907  0.00  0.00    +0.000 A 
ATOM      9  C   UNL     1      -1.345   9.803  17.635  0.00  0.00    +0.000 A 
ATOM     10  C   UNL     1      -2.240  10.180  16.629  0.00  0.00    +0.000 A 
ATOM     11  C   UNL     1      -3.196  11.160  16.887  0.00  0.00    +0.000 A 
ATOM     12 CL   UNL     1      -4.294  11.632  15.650  0.00  0.00    +0.000 Cl
ATOM     13  C   UNL     1      -3.265  11.763  18.140  0.00  0.00    +0.000 A 
ATOM     14  C   UNL     1      -2.374  11.382  19.148  0.00  0.00    +0.000 A 
ENDBRANCH   4   8
BRANCH   1  17
ATOM     15  C   UNL     1       1.889   4.871  20.553  0.00  0.00    +0.000 C 
ATOM     16  C   UNL     1       2.680   5.865  19.724  0.00  0.00    +0.000 C 
ATOM     17  N   UNL     1       2.695   7.151  19.917  0.00  0.00    +0.000 NA
BRANCH  16  18
ATOM     18  C   UNL     1       3.501   5.316  18.586  0.00  0.00    +0.000 A 
ATOM     19  C   UNL     1       3.090   4.195  17.854  0.00  0.00    +0.000 A 
ATOM     20  C   UNL     1       3.878   3.701  16.813  0.00  0.00    +0.000 A 
ATOM     21  C   UNL     1       5.088   4.317  16.489  0.00  0.00    +0.000 A 
ATOM     22 CL   UNL     1       6.005   3.652  15.186  0.00  0.00    +0.000 Cl
ATOM     23  C   UNL     1       5.511   5.437  17.215  0.00  0.00    +0.000 A 
ATOM     24 CL   UNL     1       7.000   6.246  16.873  0.00  0.00    +0.000 Cl
ATOM     25  C   UNL     1       4.721   5.932  18.258  0.00  0.00    +0.000 A 
ENDBRANCH  16  18
ENDBRANCH   1  17
TORSDOF 3
ENDMDL
MODEL 6
REMARK VINA RESULT:      -7.2      1.854      8.303
REMARK  Name = 
REMARK  4 active torsions:
REMARK  status: ('A' for Active; 'I' for Inactive)
REMARK    1  A    between atoms: C_1  and  C_2
REMARK    2  A    between atoms: C_2  and  C_17
REMARK    3  A    between atoms: N_3  and  N_4
REMARK    4  A    between atoms: C_7  and  C_8
REMARK                            x       y       z     vdW  Elec       q    Type
REMARK                         _______ _______ _______ _____ _____    ______ ____
ROOT
ATOM      1  N   UNL     1       2.941   3.451  18.382  0.00  0.00    +0.000 N 
ATOM      2  C   UNL     1       2.532   4.512  19.132  0.00  0.00    +0.000 A 
ATOM      3  N   UNL     1       2.334   5.744  18.715  0.00  0.00    +0.000 NA
ATOM      4  C   UNL     1       1.974   6.569  19.769  0.00  0.00    +0.000 A 
ATOM      5  C   UNL     1       1.892   5.939  20.995  0.00  0.00    +0.000 A 
ATOM      6  S   UNL     1       2.236   4.272  20.817  0.00  0.00    +0.000 S 
ATOM      7  H   UNL     1       3.095   2.609  18.928  0.00  0.00    +0.000 HD
ENDROOT
BRANCH   4   8
ATOM      8  C   UNL     1       1.678   7.980  19.558  0.00  0.00    +0.000 A 
ATOM      9  C   UNL     1       1.969   8.566  18.316  0.00  0.00    +0.000 A 
ATOM     10  C   UNL     1       1.682   9.914  18.078  0.00  0.00    +0.000 A 
ATOM     11  C   UNL     1       1.114  10.687  19.088  0.00  0.00    +0.000 A 
ATOM     12 CL   UNL     1       0.766  12.347  18.803  0.00  0.00    +0.000 Cl
ATOM     13  C   UNL     1       0.827  10.124  20.329  0.00  0.00    +0.000 A 
ATOM     14  C   UNL     1       1.108   8.775  20.564  0.00  0.00    +0.000 A 
ENDBRANCH   4   8
BRANCH   1  17
ATOM     15  C   UNL     1       5.639   4.316  18.658  0.00  0.00    +0.000 C 
ATOM     16  C   UNL     1       4.912   4.053  17.353  0.00  0.00    +0.000 C 
ATOM     17  N   UNL     1       3.689   3.618  17.257  0.00  0.00    +0.000 NA
BRANCH  16  18
ATOM     18  C   UNL     1       5.669   4.308  16.076  0.00  0.00    +0.000 A 
ATOM     19  C   UNL     1       6.850   5.061  16.058  0.00  0.00    +0.000 A 
ATOM     20  C   UNL     1       7.524   5.292  14.857  0.00  0.00    +0.000 A 
ATOM     21  C   UNL     1       7.027   4.778  13.658  0.00  0.00    +0.000 A 
ATOM     22 CL   UNL     1       7.919   5.101  12.215  0.00  0.00    +0.000 Cl
ATOM     23  C   UNL     1       5.846   4.027  13.663  0.00  0.00    +0.000 A 
ATOM     24 CL   UNL     1       5.171   3.365  12.217  0.00  0.00    +0.000 Cl
ATOM     25  C   UNL     1       5.171   3.795  14.867  0.00  0.00    +0.000 A 
ENDBRANCH  16  18
ENDBRANCH   1  17
TORSDOF 3
ENDMDL
MODEL 7
REMARK VINA RESULT:      -7.0      2.163      8.538
REMARK  Name = 
REMARK  4 active torsions:
REMARK  status: ('A' for Active; 'I' for Inactive)
REMARK    1  A    between atoms: C_1  and  C_2
REMARK    2  A    between atoms: C_2  and  C_17
REMARK    3  A    between atoms: N_3  and  N_4
REMARK    4  A    between atoms: C_7  and  C_8
REMARK                            x       y       z     vdW  Elec       q    Type
REMARK                         _______ _______ _______ _____ _____    ______ ____
ROOT
ATOM      1  N   UNL     1       1.095   7.344  20.804  0.00  0.00    +0.000 N 
ATOM      2  C   UNL     1       0.812   8.648  21.082  0.00  0.00    +0.000 A 
ATOM      3  N   UNL     1       1.083   9.692  20.329  0.00  0.00    +0.000 NA
ATOM      4  C   UNL     1       0.700  10.865  20.958  0.00  0.00    +0.000 A 
ATOM      5  C   UNL     1       0.123  10.693  22.200  0.00  0.00    +0.000 A 
ATOM      6  S   UNL     1       0.025   9.026  22.572  0.00  0.00    +0.000 S 
ATOM      7  H   UNL     1       0.858   6.712  21.561  0.00  0.00    +0.000 HD
ENDROOT
BRANCH   4   8
ATOM      8  C   UNL     1       0.874  12.161  20.313  0.00  0.00    +0.000 A 
ATOM      9  C   UNL     1       0.540  13.329  21.016  0.00  0.00    +0.000 A 
ATOM     10  C   UNL     1       0.710  14.587  20.430  0.00  0.00    +0.000 A 
ATOM     11  C   UNL     1       1.204  14.683  19.131  0.00  0.00    +0.000 A 
ATOM     12 CL   UNL     1       1.408  16.228  18.403  0.00  0.00    +0.000 Cl
ATOM     13  C   UNL     1       1.531  13.533  18.416  0.00  0.00    +0.000 A 
ATOM     14  C   UNL     1       1.367  12.276  19.005  0.00  0.00    +0.000 A 
ENDBRANCH   4   8
BRANCH   1  17
ATOM     15  C   UNL     1       1.442   4.596  20.145  0.00  0.00    +0.000 C 
ATOM     16  C   UNL     1       2.337   5.742  19.711  0.00  0.00    +0.000 C 
ATOM     17  N   UNL     1       2.131   6.995  19.992  0.00  0.00    +0.000 NA
BRANCH  16  18
ATOM     18  C   UNL     1       3.548   5.398  18.883  0.00  0.00    +0.000 A 
ATOM     19  C   UNL     1       3.432   4.804  17.619  0.00  0.00    +0.000 A 
ATOM     20  C   UNL     1       4.573   4.485  16.880  0.00  0.00    +0.000 A 
ATOM     21  C   UNL     1       5.844   4.751  17.392  0.00  0.00    +0.000 A 
ATOM     22 CL   UNL     1       7.206   4.333  16.417  0.00  0.00    +0.000 Cl
ATOM     23  C   UNL     1       5.972   5.342  18.655  0.00  0.00    +0.000 A 
ATOM     24 CL   UNL     1       7.513   5.693  19.353  0.00  0.00    +0.000 Cl
ATOM     25  C   UNL     1       4.829   5.662  19.395  0.00  0.00    +0.000 A 
ENDBRANCH  16  18
ENDBRANCH   1  17
TORSDOF 3
ENDMDL
MODEL 8
REMARK VINA RESULT:      -7.0      3.825      9.020
REMARK  Name = 
REMARK  4 active torsions:
REMARK  status: ('A' for Active; 'I' for Inactive)
REMARK    1  A    between atoms: C_1  and  C_2
REMARK    2  A    between atoms: C_2  and  C_17
REMARK    3  A    between atoms: N_3  and  N_4
REMARK    4  A    between atoms: C_7  and  C_8
REMARK                            x       y       z     vdW  Elec       q    Type
REMARK                         _______ _______ _______ _____ _____    ______ ____
ROOT
ATOM      1  N   UNL     1       1.982  10.045  19.250  0.00  0.00    +0.000 N 
ATOM      2  C   UNL     1       0.943  10.890  18.996  0.00  0.00    +0.000 A 
ATOM      3  N   UNL     1      -0.330  10.569  18.903  0.00  0.00    +0.000 NA
ATOM      4  C   UNL     1      -1.094  11.679  18.579  0.00  0.00    +0.000 A 
ATOM      5  C   UNL     1      -0.380  12.852  18.437  0.00  0.00    +0.000 A 
ATOM      6  S   UNL     1       1.278  12.567  18.752  0.00  0.00    +0.000 S 
ATOM      7  H   UNL     1       2.888  10.500  19.207  0.00  0.00    +0.000 HD
ENDROOT
BRANCH   4   8
ATOM      8  C   UNL     1      -2.542  11.586  18.442  0.00  0.00    +0.000 A 
ATOM      9  C   UNL     1      -3.364  12.224  19.383  0.00  0.00    +0.000 A 
ATOM     10  C   UNL     1      -4.757  12.165  19.270  0.00  0.00    +0.000 A 
ATOM     11  C   UNL     1      -5.335  11.456  18.220  0.00  0.00    +0.000 A 
ATOM     12 CL   UNL     1      -7.047  11.375  18.080  0.00  0.00    +0.000 Cl
ATOM     13  C   UNL     1      -4.534  10.808  17.283  0.00  0.00    +0.000 A 
ATOM     14  C   UNL     1      -3.141  10.873  17.393  0.00  0.00    +0.000 A 
ENDBRANCH   4   8
BRANCH   1  17
ATOM     15  C   UNL     1       1.605   8.150  21.341  0.00  0.00    +0.000 C 
ATOM     16  C   UNL     1       1.794   7.835  19.869  0.00  0.00    +0.000 C 
ATOM     17  N   UNL     1       1.923   8.724  18.928  0.00  0.00    +0.000 NA
BRANCH  16  18
ATOM     18  C   UNL     1       1.825   6.382  19.471  0.00  0.00    +0.000 A 
ATOM     19  C   UNL     1       2.128   5.983  18.163  0.00  0.00    +0.000 A 
ATOM     20  C   UNL     1       2.138   4.629  17.820  0.00  0.00    +0.000 A 
ATOM     21  C   UNL     1       1.841   3.656  18.777  0.00  0.00    +0.000 A 
ATOM     22 CL   UNL     1       1.878   2.004  18.279  0.00  0.00    +0.000 Cl
ATOM     23  C   UNL     1       1.534   4.043  20.087  0.00  0.00    +0.000 A 
ATOM     24 CL   UNL     1       1.153   2.894  21.319  0.00  0.00    +0.000 Cl
ATOM     25  C   UNL     1       1.526   5.400  20.430  0.00  0.00    +0.000 A 
ENDBRANCH  16  18
ENDBRANCH   1  17
TORSDOF 3
ENDMDL
MODEL 9
REMARK VINA RESULT:      -7.0      2.239      8.403
REMARK  Name = 
REMARK  4 active torsions:
REMARK  status: ('A' for Active; 'I' for Inactive)
REMARK    1  A    between atoms: C_1  and  C_2
REMARK    2  A    between atoms: C_2  and  C_17
REMARK    3  A    between atoms: N_3  and  N_4
REMARK    4  A    between atoms: C_7  and  C_8
REMARK                            x       y       z     vdW  Elec       q    Type
REMARK                         _______ _______ _______ _____ _____    ______ ____
ROOT
ATOM      1  N   UNL     1       1.000   7.587  20.881  0.00  0.00    +0.000 N 
ATOM      2  C   UNL     1       0.697   8.890  21.139  0.00  0.00    +0.000 A 
ATOM      3  N   UNL     1       0.977   9.930  20.384  0.00  0.00    +0.000 NA
ATOM      4  C   UNL     1       0.566  11.105  20.992  0.00  0.00    +0.000 A 
ATOM      5  C   UNL     1      -0.041  10.938  22.221  0.00  0.00    +0.000 A 
ATOM      6  S   UNL     1      -0.132   9.274  22.606  0.00  0.00    +0.000 S 
ATOM      7  H   UNL     1       0.750   6.959  21.638  0.00  0.00    +0.000 HD
ENDROOT
BRANCH   4   8
ATOM      8  C   UNL     1       0.743  12.396  20.340  0.00  0.00    +0.000 A 
ATOM      9  C   UNL     1       0.346  13.565  21.009  0.00  0.00    +0.000 A 
ATOM     10  C   UNL     1       0.517  14.819  20.416  0.00  0.00    +0.000 A 
ATOM     11  C   UNL     1       1.076  14.911  19.143  0.00  0.00    +0.000 A 
ATOM     12 CL   UNL     1       1.282  16.451  18.406  0.00  0.00    +0.000 Cl
ATOM     13  C   UNL     1       1.467  13.761  18.462  0.00  0.00    +0.000 A 
ATOM     14  C   UNL     1       1.302  12.507  19.058  0.00  0.00    +0.000 A 
ENDBRANCH   4   8
BRANCH   1  17
ATOM     15  C   UNL     1       1.479   4.826  20.379  0.00  0.00    +0.000 C 
ATOM     16  C   UNL     1       2.326   5.985  19.890  0.00  0.00    +0.000 C 
ATOM     17  N   UNL     1       2.061   7.242  20.100  0.00  0.00    +0.000 NA
BRANCH  16  18
ATOM     18  C   UNL     1       3.561   5.652  19.094  0.00  0.00    +0.000 A 
ATOM     19  C   UNL     1       4.555   4.802  19.598  0.00  0.00    +0.000 A 
ATOM     20  C   UNL     1       5.695   4.521  18.842  0.00  0.00    +0.000 A 
ATOM     21  C   UNL     1       5.860   5.086  17.577  0.00  0.00    +0.000 A 
ATOM     22 CL   UNL     1       7.294   4.687  16.701  0.00  0.00    +0.000 Cl
ATOM     23  C   UNL     1       4.876   5.939  17.064  0.00  0.00    +0.000 A 
ATOM     24 CL   UNL     1       5.018   6.676  15.508  0.00  0.00    +0.000 Cl
ATOM     25  C   UNL     1       3.732   6.219  17.821  0.00  0.00    +0.000 A 
ENDBRANCH  16  18
ENDBRANCH   1  17
TORSDOF 3
ENDMDL
