MODEL 1
REMARK VINA RESULT:      -6.6      0.000      0.000
REMARK  Name = 
REMARK  4 active torsions:
REMARK  status: ('A' for Active; 'I' for Inactive)
REMARK    1  A    between atoms: C_1  and  O_2
REMARK    2  A    between atoms: O_2  and  C_3
REMARK    3  A    between atoms: C_6  and  C_7
REMARK    4  A    between atoms: C_12  and  C_14
REMARK                            x       y       z     vdW  Elec       q    Type
REMARK                         _______ _______ _______ _____ _____    ______ ____
ROOT
ATOM      1  C   UNL     1       2.835   4.218  20.209  0.00  0.00    +0.000 A 
ATOM      2  C   UNL     1       2.002   5.131  20.882  0.00  0.00    +0.000 A 
ATOM      3  C   UNL     1       1.820   6.432  20.418  0.00  0.00    +0.000 A 
ATOM      4  C   UNL     1       2.472   6.887  19.269  0.00  0.00    +0.000 A 
ATOM      5  C   UNL     1       2.252   8.281  18.759  0.00  0.00    +0.000 C 
ATOM      6  C   UNL     1       3.331   5.975  18.628  0.00  0.00    +0.000 A 
ATOM      7  S   UNL     1       4.282   6.275  17.232  0.00  0.00    +0.000 S 
ATOM      8  C   UNL     1       4.843   4.676  17.232  0.00  0.00    +0.000 A 
ATOM      9  N   UNL     1       5.712   4.240  16.251  0.00  0.00    +0.000 N 
ATOM     10  C   UNL     1       5.975   4.917  15.074  0.00  0.00    +0.000 C 
ATOM     11  O   UNL     1       5.442   5.942  14.678  0.00  0.00    +0.000 OA
ATOM     12  N   UNL     1       4.442   3.932  18.244  0.00  0.00    +0.000 NA
ATOM     13  C   UNL     1       3.543   4.661  19.052  0.00  0.00    +0.000 A 
ATOM     14  H   UNL     1       6.083   3.315  16.401  0.00  0.00    +0.000 HD
ENDROOT
BRANCH  10  15
ATOM     15  C   UNL     1       6.981   4.316  14.150  0.00  0.00    +0.000 C 
ATOM     16  C   UNL     1       6.853   4.108  12.668  0.00  0.00    +0.000 C 
ATOM     17  C   UNL     1       7.727   5.212  13.192  0.00  0.00    +0.000 C 
ENDBRANCH  10  15
BRANCH   1  19
ATOM     18  C   UNL     1       2.201   2.529  21.750  0.00  0.00    +0.000 C 
ATOM     19  O   UNL     1       3.018   2.926  20.648  0.00  0.00    +0.000 OA
ENDBRANCH   1  19
TORSDOF 2
ENDMDL
MODEL 2
REMARK VINA RESULT:      -6.4      2.820      6.454
REMARK  Name = 
REMARK  4 active torsions:
REMARK  status: ('A' for Active; 'I' for Inactive)
REMARK    1  A    between atoms: C_1  and  O_2
REMARK    2  A    between atoms: O_2  and  C_3
REMARK    3  A    between atoms: C_6  and  C_7
REMARK    4  A    between atoms: C_12  and  C_14
REMARK                            x       y       z     vdW  Elec       q    Type
REMARK                         _______ _______ _______ _____ _____    ______ ____
ROOT
ATOM      1  C   UNL     1       3.626   3.833  17.740  0.00  0.00    +0.000 A 
ATOM      2  C   UNL     1       3.641   2.497  18.182  0.00  0.00    +0.000 A 
ATOM      3  C   UNL     1       3.063   2.123  19.394  0.00  0.00    +0.000 A 
ATOM      4  C   UNL     1       2.457   3.067  20.226  0.00  0.00    +0.000 A 
ATOM      5  C   UNL     1       1.814   2.655  21.518  0.00  0.00    +0.000 C 
ATOM      6  C   UNL     1       2.484   4.405  19.789  0.00  0.00    +0.000 A 
ATOM      7  S   UNL     1       1.856   5.765  20.624  0.00  0.00    +0.000 S 
ATOM      8  C   UNL     1       2.289   6.789  19.345  0.00  0.00    +0.000 A 
ATOM      9  N   UNL     1       2.009   8.140  19.404  0.00  0.00    +0.000 N 
ATOM     10  C   UNL     1       1.144   8.726  20.311  0.00  0.00    +0.000 C 
ATOM     11  O   UNL     1       0.442   8.157  21.134  0.00  0.00    +0.000 OA
ATOM     12  N   UNL     1       2.946   6.217  18.355  0.00  0.00    +0.000 NA
ATOM     13  C   UNL     1       3.046   4.827  18.583  0.00  0.00    +0.000 A 
ATOM     14  H   UNL     1       2.409   8.684  18.657  0.00  0.00    +0.000 HD
ENDROOT
BRANCH  10  15
ATOM     15  C   UNL     1       1.000  10.209  20.258  0.00  0.00    +0.000 C 
ATOM     16  C   UNL     1       1.120  11.099  19.054  0.00  0.00    +0.000 C 
ATOM     17  C   UNL     1      -0.236  10.807  19.631  0.00  0.00    +0.000 C 
ENDBRANCH  10  15
BRANCH   1  19
ATOM     18  C   UNL     1       5.608   4.315  16.526  0.00  0.00    +0.000 C 
ATOM     19  O   UNL     1       4.183   4.217  16.541  0.00  0.00    +0.000 OA
ENDBRANCH   1  19
TORSDOF 2
ENDMDL
MODEL 3
REMARK VINA RESULT:      -6.4      2.510      3.371
REMARK  Name = 
REMARK  4 active torsions:
REMARK  status: ('A' for Active; 'I' for Inactive)
REMARK    1  A    between atoms: C_1  and  O_2
REMARK    2  A    between atoms: O_2  and  C_3
REMARK    3  A    between atoms: C_6  and  C_7
REMARK    4  A    between atoms: C_12  and  C_14
REMARK                            x       y       z     vdW  Elec       q    Type
REMARK                         _______ _______ _______ _____ _____    ______ ____
ROOT
ATOM      1  C   UNL     1       4.323   4.128  18.385  0.00  0.00    +0.000 A 
ATOM      2  C   UNL     1       4.728   4.891  19.496  0.00  0.00    +0.000 A 
ATOM      3  C   UNL     1       5.852   5.713  19.446  0.00  0.00    +0.000 A 
ATOM      4  C   UNL     1       6.631   5.801  18.290  0.00  0.00    +0.000 A 
ATOM      5  C   UNL     1       7.826   6.708  18.232  0.00  0.00    +0.000 C 
ATOM      6  C   UNL     1       6.236   5.003  17.200  0.00  0.00    +0.000 A 
ATOM      7  S   UNL     1       7.026   4.883  15.682  0.00  0.00    +0.000 S 
ATOM      8  C   UNL     1       5.835   3.820  15.111  0.00  0.00    +0.000 A 
ATOM      9  N   UNL     1       5.897   3.328  13.822  0.00  0.00    +0.000 N 
ATOM     10  C   UNL     1       6.709   3.834  12.823  0.00  0.00    +0.000 C 
ATOM     11  O   UNL     1       7.427   4.821  12.886  0.00  0.00    +0.000 OA
ATOM     12  N   UNL     1       4.916   3.471  15.989  0.00  0.00    +0.000 NA
ATOM     13  C   UNL     1       5.117   4.167  17.200  0.00  0.00    +0.000 A 
ATOM     14  H   UNL     1       5.217   2.614  13.614  0.00  0.00    +0.000 HD
ENDROOT
BRANCH  10  15
ATOM     15  C   UNL     1       6.679   3.144  11.502  0.00  0.00    +0.000 C 
ATOM     16  C   UNL     1       7.322   1.836  11.137  0.00  0.00    +0.000 C 
ATOM     17  C   UNL     1       5.835   1.903  11.339  0.00  0.00    +0.000 C 
ENDBRANCH  10  15
BRANCH   1  19
ATOM     18  C   UNL     1       1.992   3.927  17.985  0.00  0.00    +0.000 C 
ATOM     19  O   UNL     1       3.210   3.318  18.415  0.00  0.00    +0.000 OA
ENDBRANCH   1  19
TORSDOF 2
ENDMDL
MODEL 4
REMARK VINA RESULT:      -6.3      3.064      3.687
REMARK  Name = 
REMARK  4 active torsions:
REMARK  status: ('A' for Active; 'I' for Inactive)
REMARK    1  A    between atoms: C_1  and  O_2
REMARK    2  A    between atoms: O_2  and  C_3
REMARK    3  A    between atoms: C_6  and  C_7
REMARK    4  A    between atoms: C_12  and  C_14
REMARK                            x       y       z     vdW  Elec       q    Type
REMARK                         _______ _______ _______ _____ _____    ______ ____
ROOT
ATOM      1  C   UNL     1       4.047   2.435  20.177  0.00  0.00    +0.000 A 
ATOM      2  C   UNL     1       2.745   1.933  19.993  0.00  0.00    +0.000 A 
ATOM      3  C   UNL     1       1.851   2.531  19.107  0.00  0.00    +0.000 A 
ATOM      4  C   UNL     1       2.210   3.665  18.375  0.00  0.00    +0.000 A 
ATOM      5  C   UNL     1       1.252   4.290  17.402  0.00  0.00    +0.000 C 
ATOM      6  C   UNL     1       3.501   4.179  18.598  0.00  0.00    +0.000 A 
ATOM      7  S   UNL     1       4.186   5.574  17.871  0.00  0.00    +0.000 S 
ATOM      8  C   UNL     1       5.653   5.312  18.677  0.00  0.00    +0.000 A 
ATOM      9  N   UNL     1       6.722   6.164  18.480  0.00  0.00    +0.000 N 
ATOM     10  C   UNL     1       6.813   7.089  17.456  0.00  0.00    +0.000 C 
ATOM     11  O   UNL     1       6.026   7.249  16.535  0.00  0.00    +0.000 OA
ATOM     12  N   UNL     1       5.666   4.300  19.522  0.00  0.00    +0.000 NA
ATOM     13  C   UNL     1       4.433   3.613  19.471  0.00  0.00    +0.000 A 
ATOM     14  H   UNL     1       7.507   6.000  19.090  0.00  0.00    +0.000 HD
ENDROOT
BRANCH  10  15
ATOM     15  C   UNL     1       8.023   7.960  17.427  0.00  0.00    +0.000 C 
ATOM     16  C   UNL     1       8.101   9.429  17.732  0.00  0.00    +0.000 C 
ATOM     17  C   UNL     1       8.622   8.432  18.729  0.00  0.00    +0.000 C 
ENDBRANCH  10  15
BRANCH   1  19
ATOM     18  C   UNL     1       5.360   0.528  20.697  0.00  0.00    +0.000 C 
ATOM     19  O   UNL     1       4.945   1.851  21.041  0.00  0.00    +0.000 OA
ENDBRANCH   1  19
TORSDOF 2
ENDMDL
MODEL 5
REMARK VINA RESULT:      -6.3      3.185      7.101
REMARK  Name = 
REMARK  4 active torsions:
REMARK  status: ('A' for Active; 'I' for Inactive)
REMARK    1  A    between atoms: C_1  and  O_2
REMARK    2  A    between atoms: O_2  and  C_3
REMARK    3  A    between atoms: C_6  and  C_7
REMARK    4  A    between atoms: C_12  and  C_14
REMARK                            x       y       z     vdW  Elec       q    Type
REMARK                         _______ _______ _______ _____ _____    ______ ____
ROOT
ATOM      1  C   UNL     1       4.239   4.439  17.806  0.00  0.00    +0.000 A 
ATOM      2  C   UNL     1       3.970   3.127  17.372  0.00  0.00    +0.000 A 
ATOM      3  C   UNL     1       2.815   2.451  17.763  0.00  0.00    +0.000 A 
ATOM      4  C   UNL     1       1.884   3.047  18.616  0.00  0.00    +0.000 A 
ATOM      5  C   UNL     1       0.630   2.325  19.013  0.00  0.00    +0.000 C 
ATOM      6  C   UNL     1       2.185   4.344  19.073  0.00  0.00    +0.000 A 
ATOM      7  S   UNL     1       1.246   5.291  20.153  0.00  0.00    +0.000 S 
ATOM      8  C   UNL     1       2.336   6.582  20.017  0.00  0.00    +0.000 A 
ATOM      9  N   UNL     1       2.109   7.762  20.697  0.00  0.00    +0.000 N 
ATOM     10  C   UNL     1       0.909   8.113  21.288  0.00  0.00    +0.000 C 
ATOM     11  O   UNL     1      -0.144   7.495  21.242  0.00  0.00    +0.000 OA
ATOM     12  N   UNL     1       3.406   6.348  19.285  0.00  0.00    +0.000 NA
ATOM     13  C   UNL     1       3.324   5.063  18.706  0.00  0.00    +0.000 A 
ATOM     14  H   UNL     1       2.868   8.424  20.652  0.00  0.00    +0.000 HD
ENDROOT
BRANCH  10  15
ATOM     15  C   UNL     1       0.862   9.410  22.023  0.00  0.00    +0.000 C 
ATOM     16  C   UNL     1      -0.303  10.351  22.146  0.00  0.00    +0.000 C 
ATOM     17  C   UNL     1       0.090   9.496  23.317  0.00  0.00    +0.000 C 
ENDBRANCH  10  15
BRANCH   1  19
ATOM     18  C   UNL     1       5.306   5.746  16.138  0.00  0.00    +0.000 C 
ATOM     19  O   UNL     1       5.369   5.124  17.422  0.00  0.00    +0.000 OA
ENDBRANCH   1  19
TORSDOF 2
ENDMDL
MODEL 6
REMARK VINA RESULT:      -6.3      2.886      6.375
REMARK  Name = 
REMARK  4 active torsions:
REMARK  status: ('A' for Active; 'I' for Inactive)
REMARK    1  A    between atoms: C_1  and  O_2
REMARK    2  A    between atoms: O_2  and  C_3
REMARK    3  A    between atoms: C_6  and  C_7
REMARK    4  A    between atoms: C_12  and  C_14
REMARK                            x       y       z     vdW  Elec       q    Type
REMARK                         _______ _______ _______ _____ _____    ______ ____
ROOT
ATOM      1  C   UNL     1       5.024   4.182  18.776  0.00  0.00    +0.000 A 
ATOM      2  C   UNL     1       5.802   3.974  17.621  0.00  0.00    +0.000 A 
ATOM      3  C   UNL     1       5.757   4.854  16.542  0.00  0.00    +0.000 A 
ATOM      4  C   UNL     1       4.923   5.975  16.559  0.00  0.00    +0.000 A 
ATOM      5  C   UNL     1       4.897   6.934  15.405  0.00  0.00    +0.000 C 
ATOM      6  C   UNL     1       4.123   6.150  17.704  0.00  0.00    +0.000 A 
ATOM      7  S   UNL     1       2.987   7.406  17.974  0.00  0.00    +0.000 S 
ATOM      8  C   UNL     1       2.644   6.806  19.522  0.00  0.00    +0.000 A 
ATOM      9  N   UNL     1       1.733   7.449  20.336  0.00  0.00    +0.000 N 
ATOM     10  C   UNL     1       1.249   8.727  20.121  0.00  0.00    +0.000 C 
ATOM     11  O   UNL     1       1.594   9.509  19.248  0.00  0.00    +0.000 OA
ATOM     12  N   UNL     1       3.253   5.682  19.843  0.00  0.00    +0.000 NA
ATOM     13  C   UNL     1       4.136   5.299  18.811  0.00  0.00    +0.000 A 
ATOM     14  H   UNL     1       1.507   6.954  21.184  0.00  0.00    +0.000 HD
ENDROOT
BRANCH  10  15
ATOM     15  C   UNL     1       0.232   9.244  21.081  0.00  0.00    +0.000 C 
ATOM     16  C   UNL     1      -0.428   8.498  22.205  0.00  0.00    +0.000 C 
ATOM     17  C   UNL     1       0.638   9.513  22.510  0.00  0.00    +0.000 C 
ENDBRANCH  10  15
BRANCH   1  19
ATOM     18  C   UNL     1       4.240   2.166  19.751  0.00  0.00    +0.000 C 
ATOM     19  O   UNL     1       5.065   3.328  19.854  0.00  0.00    +0.000 OA
ENDBRANCH   1  19
TORSDOF 2
ENDMDL
MODEL 7
REMARK VINA RESULT:      -6.2      2.459      6.576
REMARK  Name = 
REMARK  4 active torsions:
REMARK  status: ('A' for Active; 'I' for Inactive)
REMARK    1  A    between atoms: C_1  and  O_2
REMARK    2  A    between atoms: O_2  and  C_3
REMARK    3  A    between atoms: C_6  and  C_7
REMARK    4  A    between atoms: C_12  and  C_14
REMARK                            x       y       z     vdW  Elec       q    Type
REMARK                         _______ _______ _______ _____ _____    ______ ____
ROOT
ATOM      1  C   UNL     1       7.114   5.924  16.899  0.00  0.00    +0.000 A 
ATOM      2  C   UNL     1       7.670   5.972  15.607  0.00  0.00    +0.000 A 
ATOM      3  C   UNL     1       7.138   5.229  14.555  0.00  0.00    +0.000 A 
ATOM      4  C   UNL     1       6.035   4.393  14.748  0.00  0.00    +0.000 A 
ATOM      5  C   UNL     1       5.450   3.614  13.606  0.00  0.00    +0.000 C 
ATOM      6  C   UNL     1       5.513   4.326  16.053  0.00  0.00    +0.000 A 
ATOM      7  S   UNL     1       4.199   3.358  16.580  0.00  0.00    +0.000 S 
ATOM      8  C   UNL     1       4.316   3.995  18.146  0.00  0.00    +0.000 A 
ATOM      9  N   UNL     1       3.438   3.593  19.132  0.00  0.00    +0.000 N 
ATOM     10  C   UNL     1       2.262   2.899  18.906  0.00  0.00    +0.000 C 
ATOM     11  O   UNL     1       1.777   2.604  17.824  0.00  0.00    +0.000 OA
ATOM     12  N   UNL     1       5.317   4.829  18.347  0.00  0.00    +0.000 NA
ATOM     13  C   UNL     1       6.009   5.054  17.137  0.00  0.00    +0.000 A 
ATOM     14  H   UNL     1       3.659   3.932  20.055  0.00  0.00    +0.000 HD
ENDROOT
BRANCH  10  15
ATOM     15  C   UNL     1       1.460   2.505  20.099  0.00  0.00    +0.000 C 
ATOM     16  C   UNL     1       1.905   2.476  21.533  0.00  0.00    +0.000 C 
ATOM     17  C   UNL     1       0.994   3.573  21.059  0.00  0.00    +0.000 C 
ENDBRANCH  10  15
BRANCH   1  19
ATOM     18  C   UNL     1       7.894   8.032  17.661  0.00  0.00    +0.000 C 
ATOM     19  O   UNL     1       7.621   6.660  17.946  0.00  0.00    +0.000 OA
ENDBRANCH   1  19
TORSDOF 2
ENDMDL
MODEL 8
REMARK VINA RESULT:      -6.2      3.229      6.332
REMARK  Name = 
REMARK  4 active torsions:
REMARK  status: ('A' for Active; 'I' for Inactive)
REMARK    1  A    between atoms: C_1  and  O_2
REMARK    2  A    between atoms: O_2  and  C_3
REMARK    3  A    between atoms: C_6  and  C_7
REMARK    4  A    between atoms: C_12  and  C_14
REMARK                            x       y       z     vdW  Elec       q    Type
REMARK                         _______ _______ _______ _____ _____    ______ ____
ROOT
ATOM      1  C   UNL     1       3.007   4.799  20.140  0.00  0.00    +0.000 A 
ATOM      2  C   UNL     1       3.878   3.943  19.440  0.00  0.00    +0.000 A 
ATOM      3  C   UNL     1       4.477   4.330  18.243  0.00  0.00    +0.000 A 
ATOM      4  C   UNL     1       4.223   5.584  17.682  0.00  0.00    +0.000 A 
ATOM      5  C   UNL     1       4.890   6.007  16.406  0.00  0.00    +0.000 C 
ATOM      6  C   UNL     1       3.320   6.415  18.373  0.00  0.00    +0.000 A 
ATOM      7  S   UNL     1       2.799   7.978  17.895  0.00  0.00    +0.000 S 
ATOM      8  C   UNL     1       1.867   8.131  19.303  0.00  0.00    +0.000 A 
ATOM      9  N   UNL     1       1.149   9.285  19.544  0.00  0.00    +0.000 N 
ATOM     10  C   UNL     1       1.323  10.478  18.865  0.00  0.00    +0.000 C 
ATOM     11  O   UNL     1       2.170  10.729  18.021  0.00  0.00    +0.000 OA
ATOM     12  N   UNL     1       1.841   7.071  20.086  0.00  0.00    +0.000 NA
ATOM     13  C   UNL     1       2.700   6.073  19.576  0.00  0.00    +0.000 A 
ATOM     14  H   UNL     1       0.534   9.237  20.340  0.00  0.00    +0.000 HD
ENDROOT
BRANCH  10  15
ATOM     15  C   UNL     1       0.422  11.609  19.228  0.00  0.00    +0.000 C 
ATOM     16  C   UNL     1      -0.529  11.687  20.388  0.00  0.00    +0.000 C 
ATOM     17  C   UNL     1       0.758  12.462  20.428  0.00  0.00    +0.000 C 
ENDBRANCH  10  15
BRANCH   1  19
ATOM     18  C   UNL     1       2.090   3.050  21.456  0.00  0.00    +0.000 C 
ATOM     19  O   UNL     1       2.415   4.435  21.328  0.00  0.00    +0.000 OA
ENDBRANCH   1  19
TORSDOF 2
ENDMDL
MODEL 9
REMARK VINA RESULT:      -6.1      2.952      6.912
REMARK  Name = 
REMARK  4 active torsions:
REMARK  status: ('A' for Active; 'I' for Inactive)
REMARK    1  A    between atoms: C_1  and  O_2
REMARK    2  A    between atoms: O_2  and  C_3
REMARK    3  A    between atoms: C_6  and  C_7
REMARK    4  A    between atoms: C_12  and  C_14
REMARK                            x       y       z     vdW  Elec       q    Type
REMARK                         _______ _______ _______ _____ _____    ______ ____
ROOT
ATOM      1  C   UNL     1       4.056   5.044  17.275  0.00  0.00    +0.000 A 
ATOM      2  C   UNL     1       4.183   3.643  17.319  0.00  0.00    +0.000 A 
ATOM      3  C   UNL     1       3.560   2.885  18.309  0.00  0.00    +0.000 A 
ATOM      4  C   UNL     1       2.794   3.490  19.307  0.00  0.00    +0.000 A 
ATOM      5  C   UNL     1       2.104   2.667  20.355  0.00  0.00    +0.000 C 
ATOM      6  C   UNL     1       2.708   4.895  19.273  0.00  0.00    +0.000 A 
ATOM      7  S   UNL     1       1.874   5.895  20.390  0.00  0.00    +0.000 S 
ATOM      8  C   UNL     1       2.288   7.280  19.505  0.00  0.00    +0.000 A 
ATOM      9  N   UNL     1       1.858   8.527  19.916  0.00  0.00    +0.000 N 
ATOM     10  C   UNL     1       0.868   8.748  20.857  0.00  0.00    +0.000 C 
ATOM     11  O   UNL     1       0.173   7.908  21.408  0.00  0.00    +0.000 OA
ATOM     12  N   UNL     1       3.075   7.079  18.468  0.00  0.00    +0.000 NA
ATOM     13  C   UNL     1       3.309   5.697  18.301  0.00  0.00    +0.000 A 
ATOM     14  H   UNL     1       2.251   9.297  19.400  0.00  0.00    +0.000 HD
ENDROOT
BRANCH  10  15
ATOM     15  C   UNL     1       0.567  10.165  21.212  0.00  0.00    +0.000 C 
ATOM     16  C   UNL     1       0.853  11.394  20.398  0.00  0.00    +0.000 C 
ATOM     17  C   UNL     1      -0.556  10.880  20.500  0.00  0.00    +0.000 C 
ENDBRANCH  10  15
BRANCH   1  19
ATOM     18  C   UNL     1       5.470   5.090  15.370  0.00  0.00    +0.000 C 
ATOM     19  O   UNL     1       4.657   5.807  16.299  0.00  0.00    +0.000 OA
ENDBRANCH   1  19
TORSDOF 2
ENDMDL
