MODEL 1
REMARK VINA RESULT:      -6.6      0.000      0.000
REMARK  Name = 
REMARK  7 active torsions:
REMARK  status: ('A' for Active; 'I' for Inactive)
REMARK    1  A    between atoms: C_1  and  S_2
REMARK    2  A    between atoms: S_2  and  C_3
REMARK    3  A    between atoms: C_8  and  C_9
REMARK    4  A    between atoms: C_14  and  C_15
REMARK    5  A    between atoms: C_15  and  C_16
REMARK    6  A    between atoms: C_15  and  C_17
REMARK    7  A    between atoms: C_15  and  C_18
REMARK                            x       y       z     vdW  Elec       q    Type
REMARK                         _______ _______ _______ _____ _____    ______ ____
ROOT
ATOM      1  C   UNL     1       2.392   6.873  19.424  0.00  0.00    +0.000 C 
ATOM      2  O   UNL     1       2.191   7.417  18.342  0.00  0.00    +0.000 OA
ATOM      3  N   UNL     1       1.948   7.320  20.646  0.00  0.00    +0.000 N 
ATOM      4  C   UNL     1       1.274   8.505  20.748  0.00  0.00    +0.000 A 
ATOM      5  N   UNL     1       0.718   9.201  19.799  0.00  0.00    +0.000 NA
ATOM      6  C   UNL     1       0.250  10.407  20.286  0.00  0.00    +0.000 A 
ATOM      7  C   UNL     1       0.440  10.568  21.649  0.00  0.00    +0.000 A 
ATOM      8  S   UNL     1       1.179   9.163  22.316  0.00  0.00    +0.000 S 
ATOM      9  H   UNL     1       2.269   6.901  21.507  0.00  0.00    +0.000 HD
ENDROOT
BRANCH   1  15
ATOM     10  C   UNL     1       2.763   4.330  19.727  0.00  0.00    +0.000 A 
ATOM     11  N   UNL     1       3.601   3.254  19.714  0.00  0.00    +0.000 NA
ATOM     12  C   UNL     1       4.890   3.447  19.367  0.00  0.00    +0.000 A 
ATOM     13  C   UNL     1       5.407   4.673  19.007  0.00  0.00    +0.000 A 
ATOM     14  C   UNL     1       4.545   5.761  19.019  0.00  0.00    +0.000 A 
ATOM     15  C   UNL     1       3.195   5.614  19.391  0.00  0.00    +0.000 A 
BRANCH  10  17
ATOM     16  C   UNL     1       1.468   2.720  21.554  0.00  0.00    +0.000 C 
ATOM     17  S   UNL     1       1.099   3.939  20.267  0.00  0.00    +0.000 S 
ENDBRANCH  10  17
ENDBRANCH   1  15
BRANCH   6  18
ATOM     18  C   UNL     1      -0.418  11.349  19.299  0.00  0.00    +0.000 C 
ATOM     19  C   UNL     1       0.630  12.329  18.740  0.00  0.00    +0.000 C 
ATOM     20  C   UNL     1      -1.065  10.583  18.130  0.00  0.00    +0.000 C 
ATOM     21  C   UNL     1      -1.529  12.171  19.994  0.00  0.00    +0.000 C 
ENDBRANCH   6  18
TORSDOF 3
ENDMDL
MODEL 2
REMARK VINA RESULT:      -6.4      1.910      7.005
REMARK  Name = 
REMARK  7 active torsions:
REMARK  status: ('A' for Active; 'I' for Inactive)
REMARK    1  A    between atoms: C_1  and  S_2
REMARK    2  A    between atoms: S_2  and  C_3
REMARK    3  A    between atoms: C_8  and  C_9
REMARK    4  A    between atoms: C_14  and  C_15
REMARK    5  A    between atoms: C_15  and  C_16
REMARK    6  A    between atoms: C_15  and  C_17
REMARK    7  A    between atoms: C_15  and  C_18
REMARK                            x       y       z     vdW  Elec       q    Type
REMARK                         _______ _______ _______ _____ _____    ______ ____
ROOT
ATOM      1  C   UNL     1       1.435   8.224  20.345  0.00  0.00    +0.000 C 
ATOM      2  O   UNL     1       1.974   8.621  19.316  0.00  0.00    +0.000 OA
ATOM      3  N   UNL     1       1.584   6.975  20.902  0.00  0.00    +0.000 N 
ATOM      4  C   UNL     1       2.331   6.019  20.273  0.00  0.00    +0.000 A 
ATOM      5  N   UNL     1       3.192   6.173  19.308  0.00  0.00    +0.000 NA
ATOM      6  C   UNL     1       3.641   4.948  18.852  0.00  0.00    +0.000 A 
ATOM      7  C   UNL     1       3.114   3.870  19.545  0.00  0.00    +0.000 A 
ATOM      8  S   UNL     1       2.076   4.421  20.803  0.00  0.00    +0.000 S 
ATOM      9  H   UNL     1       1.002   6.669  21.669  0.00  0.00    +0.000 HD
ENDROOT
BRANCH   1  15
ATOM     10  C   UNL     1      -0.165  10.254  20.462  0.00  0.00    +0.000 A 
ATOM     11  N   UNL     1      -0.916  11.117  21.204  0.00  0.00    +0.000 NA
ATOM     12  C   UNL     1      -0.975  10.937  22.539  0.00  0.00    +0.000 A 
ATOM     13  C   UNL     1      -0.327   9.914  23.198  0.00  0.00    +0.000 A 
ATOM     14  C   UNL     1       0.432   9.037  22.435  0.00  0.00    +0.000 A 
ATOM     15  C   UNL     1       0.538   9.195  21.039  0.00  0.00    +0.000 A 
BRANCH  10  17
ATOM     16  C   UNL     1      -1.874  10.405  18.303  0.00  0.00    +0.000 C 
ATOM     17  S   UNL     1      -0.128  10.650  18.715  0.00  0.00    +0.000 S 
ENDBRANCH  10  17
ENDBRANCH   1  15
BRANCH   6  18
ATOM     18  C   UNL     1       4.645   4.950  17.712  0.00  0.00    +0.000 C 
ATOM     19  C   UNL     1       4.311   3.807  16.736  0.00  0.00    +0.000 C 
ATOM     20  C   UNL     1       4.633   6.286  16.947  0.00  0.00    +0.000 C 
ATOM     21  C   UNL     1       6.080   4.728  18.247  0.00  0.00    +0.000 C 
ENDBRANCH   6  18
TORSDOF 3
ENDMDL
MODEL 3
REMARK VINA RESULT:      -6.4      1.922      7.012
REMARK  Name = 
REMARK  7 active torsions:
REMARK  status: ('A' for Active; 'I' for Inactive)
REMARK    1  A    between atoms: C_1  and  S_2
REMARK    2  A    between atoms: S_2  and  C_3
REMARK    3  A    between atoms: C_8  and  C_9
REMARK    4  A    between atoms: C_14  and  C_15
REMARK    5  A    between atoms: C_15  and  C_16
REMARK    6  A    between atoms: C_15  and  C_17
REMARK    7  A    between atoms: C_15  and  C_18
REMARK                            x       y       z     vdW  Elec       q    Type
REMARK                         _______ _______ _______ _____ _____    ______ ____
ROOT
ATOM      1  C   UNL     1       1.558   8.105  20.258  0.00  0.00    +0.000 C 
ATOM      2  O   UNL     1       2.074   8.516  19.224  0.00  0.00    +0.000 OA
ATOM      3  N   UNL     1       1.742   6.859  20.811  0.00  0.00    +0.000 N 
ATOM      4  C   UNL     1       2.502   5.921  20.171  0.00  0.00    +0.000 A 
ATOM      5  N   UNL     1       3.347   6.096  19.195  0.00  0.00    +0.000 NA
ATOM      6  C   UNL     1       3.818   4.882  18.731  0.00  0.00    +0.000 A 
ATOM      7  C   UNL     1       3.324   3.791  19.428  0.00  0.00    +0.000 A 
ATOM      8  S   UNL     1       2.290   4.317  20.701  0.00  0.00    +0.000 S 
ATOM      9  H   UNL     1       1.177   6.539  21.585  0.00  0.00    +0.000 HD
ENDROOT
BRANCH   1  15
ATOM     10  C   UNL     1      -0.142  10.051  20.391  0.00  0.00    +0.000 A 
ATOM     11  N   UNL     1      -0.898  10.902  21.141  0.00  0.00    +0.000 NA
ATOM     12  C   UNL     1      -0.873  10.773  22.484  0.00  0.00    +0.000 A 
ATOM     13  C   UNL     1      -0.135   9.813  23.142  0.00  0.00    +0.000 A 
ATOM     14  C   UNL     1       0.628   8.947  22.371  0.00  0.00    +0.000 A 
ATOM     15  C   UNL     1       0.649   9.054  20.966  0.00  0.00    +0.000 A 
BRANCH  10  17
ATOM     16  C   UNL     1      -1.922  10.989  18.505  0.00  0.00    +0.000 C 
ATOM     17  S   UNL     1      -0.222  10.378  18.631  0.00  0.00    +0.000 S 
ENDBRANCH  10  17
ENDBRANCH   1  15
BRANCH   6  18
ATOM     18  C   UNL     1       4.807   4.908  17.578  0.00  0.00    +0.000 C 
ATOM     19  C   UNL     1       4.746   6.282  16.886  0.00  0.00    +0.000 C 
ATOM     20  C   UNL     1       6.247   4.650  18.059  0.00  0.00    +0.000 C 
ATOM     21  C   UNL     1       4.458   3.822  16.534  0.00  0.00    +0.000 C 
ENDBRANCH   6  18
TORSDOF 3
ENDMDL
MODEL 4
REMARK VINA RESULT:      -6.3      2.093      6.982
REMARK  Name = 
REMARK  7 active torsions:
REMARK  status: ('A' for Active; 'I' for Inactive)
REMARK    1  A    between atoms: C_1  and  S_2
REMARK    2  A    between atoms: S_2  and  C_3
REMARK    3  A    between atoms: C_8  and  C_9
REMARK    4  A    between atoms: C_14  and  C_15
REMARK    5  A    between atoms: C_15  and  C_16
REMARK    6  A    between atoms: C_15  and  C_17
REMARK    7  A    between atoms: C_15  and  C_18
REMARK                            x       y       z     vdW  Elec       q    Type
REMARK                         _______ _______ _______ _____ _____    ______ ____
ROOT
ATOM      1  C   UNL     1       2.003   8.013  19.702  0.00  0.00    +0.000 C 
ATOM      2  O   UNL     1       2.432   8.523  18.672  0.00  0.00    +0.000 OA
ATOM      3  N   UNL     1       2.312   6.757  20.169  0.00  0.00    +0.000 N 
ATOM      4  C   UNL     1       3.111   5.922  19.439  0.00  0.00    +0.000 A 
ATOM      5  N   UNL     1       3.888   6.221  18.438  0.00  0.00    +0.000 NA
ATOM      6  C   UNL     1       4.429   5.078  17.880  0.00  0.00    +0.000 A 
ATOM      7  C   UNL     1       4.059   3.912  18.531  0.00  0.00    +0.000 A 
ATOM      8  S   UNL     1       3.053   4.278  19.880  0.00  0.00    +0.000 S 
ATOM      9  H   UNL     1       1.814   6.348  20.947  0.00  0.00    +0.000 HD
ENDROOT
BRANCH   1  15
ATOM     10  C   UNL     1       0.138   9.777  20.028  0.00  0.00    +0.000 A 
ATOM     11  N   UNL     1      -0.642  10.523  20.861  0.00  0.00    +0.000 NA
ATOM     12  C   UNL     1      -0.511  10.350  22.193  0.00  0.00    +0.000 A 
ATOM     13  C   UNL     1       0.359   9.444  22.760  0.00  0.00    +0.000 A 
ATOM     14  C   UNL     1       1.145   8.685  21.905  0.00  0.00    +0.000 A 
ATOM     15  C   UNL     1       1.058   8.843  20.507  0.00  0.00    +0.000 A 
BRANCH  10  17
ATOM     16  C   UNL     1      -1.871  10.512  18.287  0.00  0.00    +0.000 C 
ATOM     17  S   UNL     1      -0.095  10.157  18.292  0.00  0.00    +0.000 S 
ENDBRANCH  10  17
ENDBRANCH   1  15
BRANCH   6  18
ATOM     18  C   UNL     1       5.354   5.251  16.686  0.00  0.00    +0.000 C 
ATOM     19  C   UNL     1       5.159   4.072  15.716  0.00  0.00    +0.000 C 
ATOM     20  C   UNL     1       5.077   6.569  15.940  0.00  0.00    +0.000 C 
ATOM     21  C   UNL     1       6.832   5.268  17.139  0.00  0.00    +0.000 C 
ENDBRANCH   6  18
TORSDOF 3
ENDMDL
MODEL 5
REMARK VINA RESULT:      -6.3      1.482      2.443
REMARK  Name = 
REMARK  7 active torsions:
REMARK  status: ('A' for Active; 'I' for Inactive)
REMARK    1  A    between atoms: C_1  and  S_2
REMARK    2  A    between atoms: S_2  and  C_3
REMARK    3  A    between atoms: C_8  and  C_9
REMARK    4  A    between atoms: C_14  and  C_15
REMARK    5  A    between atoms: C_15  and  C_16
REMARK    6  A    between atoms: C_15  and  C_17
REMARK    7  A    between atoms: C_15  and  C_18
REMARK                            x       y       z     vdW  Elec       q    Type
REMARK                         _______ _______ _______ _____ _____    ______ ____
ROOT
ATOM      1  C   UNL     1       2.441   6.408  19.730  0.00  0.00    +0.000 C 
ATOM      2  O   UNL     1       2.359   6.877  18.599  0.00  0.00    +0.000 OA
ATOM      3  N   UNL     1       1.967   6.993  20.881  0.00  0.00    +0.000 N 
ATOM      4  C   UNL     1       1.402   8.237  20.846  0.00  0.00    +0.000 A 
ATOM      5  N   UNL     1       0.973   8.899  19.810  0.00  0.00    +0.000 NA
ATOM      6  C   UNL     1       0.591  10.178  20.170  0.00  0.00    +0.000 A 
ATOM      7  C   UNL     1       0.712  10.433  21.526  0.00  0.00    +0.000 A 
ATOM      8  S   UNL     1       1.275   9.029  22.348  0.00  0.00    +0.000 S 
ATOM      9  H   UNL     1       2.195   6.620  21.792  0.00  0.00    +0.000 HD
ENDROOT
BRANCH   1  15
ATOM     10  C   UNL     1       4.346   4.713  19.287  0.00  0.00    +0.000 A 
ATOM     11  N   UNL     1       4.851   3.454  19.416  0.00  0.00    +0.000 NA
ATOM     12  C   UNL     1       4.139   2.541  20.108  0.00  0.00    +0.000 A 
ATOM     13  C   UNL     1       2.930   2.816  20.710  0.00  0.00    +0.000 A 
ATOM     14  C   UNL     1       2.425   4.103  20.578  0.00  0.00    +0.000 A 
ATOM     15  C   UNL     1       3.123   5.085  19.849  0.00  0.00    +0.000 A 
BRANCH  10  17
ATOM     16  C   UNL     1       4.866   5.263  16.635  0.00  0.00    +0.000 C 
ATOM     17  S   UNL     1       5.365   5.800  18.291  0.00  0.00    +0.000 S 
ENDBRANCH  10  17
ENDBRANCH   1  15
BRANCH   6  18
ATOM     18  C   UNL     1       0.076  11.091  19.070  0.00  0.00    +0.000 C 
ATOM     19  C   UNL     1      -0.530  10.237  17.941  0.00  0.00    +0.000 C 
ATOM     20  C   UNL     1      -0.994  12.065  19.595  0.00  0.00    +0.000 C 
ATOM     21  C   UNL     1       1.228  11.934  18.475  0.00  0.00    +0.000 C 
ENDBRANCH   6  18
TORSDOF 3
ENDMDL
MODEL 6
REMARK VINA RESULT:      -6.3      0.757      1.239
REMARK  Name = 
REMARK  7 active torsions:
REMARK  status: ('A' for Active; 'I' for Inactive)
REMARK    1  A    between atoms: C_1  and  S_2
REMARK    2  A    between atoms: S_2  and  C_3
REMARK    3  A    between atoms: C_8  and  C_9
REMARK    4  A    between atoms: C_14  and  C_15
REMARK    5  A    between atoms: C_15  and  C_16
REMARK    6  A    between atoms: C_15  and  C_17
REMARK    7  A    between atoms: C_15  and  C_18
REMARK                            x       y       z     vdW  Elec       q    Type
REMARK                         _______ _______ _______ _____ _____    ______ ____
ROOT
ATOM      1  C   UNL     1       2.438   7.198  19.112  0.00  0.00    +0.000 C 
ATOM      2  O   UNL     1       2.123   7.776  18.076  0.00  0.00    +0.000 OA
ATOM      3  N   UNL     1       2.024   7.534  20.381  0.00  0.00    +0.000 N 
ATOM      4  C   UNL     1       1.244   8.638  20.586  0.00  0.00    +0.000 A 
ATOM      5  N   UNL     1       0.569   9.324  19.709  0.00  0.00    +0.000 NA
ATOM      6  C   UNL     1       0.015  10.450  20.288  0.00  0.00    +0.000 A 
ATOM      7  C   UNL     1       0.267  10.557  21.647  0.00  0.00    +0.000 A 
ATOM      8  S   UNL     1       1.177   9.201  22.192  0.00  0.00    +0.000 S 
ATOM      9  H   UNL     1       2.433   7.105  21.198  0.00  0.00    +0.000 HD
ENDROOT
BRANCH   1  15
ATOM     10  C   UNL     1       3.298   4.820  19.659  0.00  0.00    +0.000 A 
ATOM     11  N   UNL     1       4.227   3.837  19.484  0.00  0.00    +0.000 NA
ATOM     12  C   UNL     1       5.234   4.049  18.613  0.00  0.00    +0.000 A 
ATOM     13  C   UNL     1       5.368   5.204  17.873  0.00  0.00    +0.000 A 
ATOM     14  C   UNL     1       4.416   6.198  18.053  0.00  0.00    +0.000 A 
ATOM     15  C   UNL     1       3.356   6.030  18.966  0.00  0.00    +0.000 A 
BRANCH  10  17
ATOM     16  C   UNL     1       0.954   3.387  19.900  0.00  0.00    +0.000 C 
ATOM     17  S   UNL     1       2.057   4.427  20.891  0.00  0.00    +0.000 S 
ENDBRANCH  10  17
ENDBRANCH   1  15
BRANCH   6  18
ATOM     18  C   UNL     1      -0.797  11.371  19.393  0.00  0.00    +0.000 C 
ATOM     19  C   UNL     1      -1.459  10.543  18.276  0.00  0.00    +0.000 C 
ATOM     20  C   UNL     1      -1.889  12.114  20.185  0.00  0.00    +0.000 C 
ATOM     21  C   UNL     1       0.112  12.435  18.735  0.00  0.00    +0.000 C 
ENDBRANCH   6  18
TORSDOF 3
ENDMDL
MODEL 7
REMARK VINA RESULT:      -6.3      1.989      6.961
REMARK  Name = 
REMARK  7 active torsions:
REMARK  status: ('A' for Active; 'I' for Inactive)
REMARK    1  A    between atoms: C_1  and  S_2
REMARK    2  A    between atoms: S_2  and  C_3
REMARK    3  A    between atoms: C_8  and  C_9
REMARK    4  A    between atoms: C_14  and  C_15
REMARK    5  A    between atoms: C_15  and  C_16
REMARK    6  A    between atoms: C_15  and  C_17
REMARK    7  A    between atoms: C_15  and  C_18
REMARK                            x       y       z     vdW  Elec       q    Type
REMARK                         _______ _______ _______ _____ _____    ______ ____
ROOT
ATOM      1  C   UNL     1       1.795   8.628  18.599  0.00  0.00    +0.000 C 
ATOM      2  O   UNL     1       2.284   8.894  17.505  0.00  0.00    +0.000 OA
ATOM      3  N   UNL     1       2.122   7.549  19.387  0.00  0.00    +0.000 N 
ATOM      4  C   UNL     1       3.015   6.613  18.947  0.00  0.00    +0.000 A 
ATOM      5  N   UNL     1       3.858   6.704  17.959  0.00  0.00    +0.000 NA
ATOM      6  C   UNL     1       4.495   5.497  17.745  0.00  0.00    +0.000 A 
ATOM      7  C   UNL     1       4.126   4.507  18.642  0.00  0.00    +0.000 A 
ATOM      8  S   UNL     1       2.996   5.130  19.782  0.00  0.00    +0.000 S 
ATOM      9  H   UNL     1       1.580   7.314  20.207  0.00  0.00    +0.000 HD
ENDROOT
BRANCH   1  15
ATOM     10  C   UNL     1       0.425   9.832  20.434  0.00  0.00    +0.000 A 
ATOM     11  N   UNL     1      -0.590  10.674  20.781  0.00  0.00    +0.000 NA
ATOM     12  C   UNL     1      -1.302  11.265  19.798  0.00  0.00    +0.000 A 
ATOM     13  C   UNL     1      -1.048  11.077  18.457  0.00  0.00    +0.000 A 
ATOM     14  C   UNL     1      -0.009  10.223  18.112  0.00  0.00    +0.000 A 
ATOM     15  C   UNL     1       0.750   9.568  19.102  0.00  0.00    +0.000 A 
BRANCH  10  17
ATOM     16  C   UNL     1       0.062   9.490  23.146  0.00  0.00    +0.000 C 
ATOM     17  S   UNL     1       1.241   9.071  21.836  0.00  0.00    +0.000 S 
ENDBRANCH  10  17
ENDBRANCH   1  15
BRANCH   6  18
ATOM     18  C   UNL     1       5.507   5.428  16.613  0.00  0.00    +0.000 C 
ATOM     19  C   UNL     1       5.485   4.019  15.994  0.00  0.00    +0.000 C 
ATOM     20  C   UNL     1       5.202   6.466  15.516  0.00  0.00    +0.000 C 
ATOM     21  C   UNL     1       6.934   5.706  17.139  0.00  0.00    +0.000 C 
ENDBRANCH   6  18
TORSDOF 3
ENDMDL
MODEL 8
REMARK VINA RESULT:      -6.2      1.422      2.449
REMARK  Name = 
REMARK  7 active torsions:
REMARK  status: ('A' for Active; 'I' for Inactive)
REMARK    1  A    between atoms: C_1  and  S_2
REMARK    2  A    between atoms: S_2  and  C_3
REMARK    3  A    between atoms: C_8  and  C_9
REMARK    4  A    between atoms: C_14  and  C_15
REMARK    5  A    between atoms: C_15  and  C_16
REMARK    6  A    between atoms: C_15  and  C_17
REMARK    7  A    between atoms: C_15  and  C_18
REMARK                            x       y       z     vdW  Elec       q    Type
REMARK                         _______ _______ _______ _____ _____    ______ ____
ROOT
ATOM      1  C   UNL     1       2.442   6.456  19.789  0.00  0.00    +0.000 C 
ATOM      2  O   UNL     1       2.403   6.954  18.668  0.00  0.00    +0.000 OA
ATOM      3  N   UNL     1       1.929   7.012  20.937  0.00  0.00    +0.000 N 
ATOM      4  C   UNL     1       1.369   8.259  20.913  0.00  0.00    +0.000 A 
ATOM      5  N   UNL     1       0.980   8.949  19.880  0.00  0.00    +0.000 NA
ATOM      6  C   UNL     1       0.589  10.220  20.259  0.00  0.00    +0.000 A 
ATOM      7  C   UNL     1       0.661  10.440  21.625  0.00  0.00    +0.000 A 
ATOM      8  S   UNL     1       1.189   9.012  22.430  0.00  0.00    +0.000 S 
ATOM      9  H   UNL     1       2.121   6.615  21.846  0.00  0.00    +0.000 HD
ENDROOT
BRANCH   1  15
ATOM     10  C   UNL     1       4.319   4.741  19.307  0.00  0.00    +0.000 A 
ATOM     11  N   UNL     1       4.817   3.478  19.430  0.00  0.00    +0.000 NA
ATOM     12  C   UNL     1       4.115   2.576  20.147  0.00  0.00    +0.000 A 
ATOM     13  C   UNL     1       2.925   2.866  20.779  0.00  0.00    +0.000 A 
ATOM     14  C   UNL     1       2.428   4.156  20.652  0.00  0.00    +0.000 A 
ATOM     15  C   UNL     1       3.115   5.127  19.899  0.00  0.00    +0.000 A 
BRANCH  10  17
ATOM     16  C   UNL     1       6.935   5.582  19.067  0.00  0.00    +0.000 C 
ATOM     17  S   UNL     1       5.322   5.813  18.278  0.00  0.00    +0.000 S 
ENDBRANCH  10  17
ENDBRANCH   1  15
BRANCH   6  18
ATOM     18  C   UNL     1       0.117  11.163  19.165  0.00  0.00    +0.000 C 
ATOM     19  C   UNL     1      -0.960  12.105  19.733  0.00  0.00    +0.000 C 
ATOM     20  C   UNL     1       1.277  12.005  18.601  0.00  0.00    +0.000 C 
ATOM     21  C   UNL     1      -0.502  10.371  17.990  0.00  0.00    +0.000 C 
ENDBRANCH   6  18
TORSDOF 3
ENDMDL
MODEL 9
REMARK VINA RESULT:      -6.2      1.750      2.036
REMARK  Name = 
REMARK  7 active torsions:
REMARK  status: ('A' for Active; 'I' for Inactive)
REMARK    1  A    between atoms: C_1  and  S_2
REMARK    2  A    between atoms: S_2  and  C_3
REMARK    3  A    between atoms: C_8  and  C_9
REMARK    4  A    between atoms: C_14  and  C_15
REMARK    5  A    between atoms: C_15  and  C_16
REMARK    6  A    between atoms: C_15  and  C_17
REMARK    7  A    between atoms: C_15  and  C_18
REMARK                            x       y       z     vdW  Elec       q    Type
REMARK                         _______ _______ _______ _____ _____    ______ ____
ROOT
ATOM      1  C   UNL     1       2.738   7.607  18.115  0.00  0.00    +0.000 C 
ATOM      2  O   UNL     1       2.464   8.441  17.258  0.00  0.00    +0.000 OA
ATOM      3  N   UNL     1       2.245   7.578  19.399  0.00  0.00    +0.000 N 
ATOM      4  C   UNL     1       1.424   8.574  19.849  0.00  0.00    +0.000 A 
ATOM      5  N   UNL     1       0.778   9.464  19.152  0.00  0.00    +0.000 NA
ATOM      6  C   UNL     1       0.160  10.382  19.981  0.00  0.00    +0.000 A 
ATOM      7  C   UNL     1       0.334  10.117  21.330  0.00  0.00    +0.000 A 
ATOM      8  S   UNL     1       1.252   8.676  21.540  0.00  0.00    +0.000 S 
ATOM      9  H   UNL     1       2.622   6.948  20.093  0.00  0.00    +0.000 HD
ENDROOT
BRANCH   1  15
ATOM     10  C   UNL     1       3.441   5.166  17.622  0.00  0.00    +0.000 A 
ATOM     11  N   UNL     1       4.411   4.265  17.295  0.00  0.00    +0.000 NA
ATOM     12  C   UNL     1       5.658   4.720  17.056  0.00  0.00    +0.000 A 
ATOM     13  C   UNL     1       6.005   6.053  17.107  0.00  0.00    +0.000 A 
ATOM     14  C   UNL     1       5.010   6.964  17.436  0.00  0.00    +0.000 A 
ATOM     15  C   UNL     1       3.696   6.535  17.713  0.00  0.00    +0.000 A 
BRANCH  10  17
ATOM     16  C   UNL     1       2.294   2.666  17.828  0.00  0.00    +0.000 C 
ATOM     17  S   UNL     1       1.851   4.416  17.974  0.00  0.00    +0.000 S 
ENDBRANCH  10  17
ENDBRANCH   1  15
BRANCH   6  18
ATOM     18  C   UNL     1      -0.628  11.501  19.323  0.00  0.00    +0.000 C 
ATOM     19  C   UNL     1      -1.575  12.135  20.358  0.00  0.00    +0.000 C 
ATOM     20  C   UNL     1       0.299  12.591  18.753  0.00  0.00    +0.000 C 
ATOM     21  C   UNL     1      -1.482  10.954  18.155  0.00  0.00    +0.000 C 
ENDBRANCH   6  18
TORSDOF 3
ENDMDL
