MODEL 1
REMARK VINA RESULT:      -7.4      0.000      0.000
REMARK  Name = 
REMARK  6 active torsions:
REMARK  status: ('A' for Active; 'I' for Inactive)
REMARK    1  A    between atoms: C_1  and  C_2
REMARK    2  A    between atoms: C_6  and  C_7
REMARK    3  A    between atoms: C_11  and  C_12
REMARK    4  A    between atoms: C_11  and  C_13
REMARK    5  A    between atoms: C_14  and  C_15
REMARK    6  A    between atoms: C_14  and  O_16
REMARK                            x       y       z     vdW  Elec       q    Type
REMARK                         _______ _______ _______ _____ _____    ______ ____
ROOT
ATOM      1  C   UNL     1       4.225   5.860  17.110  0.00  0.00    +0.000 C 
ATOM      2  O   UNL     1       3.781   6.994  17.286  0.00  0.00    +0.000 OA
ATOM      3  N   UNL     1       3.562   4.741  17.610  0.00  0.00    +0.000 N 
ATOM      4  C   UNL     1       2.242   4.818  18.207  0.00  0.00    +0.000 C 
ATOM      5  C   UNL     1       2.266   3.826  19.386  0.00  0.00    +0.000 C 
ATOM      6  C   UNL     1       0.861   3.259  19.642  0.00  0.00    +0.000 C 
ATOM      7  C   UNL     1       2.728   4.578  20.649  0.00  0.00    +0.000 C 
ATOM      8  C   UNL     1       3.285   2.743  18.901  0.00  0.00    +0.000 C 
ATOM      9  C   UNL     1       4.080   2.048  20.006  0.00  0.00    +0.000 C 
ATOM     10  C   UNL     1       4.233   3.492  17.946  0.00  0.00    +0.000 C 
ENDROOT
BRANCH   1  16
ATOM     11  C   UNL     1       7.390   6.607  17.801  0.00  0.00    +0.000 C 
ATOM     12  C   UNL     1       6.780   5.937  16.632  0.00  0.00    +0.000 A 
ATOM     13  N   UNL     1       7.567   5.502  15.587  0.00  0.00    +0.000 NA
ATOM     14  C   UNL     1       6.709   4.963  14.756  0.00  0.00    +0.000 A 
ATOM     15  O   UNL     1       5.418   4.987  15.168  0.00  0.00    +0.000 OA
ATOM     16  C   UNL     1       5.455   5.617  16.389  0.00  0.00    +0.000 A 
ENDBRANCH   1  16
BRANCH   8  17
ATOM     17  O   UNL     1       2.612   1.709  18.171  0.00  0.00    +0.000 OA
ATOM     18  H   UNL     1       2.063   2.125  17.482  0.00  0.00    +0.000 HD
ENDBRANCH   8  17
TORSDOF 2
ENDMDL
MODEL 2
REMARK VINA RESULT:      -7.2      1.025      1.558
REMARK  Name = 
REMARK  6 active torsions:
REMARK  status: ('A' for Active; 'I' for Inactive)
REMARK    1  A    between atoms: C_1  and  C_2
REMARK    2  A    between atoms: C_6  and  C_7
REMARK    3  A    between atoms: C_11  and  C_12
REMARK    4  A    between atoms: C_11  and  C_13
REMARK    5  A    between atoms: C_14  and  C_15
REMARK    6  A    between atoms: C_14  and  O_16
REMARK                            x       y       z     vdW  Elec       q    Type
REMARK                         _______ _______ _______ _____ _____    ______ ____
ROOT
ATOM      1  C   UNL     1       3.936   6.050  17.470  0.00  0.00    +0.000 C 
ATOM      2  O   UNL     1       3.214   7.046  17.514  0.00  0.00    +0.000 OA
ATOM      3  N   UNL     1       3.447   4.789  17.804  0.00  0.00    +0.000 N 
ATOM      4  C   UNL     1       2.040   4.539  18.052  0.00  0.00    +0.000 C 
ATOM      5  C   UNL     1       2.001   3.527  19.213  0.00  0.00    +0.000 C 
ATOM      6  C   UNL     1       0.746   2.645  19.119  0.00  0.00    +0.000 C 
ATOM      7  C   UNL     1       1.953   4.307  20.541  0.00  0.00    +0.000 C 
ATOM      8  C   UNL     1       3.329   2.725  19.013  0.00  0.00    +0.000 C 
ATOM      9  C   UNL     1       3.966   2.180  20.290  0.00  0.00    +0.000 C 
ATOM     10  C   UNL     1       4.284   3.711  18.313  0.00  0.00    +0.000 C 
ENDROOT
BRANCH   1  16
ATOM     11  C   UNL     1       5.568   4.904  14.809  0.00  0.00    +0.000 C 
ATOM     12  C   UNL     1       6.043   5.638  16.002  0.00  0.00    +0.000 A 
ATOM     13  N   UNL     1       7.377   5.958  16.139  0.00  0.00    +0.000 NA
ATOM     14  C   UNL     1       7.426   6.597  17.282  0.00  0.00    +0.000 A 
ATOM     15  O   UNL     1       6.234   6.744  17.909  0.00  0.00    +0.000 OA
ATOM     16  C   UNL     1       5.328   6.125  17.082  0.00  0.00    +0.000 A 
ENDBRANCH   1  16
BRANCH   8  17
ATOM     17  O   UNL     1       3.113   1.599  18.152  0.00  0.00    +0.000 OA
ATOM     18  H   UNL     1       3.625   1.732  17.334  0.00  0.00    +0.000 HD
ENDBRANCH   8  17
TORSDOF 2
ENDMDL
MODEL 3
REMARK VINA RESULT:      -7.2      1.745      1.982
REMARK  Name = 
REMARK  6 active torsions:
REMARK  status: ('A' for Active; 'I' for Inactive)
REMARK    1  A    between atoms: C_1  and  C_2
REMARK    2  A    between atoms: C_6  and  C_7
REMARK    3  A    between atoms: C_11  and  C_12
REMARK    4  A    between atoms: C_11  and  C_13
REMARK    5  A    between atoms: C_14  and  C_15
REMARK    6  A    between atoms: C_14  and  O_16
REMARK                            x       y       z     vdW  Elec       q    Type
REMARK                         _______ _______ _______ _____ _____    ______ ____
ROOT
ATOM      1  C   UNL     1       5.799   5.157  18.818  0.00  0.00    +0.000 C 
ATOM      2  O   UNL     1       6.401   5.293  19.883  0.00  0.00    +0.000 OA
ATOM      3  N   UNL     1       4.429   4.907  18.791  0.00  0.00    +0.000 N 
ATOM      4  C   UNL     1       3.602   4.962  19.982  0.00  0.00    +0.000 C 
ATOM      5  C   UNL     1       2.587   3.812  19.831  0.00  0.00    +0.000 C 
ATOM      6  C   UNL     1       1.274   4.154  20.553  0.00  0.00    +0.000 C 
ATOM      7  C   UNL     1       3.184   2.545  20.473  0.00  0.00    +0.000 C 
ATOM      8  C   UNL     1       2.423   3.703  18.279  0.00  0.00    +0.000 C 
ATOM      9  C   UNL     1       2.103   2.306  17.750  0.00  0.00    +0.000 C 
ATOM     10  C   UNL     1       3.761   4.203  17.703  0.00  0.00    +0.000 C 
ENDROOT
BRANCH   1  16
ATOM     11  C   UNL     1       7.536   7.593  17.367  0.00  0.00    +0.000 C 
ATOM     12  C   UNL     1       7.174   6.239  16.894  0.00  0.00    +0.000 A 
ATOM     13  N   UNL     1       7.576   5.805  15.649  0.00  0.00    +0.000 NA
ATOM     14  C   UNL     1       7.095   4.587  15.576  0.00  0.00    +0.000 A 
ATOM     15  O   UNL     1       6.421   4.170  16.675  0.00  0.00    +0.000 OA
ATOM     16  C   UNL     1       6.470   5.238  17.538  0.00  0.00    +0.000 A 
ENDBRANCH   1  16
BRANCH   8  17
ATOM     17  O   UNL     1       1.371   4.563  17.822  0.00  0.00    +0.000 OA
ATOM     18  H   UNL     1       1.680   5.485  17.876  0.00  0.00    +0.000 HD
ENDBRANCH   8  17
TORSDOF 2
ENDMDL
MODEL 4
REMARK VINA RESULT:      -7.1      1.372      1.806
REMARK  Name = 
REMARK  6 active torsions:
REMARK  status: ('A' for Active; 'I' for Inactive)
REMARK    1  A    between atoms: C_1  and  C_2
REMARK    2  A    between atoms: C_6  and  C_7
REMARK    3  A    between atoms: C_11  and  C_12
REMARK    4  A    between atoms: C_11  and  C_13
REMARK    5  A    between atoms: C_14  and  C_15
REMARK    6  A    between atoms: C_14  and  O_16
REMARK                            x       y       z     vdW  Elec       q    Type
REMARK                         _______ _______ _______ _____ _____    ______ ____
ROOT
ATOM      1  C   UNL     1       4.372   5.287  17.483  0.00  0.00    +0.000 C 
ATOM      2  O   UNL     1       3.904   6.378  17.160  0.00  0.00    +0.000 OA
ATOM      3  N   UNL     1       3.560   4.274  17.989  0.00  0.00    +0.000 N 
ATOM      4  C   UNL     1       2.112   4.370  18.004  0.00  0.00    +0.000 C 
ATOM      5  C   UNL     1       1.672   3.724  19.332  0.00  0.00    +0.000 C 
ATOM      6  C   UNL     1       0.273   3.103  19.192  0.00  0.00    +0.000 C 
ATOM      7  C   UNL     1       1.617   4.819  20.414  0.00  0.00    +0.000 C 
ATOM      8  C   UNL     1       2.792   2.660  19.582  0.00  0.00    +0.000 C 
ATOM      9  C   UNL     1       3.093   2.358  21.049  0.00  0.00    +0.000 C 
ATOM     10  C   UNL     1       4.041   3.228  18.882  0.00  0.00    +0.000 C 
ENDROOT
BRANCH   1  16
ATOM     11  C   UNL     1       6.183   3.985  15.017  0.00  0.00    +0.000 C 
ATOM     12  C   UNL     1       6.563   4.428  16.376  0.00  0.00    +0.000 A 
ATOM     13  N   UNL     1       7.871   4.331  16.801  0.00  0.00    +0.000 NA
ATOM     14  C   UNL     1       7.837   4.812  18.020  0.00  0.00    +0.000 A 
ATOM     15  O   UNL     1       6.618   5.236  18.436  0.00  0.00    +0.000 OA
ATOM     16  C   UNL     1       5.784   4.992  17.371  0.00  0.00    +0.000 A 
ENDBRANCH   1  16
BRANCH   8  17
ATOM     17  O   UNL     1       2.445   1.410  18.971  0.00  0.00    +0.000 OA
ATOM     18  H   UNL     1       1.477   1.313  18.996  0.00  0.00    +0.000 HD
ENDBRANCH   8  17
TORSDOF 2
ENDMDL
MODEL 5
REMARK VINA RESULT:      -6.9      1.955      5.247
REMARK  Name = 
REMARK  6 active torsions:
REMARK  status: ('A' for Active; 'I' for Inactive)
REMARK    1  A    between atoms: C_1  and  C_2
REMARK    2  A    between atoms: C_6  and  C_7
REMARK    3  A    between atoms: C_11  and  C_12
REMARK    4  A    between atoms: C_11  and  C_13
REMARK    5  A    between atoms: C_14  and  C_15
REMARK    6  A    between atoms: C_14  and  O_16
REMARK                            x       y       z     vdW  Elec       q    Type
REMARK                         _______ _______ _______ _____ _____    ______ ____
ROOT
ATOM      1  C   UNL     1       2.691   5.421  18.693  0.00  0.00    +0.000 C 
ATOM      2  O   UNL     1       2.161   6.531  18.727  0.00  0.00    +0.000 OA
ATOM      3  N   UNL     1       4.034   5.273  18.353  0.00  0.00    +0.000 N 
ATOM      4  C   UNL     1       4.927   6.406  18.189  0.00  0.00    +0.000 C 
ATOM      5  C   UNL     1       5.839   6.041  17.002  0.00  0.00    +0.000 C 
ATOM      6  C   UNL     1       7.212   6.715  17.151  0.00  0.00    +0.000 C 
ATOM      7  C   UNL     1       5.181   6.550  15.705  0.00  0.00    +0.000 C 
ATOM      8  C   UNL     1       5.909   4.481  17.091  0.00  0.00    +0.000 C 
ATOM      9  C   UNL     1       6.089   3.755  15.759  0.00  0.00    +0.000 C 
ATOM     10  C   UNL     1       4.584   4.063  17.757  0.00  0.00    +0.000 C 
ENDROOT
BRANCH   1  16
ATOM     11  C   UNL     1       2.209   3.757  21.530  0.00  0.00    +0.000 C 
ATOM     12  C   UNL     1       1.762   3.477  20.149  0.00  0.00    +0.000 A 
ATOM     13  N   UNL     1       1.006   2.358  19.873  0.00  0.00    +0.000 NA
ATOM     14  C   UNL     1       0.793   2.438  18.582  0.00  0.00    +0.000 A 
ATOM     15  O   UNL     1       1.329   3.527  17.979  0.00  0.00    +0.000 OA
ATOM     16  C   UNL     1       1.960   4.209  18.992  0.00  0.00    +0.000 A 
ENDBRANCH   1  16
BRANCH   8  17
ATOM     17  O   UNL     1       6.998   4.072  17.929  0.00  0.00    +0.000 OA
ATOM     18  H   UNL     1       6.801   4.341  18.844  0.00  0.00    +0.000 HD
ENDBRANCH   8  17
TORSDOF 2
ENDMDL
MODEL 6
REMARK VINA RESULT:      -6.8      1.994      2.742
REMARK  Name = 
REMARK  6 active torsions:
REMARK  status: ('A' for Active; 'I' for Inactive)
REMARK    1  A    between atoms: C_1  and  C_2
REMARK    2  A    between atoms: C_6  and  C_7
REMARK    3  A    between atoms: C_11  and  C_12
REMARK    4  A    between atoms: C_11  and  C_13
REMARK    5  A    between atoms: C_14  and  C_15
REMARK    6  A    between atoms: C_14  and  O_16
REMARK                            x       y       z     vdW  Elec       q    Type
REMARK                         _______ _______ _______ _____ _____    ______ ____
ROOT
ATOM      1  C   UNL     1       5.373   4.270  17.423  0.00  0.00    +0.000 C 
ATOM      2  O   UNL     1       5.348   3.958  16.233  0.00  0.00    +0.000 OA
ATOM      3  N   UNL     1       4.382   3.840  18.303  0.00  0.00    +0.000 N 
ATOM      4  C   UNL     1       3.370   2.871  17.924  0.00  0.00    +0.000 C 
ATOM      5  C   UNL     1       2.072   3.344  18.607  0.00  0.00    +0.000 C 
ATOM      6  C   UNL     1       1.160   2.147  18.920  0.00  0.00    +0.000 C 
ATOM      7  C   UNL     1       1.329   4.288  17.643  0.00  0.00    +0.000 C 
ATOM      8  C   UNL     1       2.604   4.062  19.892  0.00  0.00    +0.000 C 
ATOM      9  C   UNL     1       1.744   5.217  20.401  0.00  0.00    +0.000 C 
ATOM     10  C   UNL     1       4.010   4.563  19.511  0.00  0.00    +0.000 C 
ENDROOT
BRANCH   1  16
ATOM     11  C   UNL     1       6.126   7.478  16.981  0.00  0.00    +0.000 C 
ATOM     12  C   UNL     1       6.774   6.429  17.797  0.00  0.00    +0.000 A 
ATOM     13  N   UNL     1       7.893   6.720  18.547  0.00  0.00    +0.000 NA
ATOM     14  C   UNL     1       8.180   5.582  19.131  0.00  0.00    +0.000 A 
ATOM     15  O   UNL     1       7.335   4.561  18.844  0.00  0.00    +0.000 OA
ATOM     16  C   UNL     1       6.416   5.105  17.979  0.00  0.00    +0.000 A 
ENDBRANCH   1  16
BRANCH   8  17
ATOM     17  O   UNL     1       2.721   3.131  20.976  0.00  0.00    +0.000 OA
ATOM     18  H   UNL     1       2.760   3.632  21.810  0.00  0.00    +0.000 HD
ENDBRANCH   8  17
TORSDOF 2
ENDMDL
MODEL 7
REMARK VINA RESULT:      -6.7      2.253      5.482
REMARK  Name = 
REMARK  6 active torsions:
REMARK  status: ('A' for Active; 'I' for Inactive)
REMARK    1  A    between atoms: C_1  and  C_2
REMARK    2  A    between atoms: C_6  and  C_7
REMARK    3  A    between atoms: C_11  and  C_12
REMARK    4  A    between atoms: C_11  and  C_13
REMARK    5  A    between atoms: C_14  and  C_15
REMARK    6  A    between atoms: C_14  and  O_16
REMARK                            x       y       z     vdW  Elec       q    Type
REMARK                         _______ _______ _______ _____ _____    ______ ____
ROOT
ATOM      1  C   UNL     1       3.145   5.625  19.599  0.00  0.00    +0.000 C 
ATOM      2  O   UNL     1       2.665   6.755  19.694  0.00  0.00    +0.000 OA
ATOM      3  N   UNL     1       4.385   5.417  18.999  0.00  0.00    +0.000 N 
ATOM      4  C   UNL     1       5.258   6.510  18.613  0.00  0.00    +0.000 C 
ATOM      5  C   UNL     1       5.898   6.073  17.281  0.00  0.00    +0.000 C 
ATOM      6  C   UNL     1       7.292   6.701  17.122  0.00  0.00    +0.000 C 
ATOM      7  C   UNL     1       5.005   6.562  16.125  0.00  0.00    +0.000 C 
ATOM      8  C   UNL     1       5.940   4.515  17.416  0.00  0.00    +0.000 C 
ATOM      9  C   UNL     1       5.824   3.739  16.105  0.00  0.00    +0.000 C 
ATOM     10  C   UNL     1       4.767   4.168  18.353  0.00  0.00    +0.000 C 
ENDROOT
BRANCH   1  16
ATOM     11  C   UNL     1       1.207   3.392  18.079  0.00  0.00    +0.000 C 
ATOM     12  C   UNL     1       1.622   3.520  19.493  0.00  0.00    +0.000 A 
ATOM     13  N   UNL     1       1.191   2.608  20.432  0.00  0.00    +0.000 NA
ATOM     14  C   UNL     1       1.749   3.021  21.544  0.00  0.00    +0.000 A 
ATOM     15  O   UNL     1       2.531   4.122  21.419  0.00  0.00    +0.000 OA
ATOM     16  C   UNL     1       2.455   4.451  20.087  0.00  0.00    +0.000 A 
ENDBRANCH   1  16
BRANCH   8  17
ATOM     17  O   UNL     1       7.165   4.095  18.032  0.00  0.00    +0.000 OA
ATOM     18  H   UNL     1       7.039   4.089  18.997  0.00  0.00    +0.000 HD
ENDBRANCH   8  17
TORSDOF 2
ENDMDL
MODEL 8
REMARK VINA RESULT:      -6.7      1.663      5.702
REMARK  Name = 
REMARK  6 active torsions:
REMARK  status: ('A' for Active; 'I' for Inactive)
REMARK    1  A    between atoms: C_1  and  C_2
REMARK    2  A    between atoms: C_6  and  C_7
REMARK    3  A    between atoms: C_11  and  C_12
REMARK    4  A    between atoms: C_11  and  C_13
REMARK    5  A    between atoms: C_14  and  C_15
REMARK    6  A    between atoms: C_14  and  O_16
REMARK                            x       y       z     vdW  Elec       q    Type
REMARK                         _______ _______ _______ _____ _____    ______ ____
ROOT
ATOM      1  C   UNL     1       3.852   3.368  18.347  0.00  0.00    +0.000 C 
ATOM      2  O   UNL     1       4.185   2.185  18.416  0.00  0.00    +0.000 OA
ATOM      3  N   UNL     1       4.433   4.229  17.419  0.00  0.00    +0.000 N 
ATOM      4  C   UNL     1       5.325   3.761  16.374  0.00  0.00    +0.000 C 
ATOM      5  C   UNL     1       6.413   4.845  16.248  0.00  0.00    +0.000 C 
ATOM      6  C   UNL     1       6.960   4.896  14.813  0.00  0.00    +0.000 C 
ATOM      7  C   UNL     1       7.571   4.491  17.202  0.00  0.00    +0.000 C 
ATOM      8  C   UNL     1       5.649   6.147  16.659  0.00  0.00    +0.000 C 
ATOM      9  C   UNL     1       6.500   7.225  17.327  0.00  0.00    +0.000 C 
ATOM     10  C   UNL     1       4.538   5.669  17.613  0.00  0.00    +0.000 C 
ENDROOT
BRANCH   1  16
ATOM     11  C   UNL     1       0.637   2.659  18.812  0.00  0.00    +0.000 C 
ATOM     12  C   UNL     1       1.506   3.688  19.423  0.00  0.00    +0.000 A 
ATOM     13  N   UNL     1       1.000   4.560  20.364  0.00  0.00    +0.000 NA
ATOM     14  C   UNL     1       2.031   5.305  20.681  0.00  0.00    +0.000 A 
ATOM     15  O   UNL     1       3.185   4.990  20.043  0.00  0.00    +0.000 OA
ATOM     16  C   UNL     1       2.852   3.938  19.224  0.00  0.00    +0.000 A 
ENDBRANCH   1  16
BRANCH   8  17
ATOM     17  O   UNL     1       5.043   6.758  15.512  0.00  0.00    +0.000 OA
ATOM     18  H   UNL     1       5.599   7.506  15.231  0.00  0.00    +0.000 HD
ENDBRANCH   8  17
TORSDOF 2
ENDMDL
MODEL 9
REMARK VINA RESULT:      -6.5      1.993      2.863
REMARK  Name = 
REMARK  6 active torsions:
REMARK  status: ('A' for Active; 'I' for Inactive)
REMARK    1  A    between atoms: C_1  and  C_2
REMARK    2  A    between atoms: C_6  and  C_7
REMARK    3  A    between atoms: C_11  and  C_12
REMARK    4  A    between atoms: C_11  and  C_13
REMARK    5  A    between atoms: C_14  and  C_15
REMARK    6  A    between atoms: C_14  and  O_16
REMARK                            x       y       z     vdW  Elec       q    Type
REMARK                         _______ _______ _______ _____ _____    ______ ____
ROOT
ATOM      1  C   UNL     1       5.678   4.807  17.486  0.00  0.00    +0.000 C 
ATOM      2  O   UNL     1       5.747   4.067  16.504  0.00  0.00    +0.000 OA
ATOM      3  N   UNL     1       4.698   4.625  18.459  0.00  0.00    +0.000 N 
ATOM      4  C   UNL     1       3.820   3.470  18.475  0.00  0.00    +0.000 C 
ATOM      5  C   UNL     1       2.445   4.006  18.921  0.00  0.00    +0.000 C 
ATOM      6  C   UNL     1       1.657   2.915  19.663  0.00  0.00    +0.000 C 
ATOM      7  C   UNL     1       1.650   4.418  17.667  0.00  0.00    +0.000 C 
ATOM      8  C   UNL     1       2.830   5.214  19.837  0.00  0.00    +0.000 C 
ATOM      9  C   UNL     1       1.824   6.363  19.864  0.00  0.00    +0.000 C 
ATOM     10  C   UNL     1       4.189   5.701  19.300  0.00  0.00    +0.000 C 
ENDROOT
BRANCH   1  16
ATOM     11  C   UNL     1       8.041   5.350  19.760  0.00  0.00    +0.000 C 
ATOM     12  C   UNL     1       7.566   6.180  18.632  0.00  0.00    +0.000 A 
ATOM     13  N   UNL     1       8.132   7.413  18.385  0.00  0.00    +0.000 NA
ATOM     14  C   UNL     1       7.483   7.845  17.331  0.00  0.00    +0.000 A 
ATOM     15  O   UNL     1       6.545   6.996  16.846  0.00  0.00    +0.000 OA
ATOM     16  C   UNL     1       6.594   5.909  17.685  0.00  0.00    +0.000 A 
ENDBRANCH   1  16
BRANCH   8  17
ATOM     17  O   UNL     1       2.995   4.784  21.195  0.00  0.00    +0.000 OA
ATOM     18  H   UNL     1       2.217   4.256  21.449  0.00  0.00    +0.000 HD
ENDBRANCH   8  17
TORSDOF 2
ENDMDL
