MODEL 1
REMARK VINA RESULT:      -8.5      0.000      0.000
REMARK  Name = 
REMARK  8 active torsions:
REMARK  status: ('A' for Active; 'I' for Inactive)
REMARK    1  A    between atoms: C_1  and  C_2
REMARK    2  A    between atoms: C_5  and  O_6
REMARK    3  A    between atoms: O_6  and  C_7
REMARK    4  A    between atoms: C_9  and  C_10
REMARK    5  A    between atoms: C_10  and  O_11
REMARK    6  A    between atoms: C_10  and  C_12
REMARK    7  A    between atoms: C_12  and  C_13
REMARK    8  A    between atoms: C_21  and  C_22
REMARK                            x       y       z     vdW  Elec       q    Type
REMARK                         _______ _______ _______ _____ _____    ______ ____
ROOT
ATOM      1  C   UNL     1       2.923   8.142  18.030  0.00  0.00    +0.000 A 
ATOM      2  C   UNL     1       3.386   7.297  17.036  0.00  0.00    +0.000 A 
ATOM      3  C   UNL     1       3.721   6.016  17.460  0.00  0.00    +0.000 A 
ATOM      4  C   UNL     1       2.742   5.514  18.312  0.00  0.00    +0.000 A 
ATOM      5  C   UNL     1       2.131   4.246  18.150  0.00  0.00    +0.000 A 
ATOM      6  C   UNL     1       1.312   3.767  19.155  0.00  0.00    +0.000 A 
ATOM      7  C   UNL     1       0.469   2.543  18.936  0.00  0.00    +0.000 C 
ATOM      8  C   UNL     1       1.288   4.439  20.379  0.00  0.00    +0.000 A 
ATOM      9  C   UNL     1       1.816   5.730  20.476  0.00  0.00    +0.000 A 
ATOM     10  C   UNL     1       2.393   6.350  19.371  0.00  0.00    +0.000 A 
ATOM     11  N   UNL     1       2.579   7.687  19.263  0.00  0.00    +0.000 NA
ENDROOT
BRANCH   1  12
ATOM     12  O   UNL     1       2.571   9.426  17.667  0.00  0.00    +0.000 OA
BRANCH  12  17
ATOM     13  C   UNL     1      -2.312  11.775  19.420  0.00  0.00    +0.000 C 
ATOM     14  C   UNL     1      -1.048  11.121  18.944  0.00  0.00    +0.000 A 
ATOM     15  C   UNL     1      -1.084   9.995  18.112  0.00  0.00    +0.000 A 
ATOM     16  C   UNL     1       0.099   9.390  17.664  0.00  0.00    +0.000 A 
ATOM     17  C   UNL     1       1.336   9.907  18.043  0.00  0.00    +0.000 A 
ATOM     18  C   UNL     1       1.376  11.027  18.883  0.00  0.00    +0.000 A 
ATOM     19  C   UNL     1       0.196  11.632  19.329  0.00  0.00    +0.000 A 
ENDBRANCH  12  17
ENDBRANCH   1  12
BRANCH   3  20
ATOM     20  C   UNL     1       5.152   5.996  18.179  0.00  0.00    +0.000 C 
BRANCH  20  21
ATOM     21  O   UNL     1       5.110   5.342  19.463  0.00  0.00    +0.000 OA
ATOM     22  H   UNL     1       4.937   6.018  20.138  0.00  0.00    +0.000 HD
ENDBRANCH  20  21
BRANCH  20  23
ATOM     23  C   UNL     1       6.280   5.304  17.430  0.00  0.00    +0.000 C 
BRANCH  23  24
ATOM     24  C   UNL     1       6.223   5.303  15.901  0.00  0.00    +0.000 C 
ATOM     25  C   UNL     1       5.471   4.026  15.482  0.00  0.00    +0.000 C 
ATOM     26  C   UNL     1       5.370   3.902  13.970  0.00  0.00    +0.000 C 
ATOM     27  C   UNL     1       6.752   4.022  13.340  0.00  0.00    +0.000 C 
ATOM     28  C   UNL     1       7.465   5.283  13.817  0.00  0.00    +0.000 C 
ATOM     29  N   UNL     1       7.553   5.321  15.279  0.00  0.00    +0.000 NA
ATOM     30  H   UNL     1       8.074   6.157  15.547  0.00  0.00    +0.000 HD
ENDBRANCH  23  24
ENDBRANCH  20  23
ENDBRANCH   3  20
TORSDOF 6
ENDMDL
MODEL 2
REMARK VINA RESULT:      -8.2      1.536      1.712
REMARK  Name = 
REMARK  8 active torsions:
REMARK  status: ('A' for Active; 'I' for Inactive)
REMARK    1  A    between atoms: C_1  and  C_2
REMARK    2  A    between atoms: C_5  and  O_6
REMARK    3  A    between atoms: O_6  and  C_7
REMARK    4  A    between atoms: C_9  and  C_10
REMARK    5  A    between atoms: C_10  and  O_11
REMARK    6  A    between atoms: C_10  and  C_12
REMARK    7  A    between atoms: C_12  and  C_13
REMARK    8  A    between atoms: C_21  and  C_22
REMARK                            x       y       z     vdW  Elec       q    Type
REMARK                         _______ _______ _______ _____ _____    ______ ____
ROOT
ATOM      1  C   UNL     1       2.279   7.841  18.966  0.00  0.00    +0.000 A 
ATOM      2  C   UNL     1       2.758   7.312  17.781  0.00  0.00    +0.000 A 
ATOM      3  C   UNL     1       3.281   6.027  17.876  0.00  0.00    +0.000 A 
ATOM      4  C   UNL     1       2.444   5.217  18.637  0.00  0.00    +0.000 A 
ATOM      5  C   UNL     1       1.981   3.945  18.217  0.00  0.00    +0.000 A 
ATOM      6  C   UNL     1       1.313   3.145  19.123  0.00  0.00    +0.000 A 
ATOM      7  C   UNL     1       0.611   1.898  18.670  0.00  0.00    +0.000 C 
ATOM      8  C   UNL     1       1.308   3.516  20.470  0.00  0.00    +0.000 A 
ATOM      9  C   UNL     1       1.681   4.812  20.837  0.00  0.00    +0.000 A 
ATOM     10  C   UNL     1       2.085   5.738  19.879  0.00  0.00    +0.000 A 
ATOM     11  N   UNL     1       2.096   7.077  20.076  0.00  0.00    +0.000 NA
ENDROOT
BRANCH   1  12
ATOM     12  O   UNL     1       1.744   9.112  18.932  0.00  0.00    +0.000 OA
BRANCH  12  17
ATOM     13  C   UNL     1      -1.477  11.211  23.134  0.00  0.00    +0.000 C 
ATOM     14  C   UNL     1      -0.602  10.639  22.056  0.00  0.00    +0.000 A 
ATOM     15  C   UNL     1       0.362   9.666  22.348  0.00  0.00    +0.000 A 
ATOM     16  C   UNL     1       1.174   9.129  21.338  0.00  0.00    +0.000 A 
ATOM     17  C   UNL     1       1.030   9.561  20.021  0.00  0.00    +0.000 A 
ATOM     18  C   UNL     1       0.073  10.541  19.728  0.00  0.00    +0.000 A 
ATOM     19  C   UNL     1      -0.739  11.076  20.734  0.00  0.00    +0.000 A 
ENDBRANCH  12  17
ENDBRANCH   1  12
BRANCH   3  20
ATOM     20  C   UNL     1       4.758   6.044  18.495  0.00  0.00    +0.000 C 
BRANCH  20  21
ATOM     21  O   UNL     1       4.783   5.589  19.862  0.00  0.00    +0.000 OA
ATOM     22  H   UNL     1       4.588   6.349  20.435  0.00  0.00    +0.000 HD
ENDBRANCH  20  21
BRANCH  20  23
ATOM     23  C   UNL     1       5.802   5.195  17.786  0.00  0.00    +0.000 C 
BRANCH  23  24
ATOM     24  C   UNL     1       5.885   5.294  16.262  0.00  0.00    +0.000 C 
ATOM     25  C   UNL     1       5.163   4.058  15.693  0.00  0.00    +0.000 C 
ATOM     26  C   UNL     1       5.199   4.034  14.174  0.00  0.00    +0.000 C 
ATOM     27  C   UNL     1       6.633   4.175  13.680  0.00  0.00    +0.000 C 
ATOM     28  C   UNL     1       7.310   5.392  14.301  0.00  0.00    +0.000 C 
ATOM     29  N   UNL     1       7.266   5.334  15.765  0.00  0.00    +0.000 NA
ATOM     30  H   UNL     1       7.767   6.143  16.133  0.00  0.00    +0.000 HD
ENDBRANCH  23  24
ENDBRANCH  20  23
ENDBRANCH   3  20
TORSDOF 6
ENDMDL
MODEL 3
REMARK VINA RESULT:      -8.2      2.348      5.021
REMARK  Name = 
REMARK  8 active torsions:
REMARK  status: ('A' for Active; 'I' for Inactive)
REMARK    1  A    between atoms: C_1  and  C_2
REMARK    2  A    between atoms: C_5  and  O_6
REMARK    3  A    between atoms: O_6  and  C_7
REMARK    4  A    between atoms: C_9  and  C_10
REMARK    5  A    between atoms: C_10  and  O_11
REMARK    6  A    between atoms: C_10  and  C_12
REMARK    7  A    between atoms: C_12  and  C_13
REMARK    8  A    between atoms: C_21  and  C_22
REMARK                            x       y       z     vdW  Elec       q    Type
REMARK                         _______ _______ _______ _____ _____    ______ ____
ROOT
ATOM      1  C   UNL     1       2.643   7.632  17.995  0.00  0.00    +0.000 A 
ATOM      2  C   UNL     1       2.476   6.571  18.868  0.00  0.00    +0.000 A 
ATOM      3  C   UNL     1       3.328   5.493  18.655  0.00  0.00    +0.000 A 
ATOM      4  C   UNL     1       4.628   5.936  18.441  0.00  0.00    +0.000 A 
ATOM      5  C   UNL     1       5.757   5.436  19.138  0.00  0.00    +0.000 A 
ATOM      6  C   UNL     1       7.019   5.807  18.716  0.00  0.00    +0.000 A 
ATOM      7  C   UNL     1       8.228   5.491  19.550  0.00  0.00    +0.000 C 
ATOM      8  C   UNL     1       7.150   6.476  17.497  0.00  0.00    +0.000 A 
ATOM      9  C   UNL     1       6.026   7.039  16.886  0.00  0.00    +0.000 A 
ATOM     10  C   UNL     1       4.765   6.921  17.464  0.00  0.00    +0.000 A 
ATOM     11  N   UNL     1       3.717   7.724  17.167  0.00  0.00    +0.000 NA
ENDROOT
BRANCH   1  12
ATOM     12  O   UNL     1       1.828   8.733  18.161  0.00  0.00    +0.000 OA
BRANCH  12  17
ATOM     13  C   UNL     1      -0.688  10.043  23.099  0.00  0.00    +0.000 C 
ATOM     14  C   UNL     1       0.007   9.677  21.820  0.00  0.00    +0.000 A 
ATOM     15  C   UNL     1       1.039   8.730  21.802  0.00  0.00    +0.000 A 
ATOM     16  C   UNL     1       1.682   8.386  20.604  0.00  0.00    +0.000 A 
ATOM     17  C   UNL     1       1.298   8.986  19.406  0.00  0.00    +0.000 A 
ATOM     18  C   UNL     1       0.272   9.939  19.423  0.00  0.00    +0.000 A 
ATOM     19  C   UNL     1      -0.371  10.282  20.617  0.00  0.00    +0.000 A 
ENDBRANCH  12  17
ENDBRANCH   1  12
BRANCH   3  20
ATOM     20  C   UNL     1       2.833   4.593  17.426  0.00  0.00    +0.000 C 
BRANCH  20  21
ATOM     21  O   UNL     1       3.916   3.875  16.803  0.00  0.00    +0.000 OA
ATOM     22  H   UNL     1       3.820   2.934  17.027  0.00  0.00    +0.000 HD
ENDBRANCH  20  21
BRANCH  20  23
ATOM     23  C   UNL     1       1.792   3.529  17.738  0.00  0.00    +0.000 C 
BRANCH  23  24
ATOM     24  C   UNL     1       1.935   2.756  19.051  0.00  0.00    +0.000 C 
ATOM     25  C   UNL     1       0.993   3.427  20.069  0.00  0.00    +0.000 C 
ATOM     26  C   UNL     1       1.066   2.754  21.430  0.00  0.00    +0.000 C 
ATOM     27  C   UNL     1       2.511   2.680  21.904  0.00  0.00    +0.000 C 
ATOM     28  C   UNL     1       3.404   2.043  20.844  0.00  0.00    +0.000 C 
ATOM     29  N   UNL     1       3.309   2.759  19.570  0.00  0.00    +0.000 NA
ATOM     30  H   UNL     1       3.953   2.324  18.909  0.00  0.00    +0.000 HD
ENDBRANCH  23  24
ENDBRANCH  20  23
ENDBRANCH   3  20
TORSDOF 6
ENDMDL
MODEL 4
REMARK VINA RESULT:      -8.1      0.696      1.057
REMARK  Name = 
REMARK  8 active torsions:
REMARK  status: ('A' for Active; 'I' for Inactive)
REMARK    1  A    between atoms: C_1  and  C_2
REMARK    2  A    between atoms: C_5  and  O_6
REMARK    3  A    between atoms: O_6  and  C_7
REMARK    4  A    between atoms: C_9  and  C_10
REMARK    5  A    between atoms: C_10  and  O_11
REMARK    6  A    between atoms: C_10  and  C_12
REMARK    7  A    between atoms: C_12  and  C_13
REMARK    8  A    between atoms: C_21  and  C_22
REMARK                            x       y       z     vdW  Elec       q    Type
REMARK                         _______ _______ _______ _____ _____    ______ ____
ROOT
ATOM      1  C   UNL     1       2.867   8.044  18.084  0.00  0.00    +0.000 A 
ATOM      2  C   UNL     1       3.499   7.180  17.207  0.00  0.00    +0.000 A 
ATOM      3  C   UNL     1       3.839   5.941  17.741  0.00  0.00    +0.000 A 
ATOM      4  C   UNL     1       2.782   5.426  18.484  0.00  0.00    +0.000 A 
ATOM      5  C   UNL     1       2.262   4.118  18.315  0.00  0.00    +0.000 A 
ATOM      6  C   UNL     1       1.343   3.642  19.230  0.00  0.00    +0.000 A 
ATOM      7  C   UNL     1       0.599   2.364  18.971  0.00  0.00    +0.000 C 
ATOM      8  C   UNL     1       1.123   4.370  20.401  0.00  0.00    +0.000 A 
ATOM      9  C   UNL     1       1.568   5.692  20.495  0.00  0.00    +0.000 A 
ATOM     10  C   UNL     1       2.255   6.291  19.442  0.00  0.00    +0.000 A 
ATOM     11  N   UNL     1       2.386   7.629  19.286  0.00  0.00    +0.000 NA
ENDROOT
BRANCH   1  12
ATOM     12  O   UNL     1       2.501   9.286  17.609  0.00  0.00    +0.000 OA
BRANCH  12  17
ATOM     13  C   UNL     1      -1.995  12.039  19.764  0.00  0.00    +0.000 C 
ATOM     14  C   UNL     1      -0.836  11.281  19.185  0.00  0.00    +0.000 A 
ATOM     15  C   UNL     1      -1.039  10.148  18.386  0.00  0.00    +0.000 A 
ATOM     16  C   UNL     1       0.045   9.444  17.842  0.00  0.00    +0.000 A 
ATOM     17  C   UNL     1       1.349   9.868  18.089  0.00  0.00    +0.000 A 
ATOM     18  C   UNL     1       1.556  10.995  18.895  0.00  0.00    +0.000 A 
ATOM     19  C   UNL     1       0.475  11.698  19.438  0.00  0.00    +0.000 A 
ENDBRANCH  12  17
ENDBRANCH   1  12
BRANCH   3  20
ATOM     20  C   UNL     1       5.161   6.038  18.640  0.00  0.00    +0.000 C 
BRANCH  20  21
ATOM     21  O   UNL     1       5.306   4.907  19.521  0.00  0.00    +0.000 OA
ATOM     22  H   UNL     1       4.462   4.777  19.984  0.00  0.00    +0.000 HD
ENDBRANCH  20  21
BRANCH  20  23
ATOM     23  C   UNL     1       6.484   6.120  17.895  0.00  0.00    +0.000 C 
BRANCH  23  24
ATOM     24  C   UNL     1       6.733   5.113  16.771  0.00  0.00    +0.000 C 
ATOM     25  C   UNL     1       6.778   5.915  15.455  0.00  0.00    +0.000 C 
ATOM     26  C   UNL     1       6.999   5.011  14.253  0.00  0.00    +0.000 C 
ATOM     27  C   UNL     1       5.968   3.890  14.241  0.00  0.00    +0.000 C 
ATOM     28  C   UNL     1       5.940   3.156  15.578  0.00  0.00    +0.000 C 
ATOM     29  N   UNL     1       5.692   4.081  16.686  0.00  0.00    +0.000 NA
ATOM     30  H   UNL     1       5.640   3.540  17.550  0.00  0.00    +0.000 HD
ENDBRANCH  23  24
ENDBRANCH  20  23
ENDBRANCH   3  20
TORSDOF 6
ENDMDL
MODEL 5
REMARK VINA RESULT:      -7.8      1.929      7.272
REMARK  Name = 
REMARK  8 active torsions:
REMARK  status: ('A' for Active; 'I' for Inactive)
REMARK    1  A    between atoms: C_1  and  C_2
REMARK    2  A    between atoms: C_5  and  O_6
REMARK    3  A    between atoms: O_6  and  C_7
REMARK    4  A    between atoms: C_9  and  C_10
REMARK    5  A    between atoms: C_10  and  O_11
REMARK    6  A    between atoms: C_10  and  C_12
REMARK    7  A    between atoms: C_12  and  C_13
REMARK    8  A    between atoms: C_21  and  C_22
REMARK                            x       y       z     vdW  Elec       q    Type
REMARK                         _______ _______ _______ _____ _____    ______ ____
ROOT
ATOM      1  C   UNL     1       4.993   3.843  16.775  0.00  0.00    +0.000 A 
ATOM      2  C   UNL     1       5.545   4.498  17.861  0.00  0.00    +0.000 A 
ATOM      3  C   UNL     1       4.634   5.161  18.676  0.00  0.00    +0.000 A 
ATOM      4  C   UNL     1       3.525   4.358  18.919  0.00  0.00    +0.000 A 
ATOM      5  C   UNL     1       3.007   4.097  20.212  0.00  0.00    +0.000 A 
ATOM      6  C   UNL     1       1.795   3.445  20.327  0.00  0.00    +0.000 A 
ATOM      7  C   UNL     1       1.317   2.948  21.661  0.00  0.00    +0.000 C 
ATOM      8  C   UNL     1       1.020   3.262  19.179  0.00  0.00    +0.000 A 
ATOM      9  C   UNL     1       1.593   3.436  17.916  0.00  0.00    +0.000 A 
ATOM     10  C   UNL     1       2.926   3.817  17.782  0.00  0.00    +0.000 A 
ATOM     11  N   UNL     1       3.654   3.646  16.654  0.00  0.00    +0.000 NA
ENDROOT
BRANCH   1  12
ATOM     12  O   UNL     1       5.848   3.163  15.932  0.00  0.00    +0.000 OA
BRANCH  12  17
ATOM     13  C   UNL     1       7.955   5.998  11.465  0.00  0.00    +0.000 C 
ATOM     14  C   UNL     1       7.371   5.232  12.616  0.00  0.00    +0.000 A 
ATOM     15  C   UNL     1       6.488   4.165  12.401  0.00  0.00    +0.000 A 
ATOM     16  C   UNL     1       5.948   3.448  13.479  0.00  0.00    +0.000 A 
ATOM     17  C   UNL     1       6.288   3.788  14.787  0.00  0.00    +0.000 A 
ATOM     18  C   UNL     1       7.163   4.859  15.004  0.00  0.00    +0.000 A 
ATOM     19  C   UNL     1       7.704   5.575  13.930  0.00  0.00    +0.000 A 
ENDBRANCH  12  17
ENDBRANCH   1  12
BRANCH   3  20
ATOM     20  C   UNL     1       4.185   6.557  18.031  0.00  0.00    +0.000 C 
BRANCH  20  21
ATOM     21  O   UNL     1       4.501   6.638  16.628  0.00  0.00    +0.000 OA
ATOM     22  H   UNL     1       4.069   5.893  16.179  0.00  0.00    +0.000 HD
ENDBRANCH  20  21
BRANCH  20  23
ATOM     23  C   UNL     1       2.706   6.899  18.115  0.00  0.00    +0.000 C 
BRANCH  23  24
ATOM     24  C   UNL     1       2.296   8.075  19.004  0.00  0.00    +0.000 C 
ATOM     25  C   UNL     1       1.691   7.475  20.288  0.00  0.00    +0.000 C 
ATOM     26  C   UNL     1       1.222   8.556  21.248  0.00  0.00    +0.000 C 
ATOM     27  C   UNL     1       0.286   9.522  20.535  0.00  0.00    +0.000 C 
ATOM     28  C   UNL     1       0.919  10.056  19.254  0.00  0.00    +0.000 C 
ATOM     29  N   UNL     1       1.318   8.963  18.364  0.00  0.00    +0.000 NA
ATOM     30  H   UNL     1       1.694   9.369  17.507  0.00  0.00    +0.000 HD
ENDBRANCH  23  24
ENDBRANCH  20  23
ENDBRANCH   3  20
TORSDOF 6
ENDMDL
MODEL 6
REMARK VINA RESULT:      -7.8      1.647      2.005
REMARK  Name = 
REMARK  8 active torsions:
REMARK  status: ('A' for Active; 'I' for Inactive)
REMARK    1  A    between atoms: C_1  and  C_2
REMARK    2  A    between atoms: C_5  and  O_6
REMARK    3  A    between atoms: O_6  and  C_7
REMARK    4  A    between atoms: C_9  and  C_10
REMARK    5  A    between atoms: C_10  and  O_11
REMARK    6  A    between atoms: C_10  and  C_12
REMARK    7  A    between atoms: C_12  and  C_13
REMARK    8  A    between atoms: C_21  and  C_22
REMARK                            x       y       z     vdW  Elec       q    Type
REMARK                         _______ _______ _______ _____ _____    ______ ____
ROOT
ATOM      1  C   UNL     1       2.148   8.068  19.008  0.00  0.00    +0.000 A 
ATOM      2  C   UNL     1       2.597   7.538  17.811  0.00  0.00    +0.000 A 
ATOM      3  C   UNL     1       3.144   6.263  17.898  0.00  0.00    +0.000 A 
ATOM      4  C   UNL     1       2.347   5.445  18.692  0.00  0.00    +0.000 A 
ATOM      5  C   UNL     1       1.892   4.163  18.296  0.00  0.00    +0.000 A 
ATOM      6  C   UNL     1       1.268   3.359  19.230  0.00  0.00    +0.000 A 
ATOM      7  C   UNL     1       0.572   2.096  18.808  0.00  0.00    +0.000 C 
ATOM      8  C   UNL     1       1.300   3.740  20.573  0.00  0.00    +0.000 A 
ATOM      9  C   UNL     1       1.663   5.045  20.919  0.00  0.00    +0.000 A 
ATOM     10  C   UNL     1       2.019   5.970  19.941  0.00  0.00    +0.000 A 
ATOM     11  N   UNL     1       2.015   7.311  20.128  0.00  0.00    +0.000 NA
ENDROOT
BRANCH   1  12
ATOM     12  O   UNL     1       1.590   9.330  18.982  0.00  0.00    +0.000 OA
BRANCH  12  17
ATOM     13  C   UNL     1      -1.646  11.358  23.207  0.00  0.00    +0.000 C 
ATOM     14  C   UNL     1      -0.767  10.804  22.123  0.00  0.00    +0.000 A 
ATOM     15  C   UNL     1       0.200   9.830  22.402  0.00  0.00    +0.000 A 
ATOM     16  C   UNL     1       1.016   9.311  21.386  0.00  0.00    +0.000 A 
ATOM     17  C   UNL     1       0.873   9.761  20.075  0.00  0.00    +0.000 A 
ATOM     18  C   UNL     1      -0.087  10.741  19.795  0.00  0.00    +0.000 A 
ATOM     19  C   UNL     1      -0.903  11.259  20.807  0.00  0.00    +0.000 A 
ENDBRANCH  12  17
ENDBRANCH   1  12
BRANCH   3  20
ATOM     20  C   UNL     1       4.640   6.309  18.468  0.00  0.00    +0.000 C 
BRANCH  20  21
ATOM     21  O   UNL     1       5.020   5.075  19.107  0.00  0.00    +0.000 OA
ATOM     22  H   UNL     1       5.510   4.541  18.460  0.00  0.00    +0.000 HD
ENDBRANCH  20  21
BRANCH  20  23
ATOM     23  C   UNL     1       5.744   6.578  17.458  0.00  0.00    +0.000 C 
BRANCH  23  24
ATOM     24  C   UNL     1       6.223   5.407  16.597  0.00  0.00    +0.000 C 
ATOM     25  C   UNL     1       6.675   5.999  15.248  0.00  0.00    +0.000 C 
ATOM     26  C   UNL     1       7.155   4.919  14.292  0.00  0.00    +0.000 C 
ATOM     27  C   UNL     1       6.095   3.834  14.150  0.00  0.00    +0.000 C 
ATOM     28  C   UNL     1       5.659   3.311  15.514  0.00  0.00    +0.000 C 
ATOM     29  N   UNL     1       5.180   4.399  16.371  0.00  0.00    +0.000 NA
ATOM     30  H   UNL     1       4.860   3.996  17.252  0.00  0.00    +0.000 HD
ENDBRANCH  23  24
ENDBRANCH  20  23
ENDBRANCH   3  20
TORSDOF 6
ENDMDL
MODEL 7
REMARK VINA RESULT:      -7.6      4.670      9.541
REMARK  Name = 
REMARK  8 active torsions:
REMARK  status: ('A' for Active; 'I' for Inactive)
REMARK    1  A    between atoms: C_1  and  C_2
REMARK    2  A    between atoms: C_5  and  O_6
REMARK    3  A    between atoms: O_6  and  C_7
REMARK    4  A    between atoms: C_9  and  C_10
REMARK    5  A    between atoms: C_10  and  O_11
REMARK    6  A    between atoms: C_10  and  C_12
REMARK    7  A    between atoms: C_12  and  C_13
REMARK    8  A    between atoms: C_21  and  C_22
REMARK                            x       y       z     vdW  Elec       q    Type
REMARK                         _______ _______ _______ _____ _____    ______ ____
ROOT
ATOM      1  C   UNL     1      -0.602  11.363  22.196  0.00  0.00    +0.000 A 
ATOM      2  C   UNL     1      -0.454  12.516  21.446  0.00  0.00    +0.000 A 
ATOM      3  C   UNL     1      -1.602  13.291  21.322  0.00  0.00    +0.000 A 
ATOM      4  C   UNL     1      -2.240  13.414  22.551  0.00  0.00    +0.000 A 
ATOM      5  C   UNL     1      -2.642  14.653  23.111  0.00  0.00    +0.000 A 
ATOM      6  C   UNL     1      -3.435  14.648  24.242  0.00  0.00    +0.000 A 
ATOM      7  C   UNL     1      -3.697  15.920  24.997  0.00  0.00    +0.000 C 
ATOM      8  C   UNL     1      -3.991  13.440  24.667  0.00  0.00    +0.000 A 
ATOM      9  C   UNL     1      -3.502  12.231  24.163  0.00  0.00    +0.000 A 
ATOM     10  C   UNL     1      -2.479  12.213  23.218  0.00  0.00    +0.000 A 
ATOM     11  N   UNL     1      -1.702  11.135  22.962  0.00  0.00    +0.000 NA
ENDROOT
BRANCH   1  12
ATOM     12  O   UNL     1       0.505  10.556  22.358  0.00  0.00    +0.000 OA
BRANCH  12  17
ATOM     13  C   UNL     1       2.322   7.069  18.238  0.00  0.00    +0.000 C 
ATOM     14  C   UNL     1       1.845   8.021  19.295  0.00  0.00    +0.000 A 
ATOM     15  C   UNL     1       1.439   9.322  18.969  0.00  0.00    +0.000 A 
ATOM     16  C   UNL     1       0.989  10.207  19.959  0.00  0.00    +0.000 A 
ATOM     17  C   UNL     1       0.938   9.801  21.291  0.00  0.00    +0.000 A 
ATOM     18  C   UNL     1       1.352   8.504  21.621  0.00  0.00    +0.000 A 
ATOM     19  C   UNL     1       1.799   7.619  20.635  0.00  0.00    +0.000 A 
ENDBRANCH  12  17
ENDBRANCH   1  12
BRANCH   3  20
ATOM     20  C   UNL     1      -2.602  12.679  20.231  0.00  0.00    +0.000 C 
BRANCH  20  21
ATOM     21  O   UNL     1      -3.597  13.632  19.806  0.00  0.00    +0.000 OA
ATOM     22  H   UNL     1      -3.175  14.506  19.762  0.00  0.00    +0.000 HD
ENDBRANCH  20  21
BRANCH  20  23
ATOM     23  C   UNL     1      -1.975  12.174  18.941  0.00  0.00    +0.000 C 
BRANCH  23  24
ATOM     24  C   UNL     1      -2.831  11.292  18.031  0.00  0.00    +0.000 C 
ATOM     25  C   UNL     1      -1.864  10.548  17.090  0.00  0.00    +0.000 C 
ATOM     26  C   UNL     1      -2.606   9.649  16.115  0.00  0.00    +0.000 C 
ATOM     27  C   UNL     1      -3.674  10.445  15.375  0.00  0.00    +0.000 C 
ATOM     28  C   UNL     1      -4.578  11.189  16.351  0.00  0.00    +0.000 C 
ATOM     29  N   UNL     1      -3.801  12.058  17.238  0.00  0.00    +0.000 NA
ATOM     30  H   UNL     1      -4.450  12.565  17.840  0.00  0.00    +0.000 HD
ENDBRANCH  23  24
ENDBRANCH  20  23
ENDBRANCH   3  20
TORSDOF 6
ENDMDL
MODEL 8
REMARK VINA RESULT:      -7.5      1.899      7.437
REMARK  Name = 
REMARK  8 active torsions:
REMARK  status: ('A' for Active; 'I' for Inactive)
REMARK    1  A    between atoms: C_1  and  C_2
REMARK    2  A    between atoms: C_5  and  O_6
REMARK    3  A    between atoms: O_6  and  C_7
REMARK    4  A    between atoms: C_9  and  C_10
REMARK    5  A    between atoms: C_10  and  O_11
REMARK    6  A    between atoms: C_10  and  C_12
REMARK    7  A    between atoms: C_12  and  C_13
REMARK    8  A    between atoms: C_21  and  C_22
REMARK                            x       y       z     vdW  Elec       q    Type
REMARK                         _______ _______ _______ _____ _____    ______ ____
ROOT
ATOM      1  C   UNL     1       5.106   4.487  17.570  0.00  0.00    +0.000 A 
ATOM      2  C   UNL     1       5.004   5.476  18.533  0.00  0.00    +0.000 A 
ATOM      3  C   UNL     1       3.727   5.666  19.050  0.00  0.00    +0.000 A 
ATOM      4  C   UNL     1       3.131   4.442  19.335  0.00  0.00    +0.000 A 
ATOM      5  C   UNL     1       2.529   4.128  20.580  0.00  0.00    +0.000 A 
ATOM      6  C   UNL     1       1.802   2.959  20.693  0.00  0.00    +0.000 A 
ATOM      7  C   UNL     1       1.340   2.474  22.038  0.00  0.00    +0.000 C 
ATOM      8  C   UNL     1       1.501   2.241  19.534  0.00  0.00    +0.000 A 
ATOM      9  C   UNL     1       2.184   2.515  18.346  0.00  0.00    +0.000 A 
ATOM     10  C   UNL     1       3.150   3.517  18.293  0.00  0.00    +0.000 A 
ATOM     11  N   UNL     1       4.103   3.601  17.335  0.00  0.00    +0.000 NA
ENDROOT
BRANCH   1  12
ATOM     12  O   UNL     1       6.351   4.250  17.024  0.00  0.00    +0.000 OA
BRANCH  12  17
ATOM     13  C   UNL     1       7.298   4.641  11.421  0.00  0.00    +0.000 C 
ATOM     14  C   UNL     1       7.012   4.515  12.890  0.00  0.00    +0.000 A 
ATOM     15  C   UNL     1       6.034   3.631  13.363  0.00  0.00    +0.000 A 
ATOM     16  C   UNL     1       5.773   3.512  14.736  0.00  0.00    +0.000 A 
ATOM     17  C   UNL     1       6.490   4.277  15.654  0.00  0.00    +0.000 A 
ATOM     18  C   UNL     1       7.462   5.168  15.182  0.00  0.00    +0.000 A 
ATOM     19  C   UNL     1       7.725   5.287  13.814  0.00  0.00    +0.000 A 
ENDBRANCH  12  17
ENDBRANCH   1  12
BRANCH   3  20
ATOM     20  C   UNL     1       2.811   6.513  18.045  0.00  0.00    +0.000 C 
BRANCH  20  21
ATOM     21  O   UNL     1       1.458   6.021  17.992  0.00  0.00    +0.000 OA
ATOM     22  H   UNL     1       1.493   5.064  17.830  0.00  0.00    +0.000 HD
ENDBRANCH  20  21
BRANCH  20  23
ATOM     23  C   UNL     1       2.672   7.998  18.341  0.00  0.00    +0.000 C 
BRANCH  23  24
ATOM     24  C   UNL     1       1.514   8.440  19.237  0.00  0.00    +0.000 C 
ATOM     25  C   UNL     1       1.348   9.959  19.037  0.00  0.00    +0.000 C 
ATOM     26  C   UNL     1       0.231  10.522  19.901  0.00  0.00    +0.000 C 
ATOM     27  C   UNL     1       0.441  10.125  21.357  0.00  0.00    +0.000 C 
ATOM     28  C   UNL     1       0.637   8.618  21.492  0.00  0.00    +0.000 C 
ATOM     29  N   UNL     1       1.747   8.150  20.658  0.00  0.00    +0.000 NA
ATOM     30  H   UNL     1       1.866   7.149  20.815  0.00  0.00    +0.000 HD
ENDBRANCH  23  24
ENDBRANCH  20  23
ENDBRANCH   3  20
TORSDOF 6
ENDMDL
MODEL 9
REMARK VINA RESULT:      -7.5      1.748      7.396
REMARK  Name = 
REMARK  8 active torsions:
REMARK  status: ('A' for Active; 'I' for Inactive)
REMARK    1  A    between atoms: C_1  and  C_2
REMARK    2  A    between atoms: C_5  and  O_6
REMARK    3  A    between atoms: O_6  and  C_7
REMARK    4  A    between atoms: C_9  and  C_10
REMARK    5  A    between atoms: C_10  and  O_11
REMARK    6  A    between atoms: C_10  and  C_12
REMARK    7  A    between atoms: C_12  and  C_13
REMARK    8  A    between atoms: C_21  and  C_22
REMARK                            x       y       z     vdW  Elec       q    Type
REMARK                         _______ _______ _______ _____ _____    ______ ____
ROOT
ATOM      1  C   UNL     1       5.263   4.535  17.531  0.00  0.00    +0.000 A 
ATOM      2  C   UNL     1       5.092   5.559  18.446  0.00  0.00    +0.000 A 
ATOM      3  C   UNL     1       3.790   5.729  18.905  0.00  0.00    +0.000 A 
ATOM      4  C   UNL     1       3.221   4.499  19.218  0.00  0.00    +0.000 A 
ATOM      5  C   UNL     1       2.579   4.218  20.450  0.00  0.00    +0.000 A 
ATOM      6  C   UNL     1       1.884   3.031  20.585  0.00  0.00    +0.000 A 
ATOM      7  C   UNL     1       1.384   2.587  21.929  0.00  0.00    +0.000 C 
ATOM      8  C   UNL     1       1.652   2.257  19.446  0.00  0.00    +0.000 A 
ATOM      9  C   UNL     1       2.374   2.503  18.276  0.00  0.00    +0.000 A 
ATOM     10  C   UNL     1       3.310   3.533  18.217  0.00  0.00    +0.000 A 
ATOM     11  N   UNL     1       4.298   3.608  17.295  0.00  0.00    +0.000 NA
ENDROOT
BRANCH   1  12
ATOM     12  O   UNL     1       6.536   4.316  17.044  0.00  0.00    +0.000 OA
BRANCH  12  17
ATOM     13  C   UNL     1       7.076   4.525  11.378  0.00  0.00    +0.000 C 
ATOM     14  C   UNL     1       6.971   4.492  12.876  0.00  0.00    +0.000 A 
ATOM     15  C   UNL     1       7.801   5.288  13.677  0.00  0.00    +0.000 A 
ATOM     16  C   UNL     1       7.696   5.259  15.075  0.00  0.00    +0.000 A 
ATOM     17  C   UNL     1       6.757   4.433  15.690  0.00  0.00    +0.000 A 
ATOM     18  C   UNL     1       5.933   3.630  14.891  0.00  0.00    +0.000 A 
ATOM     19  C   UNL     1       6.035   3.659  13.497  0.00  0.00    +0.000 A 
ENDBRANCH  12  17
ENDBRANCH   1  12
BRANCH   3  20
ATOM     20  C   UNL     1       2.890   6.504  17.830  0.00  0.00    +0.000 C 
BRANCH  20  21
ATOM     21  O   UNL     1       1.499   6.141  17.918  0.00  0.00    +0.000 OA
ATOM     22  H   UNL     1       1.154   6.475  18.762  0.00  0.00    +0.000 HD
ENDBRANCH  20  21
BRANCH  20  23
ATOM     23  C   UNL     1       2.899   8.023  17.905  0.00  0.00    +0.000 C 
BRANCH  23  24
ATOM     24  C   UNL     1       1.687   8.712  18.534  0.00  0.00    +0.000 C 
ATOM     25  C   UNL     1       1.803  10.212  18.202  0.00  0.00    +0.000 C 
ATOM     26  C   UNL     1       0.656  11.011  18.799  0.00  0.00    +0.000 C 
ATOM     27  C   UNL     1       0.540  10.731  20.292  0.00  0.00    +0.000 C 
ATOM     28  C   UNL     1       0.466   9.232  20.564  0.00  0.00    +0.000 C 
ATOM     29  N   UNL     1       1.616   8.530  19.989  0.00  0.00    +0.000 NA
ATOM     30  H   UNL     1       1.544   7.542  20.234  0.00  0.00    +0.000 HD
ENDBRANCH  23  24
ENDBRANCH  20  23
ENDBRANCH   3  20
TORSDOF 6
ENDMDL
