MODEL 1
REMARK VINA RESULT:      -4.7      0.000      0.000
REMARK  Name = 
REMARK  3 active torsions:
REMARK  status: ('A' for Active; 'I' for Inactive)
REMARK    1  A    between atoms: C_1  and  C_2
REMARK    2  A    between atoms: C_4  and  C_5
REMARK    3  A    between atoms: C_7  and  O_8
REMARK                            x       y       z     vdW  Elec       q    Type
REMARK                         _______ _______ _______ _____ _____    ______ ____
ROOT
ATOM      1  C   UNL     1       6.772   4.478  14.433  0.00  0.00    +0.000 C 
ATOM      2  C   UNL     1       6.473   4.434  15.901  0.00  0.00    +0.000 A 
ATOM      3  C   UNL     1       5.202   4.138  16.358  0.00  0.00    +0.000 A 
ATOM      4  C   UNL     1       5.016   4.122  17.730  0.00  0.00    +0.000 A 
ATOM      5  C   UNL     1       3.670   3.813  18.314  0.00  0.00    +0.000 C 
ATOM      6  N   UNL     1       6.017   4.380  18.597  0.00  0.00    +0.000 NA
ATOM      7  C   UNL     1       7.198   4.651  18.037  0.00  0.00    +0.000 A 
ATOM      8  N   UNL     1       7.495   4.697  16.738  0.00  0.00    +0.000 NA
ENDROOT
BRANCH   7   9
ATOM      9  O   UNL     1       8.196   4.911  18.920  0.00  0.00    +0.000 OA
ATOM     10  H   UNL     1       7.792   5.667  19.375  0.00  0.00    +0.000 HD
ENDBRANCH   7   9
TORSDOF 1
ENDMDL
MODEL 2
REMARK VINA RESULT:      -4.7      0.605      2.899
REMARK  Name = 
REMARK  3 active torsions:
REMARK  status: ('A' for Active; 'I' for Inactive)
REMARK    1  A    between atoms: C_1  and  C_2
REMARK    2  A    between atoms: C_4  and  C_5
REMARK    3  A    between atoms: C_7  and  O_8
REMARK                            x       y       z     vdW  Elec       q    Type
REMARK                         _______ _______ _______ _____ _____    ______ ____
ROOT
ATOM      1  C   UNL     1       3.495   4.096  17.480  0.00  0.00    +0.000 C 
ATOM      2  C   UNL     1       4.916   4.315  17.056  0.00  0.00    +0.000 A 
ATOM      3  C   UNL     1       5.248   4.429  15.718  0.00  0.00    +0.000 A 
ATOM      4  C   UNL     1       6.585   4.628  15.417  0.00  0.00    +0.000 A 
ATOM      5  C   UNL     1       7.034   4.759  13.993  0.00  0.00    +0.000 C 
ATOM      6  N   UNL     1       7.534   4.710  16.372  0.00  0.00    +0.000 NA
ATOM      7  C   UNL     1       7.092   4.586  17.626  0.00  0.00    +0.000 A 
ATOM      8  N   UNL     1       5.838   4.391  18.034  0.00  0.00    +0.000 NA
ENDROOT
BRANCH   7   9
ATOM      9  O   UNL     1       8.059   4.669  18.576  0.00  0.00    +0.000 OA
ATOM     10  H   UNL     1       8.214   5.627  18.538  0.00  0.00    +0.000 HD
ENDBRANCH   7   9
TORSDOF 1
ENDMDL
MODEL 3
REMARK VINA RESULT:      -4.7      2.962      4.669
REMARK  Name = 
REMARK  3 active torsions:
REMARK  status: ('A' for Active; 'I' for Inactive)
REMARK    1  A    between atoms: C_1  and  C_2
REMARK    2  A    between atoms: C_4  and  C_5
REMARK    3  A    between atoms: C_7  and  O_8
REMARK                            x       y       z     vdW  Elec       q    Type
REMARK                         _______ _______ _______ _____ _____    ______ ____
ROOT
ATOM      1  C   UNL     1       1.109   3.971  20.450  0.00  0.00    +0.000 C 
ATOM      2  C   UNL     1       2.532   3.879  19.988  0.00  0.00    +0.000 A 
ATOM      3  C   UNL     1       3.125   4.923  19.301  0.00  0.00    +0.000 A 
ATOM      4  C   UNL     1       4.442   4.751  18.912  0.00  0.00    +0.000 A 
ATOM      5  C   UNL     1       5.162   5.830  18.160  0.00  0.00    +0.000 C 
ATOM      6  N   UNL     1       5.133   3.623  19.180  0.00  0.00    +0.000 NA
ATOM      7  C   UNL     1       4.455   2.688  19.850  0.00  0.00    +0.000 A 
ATOM      8  N   UNL     1       3.192   2.740  20.273  0.00  0.00    +0.000 NA
ENDROOT
BRANCH   7   9
ATOM      9  O   UNL     1       5.162   1.558  20.113  0.00  0.00    +0.000 OA
ATOM     10  H   UNL     1       5.365   1.300  19.199  0.00  0.00    +0.000 HD
ENDBRANCH   7   9
TORSDOF 1
ENDMDL
MODEL 4
REMARK VINA RESULT:      -4.7      3.019      3.849
REMARK  Name = 
REMARK  3 active torsions:
REMARK  status: ('A' for Active; 'I' for Inactive)
REMARK    1  A    between atoms: C_1  and  C_2
REMARK    2  A    between atoms: C_4  and  C_5
REMARK    3  A    between atoms: C_7  and  O_8
REMARK                            x       y       z     vdW  Elec       q    Type
REMARK                         _______ _______ _______ _____ _____    ______ ____
ROOT
ATOM      1  C   UNL     1       5.078   5.841  18.238  0.00  0.00    +0.000 C 
ATOM      2  C   UNL     1       4.380   4.721  18.949  0.00  0.00    +0.000 A 
ATOM      3  C   UNL     1       3.048   4.827  19.305  0.00  0.00    +0.000 A 
ATOM      4  C   UNL     1       2.485   3.745  19.960  0.00  0.00    +0.000 A 
ATOM      5  C   UNL     1       1.048   3.775  20.386  0.00  0.00    +0.000 C 
ATOM      6  N   UNL     1       3.188   2.629  20.246  0.00  0.00    +0.000 NA
ATOM      7  C   UNL     1       4.463   2.644  19.851  0.00  0.00    +0.000 A 
ATOM      8  N   UNL     1       5.111   3.622  19.218  0.00  0.00    +0.000 NA
ENDROOT
BRANCH   7   9
ATOM      9  O   UNL     1       5.159   1.516  20.146  0.00  0.00    +0.000 OA
ATOM     10  H   UNL     1       5.137   1.101  19.269  0.00  0.00    +0.000 HD
ENDBRANCH   7   9
TORSDOF 1
ENDMDL
MODEL 5
REMARK VINA RESULT:      -4.7      2.950      3.687
REMARK  Name = 
REMARK  3 active torsions:
REMARK  status: ('A' for Active; 'I' for Inactive)
REMARK    1  A    between atoms: C_1  and  C_2
REMARK    2  A    between atoms: C_4  and  C_5
REMARK    3  A    between atoms: C_7  and  O_8
REMARK                            x       y       z     vdW  Elec       q    Type
REMARK                         _______ _______ _______ _____ _____    ______ ____
ROOT
ATOM      1  C   UNL     1       4.199   5.771  17.424  0.00  0.00    +0.000 C 
ATOM      2  C   UNL     1       3.751   4.525  18.124  0.00  0.00    +0.000 A 
ATOM      3  C   UNL     1       2.427   4.125  18.086  0.00  0.00    +0.000 A 
ATOM      4  C   UNL     1       2.102   2.963  18.763  0.00  0.00    +0.000 A 
ATOM      5  C   UNL     1       0.691   2.458  18.778  0.00  0.00    +0.000 C 
ATOM      6  N   UNL     1       3.021   2.238  19.435  0.00  0.00    +0.000 NA
ATOM      7  C   UNL     1       4.265   2.722  19.399  0.00  0.00    +0.000 A 
ATOM      8  N   UNL     1       4.694   3.825  18.785  0.00  0.00    +0.000 NA
ENDROOT
BRANCH   7   9
ATOM      9  O   UNL     1       5.179   1.984  20.079  0.00  0.00    +0.000 OA
ATOM     10  H   UNL     1       4.685   1.872  20.907  0.00  0.00    +0.000 HD
ENDBRANCH   7   9
TORSDOF 1
ENDMDL
MODEL 6
REMARK VINA RESULT:      -4.6      2.929      4.416
REMARK  Name = 
REMARK  3 active torsions:
REMARK  status: ('A' for Active; 'I' for Inactive)
REMARK    1  A    between atoms: C_1  and  C_2
REMARK    2  A    between atoms: C_4  and  C_5
REMARK    3  A    between atoms: C_7  and  O_8
REMARK                            x       y       z     vdW  Elec       q    Type
REMARK                         _______ _______ _______ _____ _____    ______ ____
ROOT
ATOM      1  C   UNL     1       0.664   2.489  18.786  0.00  0.00    +0.000 C 
ATOM      2  C   UNL     1       2.076   2.990  18.753  0.00  0.00    +0.000 A 
ATOM      3  C   UNL     1       2.405   4.141  18.058  0.00  0.00    +0.000 A 
ATOM      4  C   UNL     1       3.734   4.529  18.079  0.00  0.00    +0.000 A 
ATOM      5  C   UNL     1       4.179   5.761  17.352  0.00  0.00    +0.000 C 
ATOM      6  N   UNL     1       4.679   3.830  18.742  0.00  0.00    +0.000 NA
ATOM      7  C   UNL     1       4.241   2.740  19.375  0.00  0.00    +0.000 A 
ATOM      8  N   UNL     1       2.994   2.269  19.424  0.00  0.00    +0.000 NA
ENDROOT
BRANCH   7   9
ATOM      9  O   UNL     1       5.203   2.046  20.037  0.00  0.00    +0.000 OA
ATOM     10  H   UNL     1       5.801   2.784  20.236  0.00  0.00    +0.000 HD
ENDBRANCH   7   9
TORSDOF 1
ENDMDL
MODEL 7
REMARK VINA RESULT:      -4.6      3.549      5.104
REMARK  Name = 
REMARK  3 active torsions:
REMARK  status: ('A' for Active; 'I' for Inactive)
REMARK    1  A    between atoms: C_1  and  C_2
REMARK    2  A    between atoms: C_4  and  C_5
REMARK    3  A    between atoms: C_7  and  O_8
REMARK                            x       y       z     vdW  Elec       q    Type
REMARK                         _______ _______ _______ _____ _____    ______ ____
ROOT
ATOM      1  C   UNL     1       1.548   2.599  21.650  0.00  0.00    +0.000 C 
ATOM      2  C   UNL     1       2.385   3.489  20.782  0.00  0.00    +0.000 A 
ATOM      3  C   UNL     1       2.010   4.798  20.538  0.00  0.00    +0.000 A 
ATOM      4  C   UNL     1       2.841   5.548  19.723  0.00  0.00    +0.000 A 
ATOM      5  C   UNL     1       2.511   6.974  19.402  0.00  0.00    +0.000 C 
ATOM      6  N   UNL     1       3.969   5.042  19.183  0.00  0.00    +0.000 NA
ATOM      7  C   UNL     1       4.227   3.769  19.492  0.00  0.00    +0.000 A 
ATOM      8  N   UNL     1       3.504   2.953  20.259  0.00  0.00    +0.000 NA
ENDROOT
BRANCH   7   9
ATOM      9  O   UNL     1       5.364   3.273  18.941  0.00  0.00    +0.000 OA
ATOM     10  H   UNL     1       5.881   3.162  19.755  0.00  0.00    +0.000 HD
ENDBRANCH   7   9
TORSDOF 1
ENDMDL
MODEL 8
REMARK VINA RESULT:      -4.6      3.215      4.989
REMARK  Name = 
REMARK  3 active torsions:
REMARK  status: ('A' for Active; 'I' for Inactive)
REMARK    1  A    between atoms: C_1  and  C_2
REMARK    2  A    between atoms: C_4  and  C_5
REMARK    3  A    between atoms: C_7  and  O_8
REMARK                            x       y       z     vdW  Elec       q    Type
REMARK                         _______ _______ _______ _____ _____    ______ ____
ROOT
ATOM      1  C   UNL     1       0.811   3.660  20.276  0.00  0.00    +0.000 C 
ATOM      2  C   UNL     1       1.975   3.431  19.360  0.00  0.00    +0.000 A 
ATOM      3  C   UNL     1       2.542   4.479  18.656  0.00  0.00    +0.000 A 
ATOM      4  C   UNL     1       3.611   4.175  17.832  0.00  0.00    +0.000 A 
ATOM      5  C   UNL     1       4.285   5.248  17.030  0.00  0.00    +0.000 C 
ATOM      6  N   UNL     1       4.094   2.921  17.707  0.00  0.00    +0.000 NA
ATOM      7  C   UNL     1       3.466   1.996  18.437  0.00  0.00    +0.000 A 
ATOM      8  N   UNL     1       2.431   2.167  19.260  0.00  0.00    +0.000 NA
ENDROOT
BRANCH   7   9
ATOM      9  O   UNL     1       3.961   0.738  18.301  0.00  0.00    +0.000 OA
ATOM     10  H   UNL     1       4.420   0.856  17.454  0.00  0.00    +0.000 HD
ENDBRANCH   7   9
TORSDOF 1
ENDMDL
MODEL 9
REMARK VINA RESULT:      -4.6      2.575      3.755
REMARK  Name = 
REMARK  3 active torsions:
REMARK  status: ('A' for Active; 'I' for Inactive)
REMARK    1  A    between atoms: C_1  and  C_2
REMARK    2  A    between atoms: C_4  and  C_5
REMARK    3  A    between atoms: C_7  and  O_8
REMARK                            x       y       z     vdW  Elec       q    Type
REMARK                         _______ _______ _______ _____ _____    ______ ____
ROOT
ATOM      1  C   UNL     1       1.605   4.369  17.776  0.00  0.00    +0.000 C 
ATOM      2  C   UNL     1       3.039   4.293  18.202  0.00  0.00    +0.000 A 
ATOM      3  C   UNL     1       3.944   5.270  17.829  0.00  0.00    +0.000 A 
ATOM      4  C   UNL     1       5.249   5.118  18.265  0.00  0.00    +0.000 A 
ATOM      5  C   UNL     1       6.296   6.128  17.905  0.00  0.00    +0.000 C 
ATOM      6  N   UNL     1       5.640   4.071  19.021  0.00  0.00    +0.000 NA
ATOM      7  C   UNL     1       4.677   3.194  19.318  0.00  0.00    +0.000 A 
ATOM      8  N   UNL     1       3.395   3.234  18.956  0.00  0.00    +0.000 NA
ENDROOT
BRANCH   7   9
ATOM      9  O   UNL     1       5.084   2.145  20.078  0.00  0.00    +0.000 OA
ATOM     10  H   UNL     1       5.050   2.576  20.947  0.00  0.00    +0.000 HD
ENDBRANCH   7   9
TORSDOF 1
ENDMDL
