MODEL 1
REMARK VINA RESULT:      -7.9      0.000      0.000
REMARK  Name = 
REMARK  9 active torsions:
REMARK  status: ('A' for Active; 'I' for Inactive)
REMARK    1  A    between atoms: C_1  and  O_2
REMARK    2  A    between atoms: O_2  and  C_3
REMARK    3  A    between atoms: C_5  and  C_6
REMARK    4  A    between atoms: C_6  and  N_7
REMARK    5  A    between atoms: C_12  and  O_13
REMARK    6  A    between atoms: C_25  and  O_26
REMARK    7  A    between atoms: O_26  and  C_27
REMARK    8  A    between atoms: C_28  and  O_29
REMARK    9  A    between atoms: O_29  and  C_30
REMARK                            x       y       z     vdW  Elec       q    Type
REMARK                         _______ _______ _______ _____ _____    ______ ____
ROOT
ATOM      1  N   UNL     1       2.385   6.645  19.163  0.00  0.00    +0.000 N 
ATOM      2  C   UNL     1       2.794   6.711  17.824  0.00  0.00    +0.000 C 
ATOM      3  O   UNL     1       2.600   7.690  17.103  0.00  0.00    +0.000 OA
ATOM      4  C   UNL     1       3.941   5.733  17.527  0.00  0.00    +0.000 C 
ATOM      5  C   UNL     1       4.976   6.064  18.604  0.00  0.00    +0.000 C 
ATOM      6  C   UNL     1       5.822   4.846  18.787  0.00  0.00    +0.000 C 
ATOM      7  C   UNL     1       4.794   3.731  18.565  0.00  0.00    +0.000 C 
ATOM      8  N   UNL     1       3.766   4.313  17.670  0.00  0.00    +0.000 N 
ATOM      9  C   UNL     1       2.457   3.927  17.606  0.00  0.00    +0.000 C 
ATOM     10  O   UNL     1       1.964   3.295  16.683  0.00  0.00    +0.000 OA
ATOM     11  C   UNL     1       1.730   4.155  18.882  0.00  0.00    +0.000 A 
ATOM     12  C   UNL     1       1.311   2.890  19.356  0.00  0.00    +0.000 A 
ATOM     13  C   UNL     1       1.590   2.568  20.657  0.00  0.00    +0.000 A 
ATOM     14  C   UNL     1       2.091   3.596  21.495  0.00  0.00    +0.000 A 
ATOM     15  C   UNL     1       2.214   4.950  21.063  0.00  0.00    +0.000 A 
ATOM     16  C   UNL     1       2.061   5.279  19.728  0.00  0.00    +0.000 A 
ENDROOT
BRANCH   6  17
ATOM     17  O   UNL     1       6.364   4.862  20.103  0.00  0.00    +0.000 OA
ATOM     18  H   UNL     1       5.642   4.687  20.741  0.00  0.00    +0.000 HD
ENDBRANCH   6  17
BRANCH   1  19
ATOM     19  C   UNL     1       2.413   7.996  19.839  0.00  0.00    +0.000 C 
BRANCH  19  22
ATOM     20  C   UNL     1      -0.590  10.535  18.718  0.00  0.00    +0.000 A 
ATOM     21  C   UNL     1       0.496   9.574  18.624  0.00  0.00    +0.000 A 
ATOM     22  C   UNL     1       1.242   9.070  19.750  0.00  0.00    +0.000 A 
ATOM     23  C   UNL     1       0.663   9.446  20.985  0.00  0.00    +0.000 A 
ATOM     24  C   UNL     1      -0.417  10.354  21.126  0.00  0.00    +0.000 A 
ATOM     25  C   UNL     1      -1.025  10.974  20.003  0.00  0.00    +0.000 A 
BRANCH  20  27
ATOM     26  C   UNL     1      -2.336  10.406  17.029  0.00  0.00    +0.000 C 
ATOM     27  O   UNL     1      -1.295  11.097  17.697  0.00  0.00    +0.000 OA
ENDBRANCH  20  27
BRANCH  24  28
ATOM     28  O   UNL     1      -0.842  10.461  22.433  0.00  0.00    +0.000 OA
ATOM     29  C   UNL     1      -0.183   9.657  23.405  0.00  0.00    +0.000 C 
ENDBRANCH  24  28
BRANCH  25  30
ATOM     30  O   UNL     1      -1.983  11.887  20.327  0.00  0.00    +0.000 OA
ATOM     31  C   UNL     1      -1.842  13.290  20.393  0.00  0.00    +0.000 C 
ENDBRANCH  25  30
ENDBRANCH  19  22
ENDBRANCH   1  19
TORSDOF 6
ENDMDL
MODEL 2
REMARK VINA RESULT:      -7.4      0.665      2.262
REMARK  Name = 
REMARK  9 active torsions:
REMARK  status: ('A' for Active; 'I' for Inactive)
REMARK    1  A    between atoms: C_1  and  O_2
REMARK    2  A    between atoms: O_2  and  C_3
REMARK    3  A    between atoms: C_5  and  C_6
REMARK    4  A    between atoms: C_6  and  N_7
REMARK    5  A    between atoms: C_12  and  O_13
REMARK    6  A    between atoms: C_25  and  O_26
REMARK    7  A    between atoms: O_26  and  C_27
REMARK    8  A    between atoms: C_28  and  O_29
REMARK    9  A    between atoms: O_29  and  C_30
REMARK                            x       y       z     vdW  Elec       q    Type
REMARK                         _______ _______ _______ _____ _____    ______ ____
ROOT
ATOM      1  N   UNL     1       2.309   6.654  19.497  0.00  0.00    +0.000 N 
ATOM      2  C   UNL     1       2.587   6.792  18.131  0.00  0.00    +0.000 C 
ATOM      3  O   UNL     1       2.385   7.831  17.499  0.00  0.00    +0.000 OA
ATOM      4  C   UNL     1       3.633   5.774  17.652  0.00  0.00    +0.000 C 
ATOM      5  C   UNL     1       4.789   5.967  18.636  0.00  0.00    +0.000 C 
ATOM      6  C   UNL     1       5.569   4.693  18.650  0.00  0.00    +0.000 C 
ATOM      7  C   UNL     1       4.455   3.657  18.462  0.00  0.00    +0.000 C 
ATOM      8  N   UNL     1       3.383   4.360  17.718  0.00  0.00    +0.000 N 
ATOM      9  C   UNL     1       2.052   4.056  17.765  0.00  0.00    +0.000 C 
ATOM     10  O   UNL     1       1.430   3.521  16.858  0.00  0.00    +0.000 OA
ATOM     11  C   UNL     1       1.471   4.232  19.122  0.00  0.00    +0.000 A 
ATOM     12  C   UNL     1       1.021   2.962  19.552  0.00  0.00    +0.000 A 
ATOM     13  C   UNL     1       1.406   2.532  20.793  0.00  0.00    +0.000 A 
ATOM     14  C   UNL     1       2.052   3.466  21.641  0.00  0.00    +0.000 A 
ATOM     15  C   UNL     1       2.219   4.839  21.289  0.00  0.00    +0.000 A 
ATOM     16  C   UNL     1       1.955   5.271  20.001  0.00  0.00    +0.000 A 
ENDROOT
BRANCH   6  17
ATOM     17  O   UNL     1       6.239   4.582  19.901  0.00  0.00    +0.000 OA
ATOM     18  H   UNL     1       5.718   3.993  20.483  0.00  0.00    +0.000 HD
ENDBRANCH   6  17
BRANCH   1  19
ATOM     19  C   UNL     1       2.491   7.949  20.255  0.00  0.00    +0.000 C 
BRANCH  19  22
ATOM     20  C   UNL     1      -0.096  10.756  21.719  0.00  0.00    +0.000 A 
ATOM     21  C   UNL     1       0.973   9.774  21.671  0.00  0.00    +0.000 A 
ATOM     22  C   UNL     1       1.336   9.016  20.500  0.00  0.00    +0.000 A 
ATOM     23  C   UNL     1       0.680   9.483  19.337  0.00  0.00    +0.000 A 
ATOM     24  C   UNL     1      -0.347  10.461  19.329  0.00  0.00    +0.000 A 
ATOM     25  C   UNL     1      -0.808  11.072  20.524  0.00  0.00    +0.000 A 
BRANCH  20  27
ATOM     26  C   UNL     1      -1.811  11.256  23.370  0.00  0.00    +0.000 C 
ATOM     27  O   UNL     1      -0.531  11.463  22.800  0.00  0.00    +0.000 OA
ENDBRANCH  20  27
BRANCH  24  28
ATOM     28  O   UNL     1      -0.737  10.798  18.050  0.00  0.00    +0.000 OA
ATOM     29  C   UNL     1      -1.778  10.029  17.458  0.00  0.00    +0.000 C 
ENDBRANCH  24  28
BRANCH  25  30
ATOM     30  O   UNL     1      -1.861  11.918  20.341  0.00  0.00    +0.000 OA
ATOM     31  C   UNL     1      -1.820  13.323  20.214  0.00  0.00    +0.000 C 
ENDBRANCH  25  30
ENDBRANCH  19  22
ENDBRANCH   1  19
TORSDOF 6
ENDMDL
MODEL 3
REMARK VINA RESULT:      -7.4      2.095      3.923
REMARK  Name = 
REMARK  9 active torsions:
REMARK  status: ('A' for Active; 'I' for Inactive)
REMARK    1  A    between atoms: C_1  and  O_2
REMARK    2  A    between atoms: O_2  and  C_3
REMARK    3  A    between atoms: C_5  and  C_6
REMARK    4  A    between atoms: C_6  and  N_7
REMARK    5  A    between atoms: C_12  and  O_13
REMARK    6  A    between atoms: C_25  and  O_26
REMARK    7  A    between atoms: O_26  and  C_27
REMARK    8  A    between atoms: C_28  and  O_29
REMARK    9  A    between atoms: O_29  and  C_30
REMARK                            x       y       z     vdW  Elec       q    Type
REMARK                         _______ _______ _______ _____ _____    ______ ____
ROOT
ATOM      1  N   UNL     1       3.214   7.028  18.237  0.00  0.00    +0.000 N 
ATOM      2  C   UNL     1       3.052   6.461  19.508  0.00  0.00    +0.000 C 
ATOM      3  O   UNL     1       2.444   7.015  20.425  0.00  0.00    +0.000 OA
ATOM      4  C   UNL     1       3.202   4.933  19.478  0.00  0.00    +0.000 C 
ATOM      5  C   UNL     1       2.229   4.503  18.378  0.00  0.00    +0.000 C 
ATOM      6  C   UNL     1       2.702   3.182  17.866  0.00  0.00    +0.000 C 
ATOM      7  C   UNL     1       4.222   3.343  17.979  0.00  0.00    +0.000 C 
ATOM      8  N   UNL     1       4.436   4.312  19.080  0.00  0.00    +0.000 N 
ATOM      9  C   UNL     1       5.516   5.139  19.212  0.00  0.00    +0.000 C 
ATOM     10  O   UNL     1       6.402   4.995  20.042  0.00  0.00    +0.000 OA
ATOM     11  C   UNL     1       5.633   6.111  18.095  0.00  0.00    +0.000 A 
ATOM     12  C   UNL     1       6.853   5.842  17.431  0.00  0.00    +0.000 A 
ATOM     13  C   UNL     1       6.825   5.704  16.070  0.00  0.00    +0.000 A 
ATOM     14  C   UNL     1       5.624   6.044  15.399  0.00  0.00    +0.000 A 
ATOM     15  C   UNL     1       4.500   6.611  16.072  0.00  0.00    +0.000 A 
ATOM     16  C   UNL     1       4.452   6.644  17.455  0.00  0.00    +0.000 A 
ENDROOT
BRANCH   6  17
ATOM     17  O   UNL     1       2.247   3.023  16.527  0.00  0.00    +0.000 OA
ATOM     18  H   UNL     1       1.444   2.464  16.534  0.00  0.00    +0.000 HD
ENDBRANCH   6  17
BRANCH   1  19
ATOM     19  C   UNL     1       2.043   7.896  17.840  0.00  0.00    +0.000 C 
BRANCH  19  22
ATOM     20  C   UNL     1       1.917  11.947  18.377  0.00  0.00    +0.000 A 
ATOM     21  C   UNL     1       2.250  10.651  17.810  0.00  0.00    +0.000 A 
ATOM     22  C   UNL     1       1.816   9.386  18.348  0.00  0.00    +0.000 A 
ATOM     23  C   UNL     1       0.849   9.544  19.368  0.00  0.00    +0.000 A 
ATOM     24  C   UNL     1       0.468  10.788  19.932  0.00  0.00    +0.000 A 
ATOM     25  C   UNL     1       1.040  12.013  19.500  0.00  0.00    +0.000 A 
BRANCH  20  27
ATOM     26  C   UNL     1       3.414  13.853  18.581  0.00  0.00    +0.000 C 
ATOM     27  O   UNL     1       2.339  13.173  17.959  0.00  0.00    +0.000 OA
ENDBRANCH  20  27
BRANCH  24  28
ATOM     28  O   UNL     1      -0.564  10.656  20.836  0.00  0.00    +0.000 OA
ATOM     29  C   UNL     1      -0.236  10.210  22.147  0.00  0.00    +0.000 C 
ENDBRANCH  24  28
BRANCH  25  30
ATOM     30  O   UNL     1       0.627  13.097  20.213  0.00  0.00    +0.000 OA
ATOM     31  C   UNL     1      -0.411  13.995  19.884  0.00  0.00    +0.000 C 
ENDBRANCH  25  30
ENDBRANCH  19  22
ENDBRANCH   1  19
TORSDOF 6
ENDMDL
MODEL 4
REMARK VINA RESULT:      -7.3      2.167      7.604
REMARK  Name = 
REMARK  9 active torsions:
REMARK  status: ('A' for Active; 'I' for Inactive)
REMARK    1  A    between atoms: C_1  and  O_2
REMARK    2  A    between atoms: O_2  and  C_3
REMARK    3  A    between atoms: C_5  and  C_6
REMARK    4  A    between atoms: C_6  and  N_7
REMARK    5  A    between atoms: C_12  and  O_13
REMARK    6  A    between atoms: C_25  and  O_26
REMARK    7  A    between atoms: O_26  and  C_27
REMARK    8  A    between atoms: C_28  and  O_29
REMARK    9  A    between atoms: O_29  and  C_30
REMARK                            x       y       z     vdW  Elec       q    Type
REMARK                         _______ _______ _______ _____ _____    ______ ____
ROOT
ATOM      1  N   UNL     1       1.451   9.560  18.901  0.00  0.00    +0.000 N 
ATOM      2  C   UNL     1       1.668  10.859  18.423  0.00  0.00    +0.000 C 
ATOM      3  O   UNL     1       2.560  11.147  17.624  0.00  0.00    +0.000 OA
ATOM      4  C   UNL     1       0.409  11.732  18.542  0.00  0.00    +0.000 C 
ATOM      5  C   UNL     1      -0.669  10.892  17.855  0.00  0.00    +0.000 C 
ATOM      6  C   UNL     1      -1.985  11.332  18.409  0.00  0.00    +0.000 C 
ATOM      7  C   UNL     1      -1.609  11.652  19.859  0.00  0.00    +0.000 C 
ATOM      8  N   UNL     1      -0.175  12.026  19.823  0.00  0.00    +0.000 N 
ATOM      9  C   UNL     1       0.708  11.893  20.856  0.00  0.00    +0.000 C 
ATOM     10  O   UNL     1       1.155  12.823  21.512  0.00  0.00    +0.000 OA
ATOM     11  C   UNL     1       0.906  10.477  21.261  0.00  0.00    +0.000 A 
ATOM     12  C   UNL     1       0.461  10.358  22.599  0.00  0.00    +0.000 A 
ATOM     13  C   UNL     1      -0.409   9.346  22.899  0.00  0.00    +0.000 A 
ATOM     14  C   UNL     1      -0.643   8.365  21.903  0.00  0.00    +0.000 A 
ATOM     15  C   UNL     1       0.062   8.342  20.663  0.00  0.00    +0.000 A 
ATOM     16  C   UNL     1       0.849   9.415  20.282  0.00  0.00    +0.000 A 
ENDROOT
BRANCH   6  17
ATOM     17  O   UNL     1      -2.912  10.259  18.288  0.00  0.00    +0.000 OA
ATOM     18  H   UNL     1      -3.743  10.605  17.904  0.00  0.00    +0.000 HD
ENDBRANCH   6  17
BRANCH   1  19
ATOM     19  C   UNL     1       1.806   8.504  17.879  0.00  0.00    +0.000 C 
BRANCH  19  22
ATOM     20  C   UNL     1       4.790   5.715  18.062  0.00  0.00    +0.000 A 
ATOM     21  C   UNL     1       4.038   6.890  17.655  0.00  0.00    +0.000 A 
ATOM     22  C   UNL     1       2.742   7.251  18.171  0.00  0.00    +0.000 A 
ATOM     23  C   UNL     1       2.369   6.455  19.280  0.00  0.00    +0.000 A 
ATOM     24  C   UNL     1       3.085   5.319  19.735  0.00  0.00    +0.000 A 
ATOM     25  C   UNL     1       4.275   4.881  19.098  0.00  0.00    +0.000 A 
BRANCH  20  27
ATOM     26  C   UNL     1       6.087   4.523  16.385  0.00  0.00    +0.000 C 
ATOM     27  O   UNL     1       5.987   5.282  17.577  0.00  0.00    +0.000 OA
ENDBRANCH  20  27
BRANCH  24  28
ATOM     28  O   UNL     1       2.551   4.794  20.892  0.00  0.00    +0.000 OA
ATOM     29  C   UNL     1       1.344   4.049  20.778  0.00  0.00    +0.000 C 
ENDBRANCH  24  28
BRANCH  25  30
ATOM     30  O   UNL     1       4.779   3.723  19.608  0.00  0.00    +0.000 OA
ATOM     31  C   UNL     1       4.360   2.405  19.321  0.00  0.00    +0.000 C 
ENDBRANCH  25  30
ENDBRANCH  19  22
ENDBRANCH   1  19
TORSDOF 6
ENDMDL
MODEL 5
REMARK VINA RESULT:      -7.3      2.407      7.682
REMARK  Name = 
REMARK  9 active torsions:
REMARK  status: ('A' for Active; 'I' for Inactive)
REMARK    1  A    between atoms: C_1  and  O_2
REMARK    2  A    between atoms: O_2  and  C_3
REMARK    3  A    between atoms: C_5  and  C_6
REMARK    4  A    between atoms: C_6  and  N_7
REMARK    5  A    between atoms: C_12  and  O_13
REMARK    6  A    between atoms: C_25  and  O_26
REMARK    7  A    between atoms: O_26  and  C_27
REMARK    8  A    between atoms: C_28  and  O_29
REMARK    9  A    between atoms: O_29  and  C_30
REMARK                            x       y       z     vdW  Elec       q    Type
REMARK                         _______ _______ _______ _____ _____    ______ ____
ROOT
ATOM      1  N   UNL     1      -0.123  10.279  20.652  0.00  0.00    +0.000 N 
ATOM      2  C   UNL     1      -0.029  11.418  21.463  0.00  0.00    +0.000 C 
ATOM      3  O   UNL     1       0.177  11.372  22.677  0.00  0.00    +0.000 OA
ATOM      4  C   UNL     1       0.339  12.670  20.652  0.00  0.00    +0.000 C 
ATOM      5  C   UNL     1       1.590  12.239  19.884  0.00  0.00    +0.000 C 
ATOM      6  C   UNL     1       1.683  13.110  18.674  0.00  0.00    +0.000 C 
ATOM      7  C   UNL     1       0.202  13.305  18.330  0.00  0.00    +0.000 C 
ATOM      8  N   UNL     1      -0.524  13.167  19.615  0.00  0.00    +0.000 N 
ATOM      9  C   UNL     1      -1.819  12.756  19.755  0.00  0.00    +0.000 C 
ATOM     10  O   UNL     1      -2.750  13.488  20.059  0.00  0.00    +0.000 OA
ATOM     11  C   UNL     1      -2.033  11.365  19.281  0.00  0.00    +0.000 A 
ATOM     12  C   UNL     1      -2.947  11.426  18.202  0.00  0.00    +0.000 A 
ATOM     13  C   UNL     1      -2.617  10.777  17.044  0.00  0.00    +0.000 A 
ATOM     14  C   UNL     1      -1.489   9.919  17.071  0.00  0.00    +0.000 A 
ATOM     15  C   UNL     1      -0.763   9.638  18.266  0.00  0.00    +0.000 A 
ATOM     16  C   UNL     1      -0.993  10.371  19.417  0.00  0.00    +0.000 A 
ENDROOT
BRANCH   6  17
ATOM     17  O   UNL     1       2.411  12.416  17.668  0.00  0.00    +0.000 OA
ATOM     18  H   UNL     1       2.593  11.508  17.984  0.00  0.00    +0.000 HD
ENDBRANCH   6  17
BRANCH   1  19
ATOM     19  C   UNL     1       0.753   9.150  21.144  0.00  0.00    +0.000 C 
BRANCH  19  22
ATOM     20  C   UNL     1       2.871   7.168  18.263  0.00  0.00    +0.000 A 
ATOM     21  C   UNL     1       2.243   8.254  18.996  0.00  0.00    +0.000 A 
ATOM     22  C   UNL     1       1.464   8.087  20.198  0.00  0.00    +0.000 A 
ATOM     23  C   UNL     1       1.554   6.773  20.714  0.00  0.00    +0.000 A 
ATOM     24  C   UNL     1       2.183   5.688  20.051  0.00  0.00    +0.000 A 
ATOM     25  C   UNL     1       2.797   5.841  18.781  0.00  0.00    +0.000 A 
BRANCH  20  27
ATOM     26  C   UNL     1       4.968   7.038  17.037  0.00  0.00    +0.000 C 
ATOM     27  O   UNL     1       3.567   7.245  17.095  0.00  0.00    +0.000 OA
ENDBRANCH  20  27
BRANCH  24  28
ATOM     28  O   UNL     1       2.208   4.548  20.826  0.00  0.00    +0.000 OA
ATOM     29  C   UNL     1       1.104   3.656  20.719  0.00  0.00    +0.000 C 
ENDBRANCH  24  28
BRANCH  25  30
ATOM     30  O   UNL     1       3.268   4.678  18.252  0.00  0.00    +0.000 OA
ATOM     31  C   UNL     1       2.598   3.804  17.369  0.00  0.00    +0.000 C 
ENDBRANCH  25  30
ENDBRANCH  19  22
ENDBRANCH   1  19
TORSDOF 6
ENDMDL
MODEL 6
REMARK VINA RESULT:      -7.2      2.239      7.852
REMARK  Name = 
REMARK  9 active torsions:
REMARK  status: ('A' for Active; 'I' for Inactive)
REMARK    1  A    between atoms: C_1  and  O_2
REMARK    2  A    between atoms: O_2  and  C_3
REMARK    3  A    between atoms: C_5  and  C_6
REMARK    4  A    between atoms: C_6  and  N_7
REMARK    5  A    between atoms: C_12  and  O_13
REMARK    6  A    between atoms: C_25  and  O_26
REMARK    7  A    between atoms: O_26  and  C_27
REMARK    8  A    between atoms: C_28  and  O_29
REMARK    9  A    between atoms: O_29  and  C_30
REMARK                            x       y       z     vdW  Elec       q    Type
REMARK                         _______ _______ _______ _____ _____    ______ ____
ROOT
ATOM      1  N   UNL     1       1.439   9.792  19.166  0.00  0.00    +0.000 N 
ATOM      2  C   UNL     1       1.571  11.079  18.628  0.00  0.00    +0.000 C 
ATOM      3  O   UNL     1       2.492  11.410  17.879  0.00  0.00    +0.000 OA
ATOM      4  C   UNL     1       0.233  11.832  18.605  0.00  0.00    +0.000 C 
ATOM      5  C   UNL     1      -0.708  10.858  17.894  0.00  0.00    +0.000 C 
ATOM      6  C   UNL     1      -2.098  11.197  18.325  0.00  0.00    +0.000 C 
ATOM      7  C   UNL     1      -1.865  11.628  19.777  0.00  0.00    +0.000 C 
ATOM      8  N   UNL     1      -0.473  12.136  19.821  0.00  0.00    +0.000 N 
ATOM      9  C   UNL     1       0.337  12.142  20.921  0.00  0.00    +0.000 C 
ATOM     10  O   UNL     1       0.645  13.144  21.550  0.00  0.00    +0.000 OA
ATOM     11  C   UNL     1       0.632  10.775  21.422  0.00  0.00    +0.000 A 
ATOM     12  C   UNL     1       0.100  10.685  22.730  0.00  0.00    +0.000 A 
ATOM     13  C   UNL     1      -0.694   9.610  23.026  0.00  0.00    +0.000 A 
ATOM     14  C   UNL     1      -0.760   8.560  22.076  0.00  0.00    +0.000 A 
ATOM     15  C   UNL     1       0.037   8.541  20.893  0.00  0.00    +0.000 A 
ATOM     16  C   UNL     1       0.749   9.663  20.507  0.00  0.00    +0.000 A 
ENDROOT
BRANCH   6  17
ATOM     17  O   UNL     1      -2.910  10.035  18.202  0.00  0.00    +0.000 OA
ATOM     18  H   UNL     1      -2.575   9.497  17.456  0.00  0.00    +0.000 HD
ENDBRANCH   6  17
BRANCH   1  19
ATOM     19  C   UNL     1       1.968   8.724  18.237  0.00  0.00    +0.000 C 
BRANCH  19  22
ATOM     20  C   UNL     1       2.779   5.163  20.075  0.00  0.00    +0.000 A 
ATOM     21  C   UNL     1       2.160   6.446  19.790  0.00  0.00    +0.000 A 
ATOM     22  C   UNL     1       2.554   7.325  18.718  0.00  0.00    +0.000 A 
ATOM     23  C   UNL     1       3.469   6.709  17.832  0.00  0.00    +0.000 A 
ATOM     24  C   UNL     1       4.076   5.446  18.050  0.00  0.00    +0.000 A 
ATOM     25  C   UNL     1       3.799   4.672  19.207  0.00  0.00    +0.000 A 
BRANCH  20  27
ATOM     26  C   UNL     1       1.392   3.430  21.069  0.00  0.00    +0.000 C 
ATOM     27  O   UNL     1       2.500   4.312  21.101  0.00  0.00    +0.000 OA
ENDBRANCH  20  27
BRANCH  24  28
ATOM     28  O   UNL     1       4.848   5.047  16.980  0.00  0.00    +0.000 OA
ATOM     29  C   UNL     1       5.190   6.034  16.013  0.00  0.00    +0.000 C 
ENDBRANCH  24  28
BRANCH  25  30
ATOM     30  O   UNL     1       4.539   3.532  19.298  0.00  0.00    +0.000 OA
ATOM     31  C   UNL     1       4.129   2.217  18.990  0.00  0.00    +0.000 C 
ENDBRANCH  25  30
ENDBRANCH  19  22
ENDBRANCH   1  19
TORSDOF 6
ENDMDL
MODEL 7
REMARK VINA RESULT:      -7.2      2.246      7.959
REMARK  Name = 
REMARK  9 active torsions:
REMARK  status: ('A' for Active; 'I' for Inactive)
REMARK    1  A    between atoms: C_1  and  O_2
REMARK    2  A    between atoms: O_2  and  C_3
REMARK    3  A    between atoms: C_5  and  C_6
REMARK    4  A    between atoms: C_6  and  N_7
REMARK    5  A    between atoms: C_12  and  O_13
REMARK    6  A    between atoms: C_25  and  O_26
REMARK    7  A    between atoms: O_26  and  C_27
REMARK    8  A    between atoms: C_28  and  O_29
REMARK    9  A    between atoms: O_29  and  C_30
REMARK                            x       y       z     vdW  Elec       q    Type
REMARK                         _______ _______ _______ _____ _____    ______ ____
ROOT
ATOM      1  N   UNL     1       1.455   9.728  18.940  0.00  0.00    +0.000 N 
ATOM      2  C   UNL     1       1.626  11.051  18.514  0.00  0.00    +0.000 C 
ATOM      3  O   UNL     1       2.526  11.408  17.752  0.00  0.00    +0.000 OA
ATOM      4  C   UNL     1       0.327  11.863  18.628  0.00  0.00    +0.000 C 
ATOM      5  C   UNL     1      -0.693  11.003  17.880  0.00  0.00    +0.000 C 
ATOM      6  C   UNL     1      -2.042  11.364  18.411  0.00  0.00    +0.000 C 
ATOM      7  C   UNL     1      -1.721  11.647  19.882  0.00  0.00    +0.000 C 
ATOM      8  N   UNL     1      -0.305  12.086  19.900  0.00  0.00    +0.000 N 
ATOM      9  C   UNL     1       0.555  11.953  20.953  0.00  0.00    +0.000 C 
ATOM     10  O   UNL     1       0.942  12.878  21.654  0.00  0.00    +0.000 OA
ATOM     11  C   UNL     1       0.805  10.534  21.314  0.00  0.00    +0.000 A 
ATOM     12  C   UNL     1       0.330  10.348  22.634  0.00  0.00    +0.000 A 
ATOM     13  C   UNL     1      -0.502   9.288  22.872  0.00  0.00    +0.000 A 
ATOM     14  C   UNL     1      -0.664   8.334  21.837  0.00  0.00    +0.000 A 
ATOM     15  C   UNL     1       0.075   8.388  20.617  0.00  0.00    +0.000 A 
ATOM     16  C   UNL     1       0.823   9.507  20.298  0.00  0.00    +0.000 A 
ENDROOT
BRANCH   6  17
ATOM     17  O   UNL     1      -2.916  10.256  18.226  0.00  0.00    +0.000 OA
ATOM     18  H   UNL     1      -2.498   9.630  17.600  0.00  0.00    +0.000 HD
ENDBRANCH   6  17
BRANCH   1  19
ATOM     19  C   UNL     1       1.886   8.727  17.893  0.00  0.00    +0.000 C 
BRANCH  19  22
ATOM     20  C   UNL     1       3.895   5.389  19.133  0.00  0.00    +0.000 A 
ATOM     21  C   UNL     1       2.874   6.419  19.048  0.00  0.00    +0.000 A 
ATOM     22  C   UNL     1       2.921   7.546  18.151  0.00  0.00    +0.000 A 
ATOM     23  C   UNL     1       3.965   7.431  17.205  0.00  0.00    +0.000 A 
ATOM     24  C   UNL     1       4.967   6.428  17.227  0.00  0.00    +0.000 A 
ATOM     25  C   UNL     1       4.998   5.423  18.228  0.00  0.00    +0.000 A 
BRANCH  20  27
ATOM     26  C   UNL     1       2.993   3.286  19.957  0.00  0.00    +0.000 C 
ATOM     27  O   UNL     1       3.946   4.334  19.993  0.00  0.00    +0.000 OA
ENDBRANCH  20  27
BRANCH  24  28
ATOM     28  O   UNL     1       5.800   6.498  16.130  0.00  0.00    +0.000 OA
ATOM     29  C   UNL     1       5.539   5.608  15.050  0.00  0.00    +0.000 C 
ENDBRANCH  24  28
BRANCH  25  30
ATOM     30  O   UNL     1       6.080   4.599  18.151  0.00  0.00    +0.000 OA
ATOM     31  C   UNL     1       7.437   4.949  18.313  0.00  0.00    +0.000 C 
ENDBRANCH  25  30
ENDBRANCH  19  22
ENDBRANCH   1  19
TORSDOF 6
ENDMDL
MODEL 8
REMARK VINA RESULT:      -7.1      1.783      3.612
REMARK  Name = 
REMARK  9 active torsions:
REMARK  status: ('A' for Active; 'I' for Inactive)
REMARK    1  A    between atoms: C_1  and  O_2
REMARK    2  A    between atoms: O_2  and  C_3
REMARK    3  A    between atoms: C_5  and  C_6
REMARK    4  A    between atoms: C_6  and  N_7
REMARK    5  A    between atoms: C_12  and  O_13
REMARK    6  A    between atoms: C_25  and  O_26
REMARK    7  A    between atoms: O_26  and  C_27
REMARK    8  A    between atoms: C_28  and  O_29
REMARK    9  A    between atoms: O_29  and  C_30
REMARK                            x       y       z     vdW  Elec       q    Type
REMARK                         _______ _______ _______ _____ _____    ______ ____
ROOT
ATOM      1  N   UNL     1       2.887   6.586  18.910  0.00  0.00    +0.000 N 
ATOM      2  C   UNL     1       2.856   5.711  20.004  0.00  0.00    +0.000 C 
ATOM      3  O   UNL     1       2.244   5.950  21.046  0.00  0.00    +0.000 OA
ATOM      4  C   UNL     1       3.165   4.264  19.590  0.00  0.00    +0.000 C 
ATOM      5  C   UNL     1       2.184   4.006  18.445  0.00  0.00    +0.000 C 
ATOM      6  C   UNL     1       2.766   2.914  17.608  0.00  0.00    +0.000 C 
ATOM      7  C   UNL     1       4.264   3.219  17.716  0.00  0.00    +0.000 C 
ATOM      8  N   UNL     1       4.435   3.908  19.017  0.00  0.00    +0.000 N 
ATOM      9  C   UNL     1       5.426   4.797  19.322  0.00  0.00    +0.000 C 
ATOM     10  O   UNL     1       6.367   4.559  20.066  0.00  0.00    +0.000 OA
ATOM     11  C   UNL     1       5.378   6.019  18.479  0.00  0.00    +0.000 A 
ATOM     12  C   UNL     1       6.581   6.064  17.736  0.00  0.00    +0.000 A 
ATOM     13  C   UNL     1       6.494   6.260  16.385  0.00  0.00    +0.000 A 
ATOM     14  C   UNL     1       5.228   6.612  15.853  0.00  0.00    +0.000 A 
ATOM     15  C   UNL     1       4.089   6.863  16.676  0.00  0.00    +0.000 A 
ATOM     16  C   UNL     1       4.114   6.551  18.024  0.00  0.00    +0.000 A 
ENDROOT
BRANCH   6  17
ATOM     17  O   UNL     1       2.257   3.035  16.284  0.00  0.00    +0.000 OA
ATOM     18  H   UNL     1       2.530   2.248  15.771  0.00  0.00    +0.000 HD
ENDBRANCH   6  17
BRANCH   1  19
ATOM     19  C   UNL     1       1.610   7.382  18.774  0.00  0.00    +0.000 C 
BRANCH  19  22
ATOM     20  C   UNL     1       0.976  11.391  19.261  0.00  0.00    +0.000 A 
ATOM     21  C   UNL     1       1.178  10.107  18.613  0.00  0.00    +0.000 A 
ATOM     22  C   UNL     1       1.416   8.868  19.310  0.00  0.00    +0.000 A 
ATOM     23  C   UNL     1       1.219   8.993  20.704  0.00  0.00    +0.000 A 
ATOM     24  C   UNL     1       0.988  10.218  21.379  0.00  0.00    +0.000 A 
ATOM     25  C   UNL     1       0.928  11.455  20.685  0.00  0.00    +0.000 A 
BRANCH  20  27
ATOM     26  C   UNL     1      -0.462  13.058  18.226  0.00  0.00    +0.000 C 
ATOM     27  O   UNL     1       0.805  12.606  18.669  0.00  0.00    +0.000 OA
ENDBRANCH  20  27
BRANCH  24  28
ATOM     28  O   UNL     1       0.733  10.035  22.722  0.00  0.00    +0.000 OA
ATOM     29  C   UNL     1      -0.576   9.613  23.089  0.00  0.00    +0.000 C 
ENDBRANCH  24  28
BRANCH  25  30
ATOM     30  O   UNL     1       0.793  12.539  21.499  0.00  0.00    +0.000 OA
ATOM     31  C   UNL     1      -0.408  13.147  21.925  0.00  0.00    +0.000 C 
ENDBRANCH  25  30
ENDBRANCH  19  22
ENDBRANCH   1  19
TORSDOF 6
ENDMDL
MODEL 9
REMARK VINA RESULT:      -7.0      1.061      1.215
REMARK  Name = 
REMARK  9 active torsions:
REMARK  status: ('A' for Active; 'I' for Inactive)
REMARK    1  A    between atoms: C_1  and  O_2
REMARK    2  A    between atoms: O_2  and  C_3
REMARK    3  A    between atoms: C_5  and  C_6
REMARK    4  A    between atoms: C_6  and  N_7
REMARK    5  A    between atoms: C_12  and  O_13
REMARK    6  A    between atoms: C_25  and  O_26
REMARK    7  A    between atoms: O_26  and  C_27
REMARK    8  A    between atoms: C_28  and  O_29
REMARK    9  A    between atoms: O_29  and  C_30
REMARK                            x       y       z     vdW  Elec       q    Type
REMARK                         _______ _______ _______ _____ _____    ______ ____
ROOT
ATOM      1  N   UNL     1       2.182   6.700  19.379  0.00  0.00    +0.000 N 
ATOM      2  C   UNL     1       2.533   6.856  18.032  0.00  0.00    +0.000 C 
ATOM      3  O   UNL     1       2.255   7.857  17.370  0.00  0.00    +0.000 OA
ATOM      4  C   UNL     1       3.720   5.963  17.641  0.00  0.00    +0.000 C 
ATOM      5  C   UNL     1       4.777   6.299  18.695  0.00  0.00    +0.000 C 
ATOM      6  C   UNL     1       5.696   5.125  18.783  0.00  0.00    +0.000 C 
ATOM      7  C   UNL     1       4.725   3.964  18.541  0.00  0.00    +0.000 C 
ATOM      8  N   UNL     1       3.631   4.529  17.716  0.00  0.00    +0.000 N 
ATOM      9  C   UNL     1       2.344   4.072  17.681  0.00  0.00    +0.000 C 
ATOM     10  O   UNL     1       1.851   3.459  16.745  0.00  0.00    +0.000 OA
ATOM     11  C   UNL     1       1.658   4.193  18.993  0.00  0.00    +0.000 A 
ATOM     12  C   UNL     1       1.330   2.883  19.417  0.00  0.00    +0.000 A 
ATOM     13  C   UNL     1       1.678   2.514  20.687  0.00  0.00    +0.000 A 
ATOM     14  C   UNL     1       2.153   3.526  21.559  0.00  0.00    +0.000 A 
ATOM     15  C   UNL     1       2.182   4.905  21.194  0.00  0.00    +0.000 A 
ATOM     16  C   UNL     1       1.958   5.291  19.884  0.00  0.00    +0.000 A 
ENDROOT
BRANCH   6  17
ATOM     17  O   UNL     1       6.289   5.107  20.076  0.00  0.00    +0.000 OA
ATOM     18  H   UNL     1       5.608   4.844  20.729  0.00  0.00    +0.000 HD
ENDBRANCH   6  17
BRANCH   1  19
ATOM     19  C   UNL     1       2.161   8.015  20.124  0.00  0.00    +0.000 C 
BRANCH  19  22
ATOM     20  C   UNL     1      -1.024  10.345  19.052  0.00  0.00    +0.000 A 
ATOM     21  C   UNL     1      -0.158   9.185  19.178  0.00  0.00    +0.000 A 
ATOM     22  C   UNL     1       1.116   9.184  19.852  0.00  0.00    +0.000 A 
ATOM     23  C   UNL     1       1.342  10.383  20.567  0.00  0.00    +0.000 A 
ATOM     24  C   UNL     1       0.511  11.530  20.501  0.00  0.00    +0.000 A 
ATOM     25  C   UNL     1      -0.654  11.565  19.691  0.00  0.00    +0.000 A 
BRANCH  20  27
ATOM     26  C   UNL     1      -2.277  10.390  16.968  0.00  0.00    +0.000 C 
ATOM     27  O   UNL     1      -2.207  10.433  18.382  0.00  0.00    +0.000 OA
ENDBRANCH  20  27
BRANCH  24  28
ATOM     28  O   UNL     1       0.913  12.517  21.376  0.00  0.00    +0.000 OA
ATOM     29  C   UNL     1       1.898  13.437  20.920  0.00  0.00    +0.000 C 
ENDBRANCH  24  28
BRANCH  25  30
ATOM     30  O   UNL     1      -1.280  12.775  19.675  0.00  0.00    +0.000 OA
ATOM     31  C   UNL     1      -2.391  13.175  20.448  0.00  0.00    +0.000 C 
ENDBRANCH  25  30
ENDBRANCH  19  22
ENDBRANCH   1  19
TORSDOF 6
ENDMDL
