MODEL 1
REMARK VINA RESULT:      -8.4      0.000      0.000
REMARK  Name = 
REMARK  8 active torsions:
REMARK  status: ('A' for Active; 'I' for Inactive)
REMARK    1  A    between atoms: C_1  and  C_2
REMARK    2  A    between atoms: C_5  and  C_6
REMARK    3  A    between atoms: C_7  and  N_8
REMARK    4  A    between atoms: C_13  and  C_14
REMARK    5  A    between atoms: C_13  and  N_17
REMARK    6  A    between atoms: C_14  and  C_15
REMARK    7  A    between atoms: C_19  and  C_20
REMARK    8  A    between atoms: N_24  and  C_25
REMARK                            x       y       z     vdW  Elec       q    Type
REMARK                         _______ _______ _______ _____ _____    ______ ____
ROOT
ATOM      1  N   UNL     1       1.681   8.535  20.555  0.00  0.00    +0.000 N 
ATOM      2  C   UNL     1       0.443   8.903  21.065  0.00  0.00    +0.000 C 
ATOM      3  O   UNL     1      -0.556   8.190  21.071  0.00  0.00    +0.000 OA
ATOM      4  N   UNL     1       0.471  10.131  21.724  0.00  0.00    +0.000 N 
ATOM      5  C   UNL     1      -0.674  10.693  22.448  0.00  0.00    +0.000 C 
ATOM      6  C   UNL     1      -0.505  12.003  21.648  0.00  0.00    +0.000 C 
ATOM      7  C   UNL     1       0.858  11.422  21.136  0.00  0.00    +0.000 C 
ATOM      8  H   UNL     1       2.437   8.945  21.079  0.00  0.00    +0.000 HD
ENDROOT
BRANCH   1  15
ATOM      9  C   UNL     1       1.646   3.580  21.071  0.00  0.00    +0.000 C 
ATOM     10  C   UNL     1       1.904   4.807  20.242  0.00  0.00    +0.000 A 
ATOM     11  C   UNL     1       2.310   4.678  18.912  0.00  0.00    +0.000 A 
ATOM     12  C   UNL     1       2.519   5.813  18.133  0.00  0.00    +0.000 A 
ATOM     13  C   UNL     1       2.313   7.101  18.662  0.00  0.00    +0.000 A 
ATOM     14  C   UNL     1       2.620   8.281  17.783  0.00  0.00    +0.000 C 
ATOM     15  C   UNL     1       1.919   7.243  20.008  0.00  0.00    +0.000 A 
ATOM     16  C   UNL     1       1.726   6.093  20.789  0.00  0.00    +0.000 A 
ENDBRANCH   1  15
BRANCH   6  17
ATOM     17  N   UNL     1      -1.517  12.088  20.595  0.00  0.00    +0.000 N 
ATOM     18  C   UNL     1      -1.399  11.639  19.300  0.00  0.00    +0.000 A 
ATOM     19  C   UNL     1      -2.666  11.734  18.740  0.00  0.00    +0.000 A 
ATOM     20  C   UNL     1      -3.480  12.236  19.789  0.00  0.00    +0.000 A 
ATOM     21  N   UNL     1      -4.815  12.426  19.719  0.00  0.00    +0.000 N 
ATOM     22  N   UNL     1      -2.759  12.452  20.887  0.00  0.00    +0.000 NA
ATOM     23  H   UNL     1      -5.260  12.509  18.807  0.00  0.00    +0.000 HD
BRANCH  21  24
ATOM     24  C   UNL     1      -5.727  12.361  20.797  0.00  0.00    +0.000 A 
ATOM     25  C   UNL     1      -6.907  11.622  20.673  0.00  0.00    +0.000 A 
ATOM     26  C   UNL     1      -7.858  11.617  21.701  0.00  0.00    +0.000 A 
ATOM     27  C   UNL     1      -7.639  12.350  22.867  0.00  0.00    +0.000 A 
ATOM     28  C   UNL     1      -6.477  13.098  23.005  0.00  0.00    +0.000 A 
ATOM     29  C   UNL     1      -5.538  13.111  21.972  0.00  0.00    +0.000 A 
ENDBRANCH  21  24
BRANCH  19  30
ATOM     30  C   UNL     1      -3.082  11.367  17.400  0.00  0.00    +0.000 C 
ATOM     31  N   UNL     1      -2.188  11.638  16.398  0.00  0.00    +0.000 N 
ATOM     32  O   UNL     1      -4.138  10.795  17.155  0.00  0.00    +0.000 OA
ATOM     33  H   UNL     1      -1.217  11.817  16.600  0.00  0.00    +0.000 HD
ATOM     34  H   UNL     1      -2.415  11.252  15.491  0.00  0.00    +0.000 HD
ENDBRANCH  19  30
ENDBRANCH   6  17
BRANCH   6  35
ATOM     35  C   UNL     1      -0.525  13.285  22.486  0.00  0.00    +0.000 C 
BRANCH  35  36
ATOM     36  C   UNL     1       0.175  14.416  21.865  0.00  0.00    +0.000 C 
ATOM     37  N   UNL     1       0.716  15.317  21.378  0.00  0.00    +0.000 NA
ENDBRANCH  35  36
ENDBRANCH   6  35
TORSDOF 6
ENDMDL
MODEL 2
REMARK VINA RESULT:      -7.9      6.352     10.224
REMARK  Name = 
REMARK  8 active torsions:
REMARK  status: ('A' for Active; 'I' for Inactive)
REMARK    1  A    between atoms: C_1  and  C_2
REMARK    2  A    between atoms: C_5  and  C_6
REMARK    3  A    between atoms: C_7  and  N_8
REMARK    4  A    between atoms: C_13  and  C_14
REMARK    5  A    between atoms: C_13  and  N_17
REMARK    6  A    between atoms: C_14  and  C_15
REMARK    7  A    between atoms: C_19  and  C_20
REMARK    8  A    between atoms: N_24  and  C_25
REMARK                            x       y       z     vdW  Elec       q    Type
REMARK                         _______ _______ _______ _____ _____    ______ ____
ROOT
ATOM      1  N   UNL     1       9.110   9.260  19.322  0.00  0.00    +0.000 N 
ATOM      2  C   UNL     1       8.209   9.089  18.280  0.00  0.00    +0.000 C 
ATOM      3  O   UNL     1       7.637   9.998  17.687  0.00  0.00    +0.000 OA
ATOM      4  N   UNL     1       8.124   7.765  17.850  0.00  0.00    +0.000 N 
ATOM      5  C   UNL     1       7.333   7.334  16.691  0.00  0.00    +0.000 C 
ATOM      6  C   UNL     1       6.656   6.270  17.581  0.00  0.00    +0.000 C 
ATOM      7  C   UNL     1       7.730   6.611  18.671  0.00  0.00    +0.000 C 
ATOM      8  H   UNL     1       9.833   8.560  19.310  0.00  0.00    +0.000 HD
ENDROOT
BRANCH   1  15
ATOM      9  C   UNL     1       8.931  12.768  22.856  0.00  0.00    +0.000 C 
ATOM     10  C   UNL     1       9.413  12.283  21.517  0.00  0.00    +0.000 A 
ATOM     11  C   UNL     1      10.288  13.069  20.764  0.00  0.00    +0.000 A 
ATOM     12  C   UNL     1      10.761  12.608  19.539  0.00  0.00    +0.000 A 
ATOM     13  C   UNL     1      10.382  11.346  19.046  0.00  0.00    +0.000 A 
ATOM     14  C   UNL     1      10.880  10.941  17.687  0.00  0.00    +0.000 C 
ATOM     15  C   UNL     1       9.487  10.551  19.790  0.00  0.00    +0.000 A 
ATOM     16  C   UNL     1       9.004  11.032  21.017  0.00  0.00    +0.000 A 
ENDBRANCH   1  15
BRANCH   6  17
ATOM     17  N   UNL     1       5.310   6.703  17.955  0.00  0.00    +0.000 N 
ATOM     18  C   UNL     1       4.655   7.830  17.518  0.00  0.00    +0.000 A 
ATOM     19  C   UNL     1       3.344   7.712  17.960  0.00  0.00    +0.000 A 
ATOM     20  C   UNL     1       3.311   6.468  18.641  0.00  0.00    +0.000 A 
ATOM     21  N   UNL     1       2.210   5.904  19.184  0.00  0.00    +0.000 N 
ATOM     22  N   UNL     1       4.510   5.890  18.634  0.00  0.00    +0.000 NA
ATOM     23  H   UNL     1       1.406   6.488  19.402  0.00  0.00    +0.000 HD
BRANCH  21  24
ATOM     24  C   UNL     1       1.971   4.520  19.345  0.00  0.00    +0.000 A 
ATOM     25  C   UNL     1       2.004   3.946  20.619  0.00  0.00    +0.000 A 
ATOM     26  C   UNL     1       1.852   2.564  20.784  0.00  0.00    +0.000 A 
ATOM     27  C   UNL     1       1.663   1.738  19.677  0.00  0.00    +0.000 A 
ATOM     28  C   UNL     1       1.637   2.289  18.401  0.00  0.00    +0.000 A 
ATOM     29  C   UNL     1       1.802   3.665  18.240  0.00  0.00    +0.000 A 
ENDBRANCH  21  24
BRANCH  19  30
ATOM     30  C   UNL     1       2.241   8.630  17.746  0.00  0.00    +0.000 C 
ATOM     31  N   UNL     1       2.549   9.963  17.806  0.00  0.00    +0.000 N 
ATOM     32  O   UNL     1       1.106   8.265  17.467  0.00  0.00    +0.000 OA
ATOM     33  H   UNL     1       3.502  10.283  17.727  0.00  0.00    +0.000 HD
ATOM     34  H   UNL     1       1.817  10.597  17.514  0.00  0.00    +0.000 HD
ENDBRANCH  19  30
ENDBRANCH   6  17
BRANCH   6  35
ATOM     35  C   UNL     1       6.596   4.861  16.980  0.00  0.00    +0.000 C 
BRANCH  35  36
ATOM     36  C   UNL     1       5.949   4.799  15.665  0.00  0.00    +0.000 C 
ATOM     37  N   UNL     1       5.450   4.754  14.620  0.00  0.00    +0.000 NA
ENDBRANCH  35  36
ENDBRANCH   6  35
TORSDOF 6
ENDMDL
MODEL 3
REMARK VINA RESULT:      -7.8      4.549     11.169
REMARK  Name = 
REMARK  8 active torsions:
REMARK  status: ('A' for Active; 'I' for Inactive)
REMARK    1  A    between atoms: C_1  and  C_2
REMARK    2  A    between atoms: C_5  and  C_6
REMARK    3  A    between atoms: C_7  and  N_8
REMARK    4  A    between atoms: C_13  and  C_14
REMARK    5  A    between atoms: C_13  and  N_17
REMARK    6  A    between atoms: C_14  and  C_15
REMARK    7  A    between atoms: C_19  and  C_20
REMARK    8  A    between atoms: N_24  and  C_25
REMARK                            x       y       z     vdW  Elec       q    Type
REMARK                         _______ _______ _______ _____ _____    ______ ____
ROOT
ATOM      1  N   UNL     1       0.842   8.089  19.562  0.00  0.00    +0.000 N 
ATOM      2  C   UNL     1       1.856   7.305  20.095  0.00  0.00    +0.000 C 
ATOM      3  O   UNL     1       2.618   7.653  20.993  0.00  0.00    +0.000 OA
ATOM      4  N   UNL     1       1.840   5.997  19.614  0.00  0.00    +0.000 N 
ATOM      5  C   UNL     1       2.731   4.938  20.101  0.00  0.00    +0.000 C 
ATOM      6  C   UNL     1       3.134   4.640  18.641  0.00  0.00    +0.000 C 
ATOM      7  C   UNL     1       1.964   5.589  18.207  0.00  0.00    +0.000 C 
ATOM      8  H   UNL     1       0.047   7.535  19.288  0.00  0.00    +0.000 HD
ENDROOT
BRANCH   1  15
ATOM      9  C   UNL     1      -1.191  11.038  23.025  0.00  0.00    +0.000 C 
ATOM     10  C   UNL     1      -0.426  10.861  21.743  0.00  0.00    +0.000 A 
ATOM     11  C   UNL     1       0.073  11.977  21.068  0.00  0.00    +0.000 A 
ATOM     12  C   UNL     1       0.809  11.813  19.898  0.00  0.00    +0.000 A 
ATOM     13  C   UNL     1       1.075  10.530  19.385  0.00  0.00    +0.000 A 
ATOM     14  C   UNL     1       1.821  10.432  18.084  0.00  0.00    +0.000 C 
ATOM     15  C   UNL     1       0.563   9.397  20.050  0.00  0.00    +0.000 A 
ATOM     16  C   UNL     1      -0.191   9.575  21.220  0.00  0.00    +0.000 A 
ENDBRANCH   1  15
BRANCH   6  17
ATOM     17  N   UNL     1       4.454   5.201  18.355  0.00  0.00    +0.000 N 
ATOM     18  C   UNL     1       5.434   5.512  19.268  0.00  0.00    +0.000 A 
ATOM     19  C   UNL     1       6.573   5.804  18.531  0.00  0.00    +0.000 A 
ATOM     20  C   UNL     1       6.177   5.622  17.181  0.00  0.00    +0.000 A 
ATOM     21  N   UNL     1       6.989   5.733  16.106  0.00  0.00    +0.000 N 
ATOM     22  N   UNL     1       4.894   5.274  17.105  0.00  0.00    +0.000 NA
ATOM     23  H   UNL     1       7.858   6.254  16.190  0.00  0.00    +0.000 HD
BRANCH  21  24
ATOM     24  C   UNL     1       6.847   5.049  14.877  0.00  0.00    +0.000 A 
ATOM     25  C   UNL     1       7.702   5.342  13.811  0.00  0.00    +0.000 A 
ATOM     26  C   UNL     1       7.521   4.733  12.563  0.00  0.00    +0.000 A 
ATOM     27  C   UNL     1       6.484   3.822  12.366  0.00  0.00    +0.000 A 
ATOM     28  C   UNL     1       5.619   3.525  13.412  0.00  0.00    +0.000 A 
ATOM     29  C   UNL     1       5.795   4.144  14.650  0.00  0.00    +0.000 A 
ENDBRANCH  21  24
BRANCH  19  30
ATOM     30  C   UNL     1       7.888   6.173  19.022  0.00  0.00    +0.000 C 
ATOM     31  N   UNL     1       8.474   5.290  19.889  0.00  0.00    +0.000 N 
ATOM     32  O   UNL     1       8.486   7.178  18.656  0.00  0.00    +0.000 OA
ATOM     33  H   UNL     1       8.151   4.338  19.963  0.00  0.00    +0.000 HD
ATOM     34  H   UNL     1       9.443   5.474  20.115  0.00  0.00    +0.000 HD
ENDBRANCH  19  30
ENDBRANCH   6  17
BRANCH   6  35
ATOM     35  C   UNL     1       3.106   3.160  18.246  0.00  0.00    +0.000 C 
BRANCH  35  36
ATOM     36  C   UNL     1       3.995   2.311  19.047  0.00  0.00    +0.000 C 
ATOM     37  N   UNL     1       4.700   1.651  19.688  0.00  0.00    +0.000 NA
ENDBRANCH  35  36
ENDBRANCH   6  35
TORSDOF 6
ENDMDL
MODEL 4
REMARK VINA RESULT:      -7.8      0.856      1.273
REMARK  Name = 
REMARK  8 active torsions:
REMARK  status: ('A' for Active; 'I' for Inactive)
REMARK    1  A    between atoms: C_1  and  C_2
REMARK    2  A    between atoms: C_5  and  C_6
REMARK    3  A    between atoms: C_7  and  N_8
REMARK    4  A    between atoms: C_13  and  C_14
REMARK    5  A    between atoms: C_13  and  N_17
REMARK    6  A    between atoms: C_14  and  C_15
REMARK    7  A    between atoms: C_19  and  C_20
REMARK    8  A    between atoms: N_24  and  C_25
REMARK                            x       y       z     vdW  Elec       q    Type
REMARK                         _______ _______ _______ _____ _____    ______ ____
ROOT
ATOM      1  N   UNL     1       1.793   8.359  20.572  0.00  0.00    +0.000 N 
ATOM      2  C   UNL     1       0.556   8.799  21.022  0.00  0.00    +0.000 C 
ATOM      3  O   UNL     1      -0.472   8.128  21.025  0.00  0.00    +0.000 OA
ATOM      4  N   UNL     1       0.613  10.054  21.626  0.00  0.00    +0.000 N 
ATOM      5  C   UNL     1      -0.531  10.695  22.285  0.00  0.00    +0.000 C 
ATOM      6  C   UNL     1      -0.281  11.958  21.434  0.00  0.00    +0.000 C 
ATOM      7  C   UNL     1       1.073  11.300  20.995  0.00  0.00    +0.000 C 
ATOM      8  H   UNL     1       2.548   8.762  21.103  0.00  0.00    +0.000 HD
ENDROOT
BRANCH   1  15
ATOM      9  C   UNL     1       1.506   3.439  21.294  0.00  0.00    +0.000 C 
ATOM     10  C   UNL     1       1.857   4.615  20.427  0.00  0.00    +0.000 A 
ATOM     11  C   UNL     1       2.314   4.409  19.123  0.00  0.00    +0.000 A 
ATOM     12  C   UNL     1       2.609   5.498  18.308  0.00  0.00    +0.000 A 
ATOM     13  C   UNL     1       2.441   6.816  18.772  0.00  0.00    +0.000 A 
ATOM     14  C   UNL     1       2.840   7.941  17.859  0.00  0.00    +0.000 C 
ATOM     15  C   UNL     1       1.995   7.035  20.091  0.00  0.00    +0.000 A 
ATOM     16  C   UNL     1       1.715   5.930  20.910  0.00  0.00    +0.000 A 
ENDBRANCH   1  15
BRANCH   6  17
ATOM     17  N   UNL     1      -1.253  12.036  20.343  0.00  0.00    +0.000 N 
ATOM     18  C   UNL     1      -1.106  11.537  19.070  0.00  0.00    +0.000 A 
ATOM     19  C   UNL     1      -2.350  11.650  18.464  0.00  0.00    +0.000 A 
ATOM     20  C   UNL     1      -3.182  12.214  19.465  0.00  0.00    +0.000 A 
ATOM     21  N   UNL     1      -4.508  12.442  19.342  0.00  0.00    +0.000 N 
ATOM     22  N   UNL     1      -2.492  12.448  20.579  0.00  0.00    +0.000 NA
ATOM     23  H   UNL     1      -4.919  12.505  18.413  0.00  0.00    +0.000 HD
BRANCH  21  24
ATOM     24  C   UNL     1      -5.457  12.445  20.389  0.00  0.00    +0.000 A 
ATOM     25  C   UNL     1      -5.237  13.217  21.533  0.00  0.00    +0.000 A 
ATOM     26  C   UNL     1      -6.128  13.164  22.612  0.00  0.00    +0.000 A 
ATOM     27  C   UNL     1      -7.252  12.341  22.560  0.00  0.00    +0.000 A 
ATOM     28  C   UNL     1      -7.483  11.559  21.435  0.00  0.00    +0.000 A 
ATOM     29  C   UNL     1      -6.585  11.604  20.367  0.00  0.00    +0.000 A 
ENDBRANCH  21  24
BRANCH  19  30
ATOM     30  C   UNL     1      -2.732  11.247  17.123  0.00  0.00    +0.000 C 
ATOM     31  N   UNL     1      -1.886  10.372  16.495  0.00  0.00    +0.000 N 
ATOM     32  O   UNL     1      -3.772  11.605  16.583  0.00  0.00    +0.000 OA
ATOM     33  H   UNL     1      -1.209   9.836  17.015  0.00  0.00    +0.000 HD
ATOM     34  H   UNL     1      -2.225   9.981  15.626  0.00  0.00    +0.000 HD
ENDBRANCH  19  30
ENDBRANCH   6  17
BRANCH   6  35
ATOM     35  C   UNL     1      -0.274  13.278  22.213  0.00  0.00    +0.000 C 
BRANCH  35  36
ATOM     36  C   UNL     1      -1.396  13.427  23.146  0.00  0.00    +0.000 C 
ATOM     37  N   UNL     1      -2.291  13.540  23.873  0.00  0.00    +0.000 NA
ENDBRANCH  35  36
ENDBRANCH   6  35
TORSDOF 6
ENDMDL
MODEL 5
REMARK VINA RESULT:      -7.8      4.593     11.202
REMARK  Name = 
REMARK  8 active torsions:
REMARK  status: ('A' for Active; 'I' for Inactive)
REMARK    1  A    between atoms: C_1  and  C_2
REMARK    2  A    between atoms: C_5  and  C_6
REMARK    3  A    between atoms: C_7  and  N_8
REMARK    4  A    between atoms: C_13  and  C_14
REMARK    5  A    between atoms: C_13  and  N_17
REMARK    6  A    between atoms: C_14  and  C_15
REMARK    7  A    between atoms: C_19  and  C_20
REMARK    8  A    between atoms: N_24  and  C_25
REMARK                            x       y       z     vdW  Elec       q    Type
REMARK                         _______ _______ _______ _____ _____    ______ ____
ROOT
ATOM      1  N   UNL     1       0.901   8.329  19.315  0.00  0.00    +0.000 N 
ATOM      2  C   UNL     1       1.819   7.421  19.826  0.00  0.00    +0.000 C 
ATOM      3  O   UNL     1       2.555   7.629  20.786  0.00  0.00    +0.000 OA
ATOM      4  N   UNL     1       1.724   6.162  19.235  0.00  0.00    +0.000 N 
ATOM      5  C   UNL     1       2.499   4.996  19.671  0.00  0.00    +0.000 C 
ATOM      6  C   UNL     1       2.957   4.786  18.212  0.00  0.00    +0.000 C 
ATOM      7  C   UNL     1       1.892   5.862  17.805  0.00  0.00    +0.000 C 
ATOM      8  H   UNL     1       0.081   7.869  18.956  0.00  0.00    +0.000 HD
ENDROOT
BRANCH   1  15
ATOM      9  C   UNL     1      -1.000  11.137  22.964  0.00  0.00    +0.000 C 
ATOM     10  C   UNL     1      -0.222  11.006  21.686  0.00  0.00    +0.000 A 
ATOM     11  C   UNL     1       0.367  12.133  21.108  0.00  0.00    +0.000 A 
ATOM     12  C   UNL     1       1.114  12.009  19.941  0.00  0.00    +0.000 A 
ATOM     13  C   UNL     1       1.304  10.754  19.333  0.00  0.00    +0.000 A 
ATOM     14  C   UNL     1       2.069  10.705  18.040  0.00  0.00    +0.000 C 
ATOM     15  C   UNL     1       0.702   9.612  19.898  0.00  0.00    +0.000 A 
ATOM     16  C   UNL     1      -0.063   9.751  21.067  0.00  0.00    +0.000 A 
ENDBRANCH   1  15
BRANCH   6  17
ATOM     17  N   UNL     1       4.331   5.255  18.039  0.00  0.00    +0.000 N 
ATOM     18  C   UNL     1       5.276   5.422  19.024  0.00  0.00    +0.000 A 
ATOM     19  C   UNL     1       6.477   5.668  18.372  0.00  0.00    +0.000 A 
ATOM     20  C   UNL     1       6.149   5.612  16.993  0.00  0.00    +0.000 A 
ATOM     21  N   UNL     1       7.029   5.727  15.975  0.00  0.00    +0.000 N 
ATOM     22  N   UNL     1       4.849   5.376  16.823  0.00  0.00    +0.000 NA
ATOM     23  H   UNL     1       7.930   6.169  16.142  0.00  0.00    +0.000 HD
BRANCH  21  24
ATOM     24  C   UNL     1       6.908   5.143  14.693  0.00  0.00    +0.000 A 
ATOM     25  C   UNL     1       5.987   4.114  14.477  0.00  0.00    +0.000 A 
ATOM     26  C   UNL     1       5.916   3.470  13.235  0.00  0.00    +0.000 A 
ATOM     27  C   UNL     1       6.763   3.848  12.194  0.00  0.00    +0.000 A 
ATOM     28  C   UNL     1       7.691   4.862  12.394  0.00  0.00    +0.000 A 
ATOM     29  C   UNL     1       7.768   5.492  13.637  0.00  0.00    +0.000 A 
ENDBRANCH  21  24
BRANCH  19  30
ATOM     30  C   UNL     1       7.784   5.894  18.959  0.00  0.00    +0.000 C 
ATOM     31  N   UNL     1       8.304   7.151  18.800  0.00  0.00    +0.000 N 
ATOM     32  O   UNL     1       8.384   5.049  19.612  0.00  0.00    +0.000 OA
ATOM     33  H   UNL     1       7.718   7.931  18.546  0.00  0.00    +0.000 HD
ATOM     34  H   UNL     1       9.143   7.350  19.330  0.00  0.00    +0.000 HD
ENDBRANCH  19  30
ENDBRANCH   6  17
BRANCH   6  35
ATOM     35  C   UNL     1       2.832   3.350  17.691  0.00  0.00    +0.000 C 
BRANCH  35  36
ATOM     36  C   UNL     1       3.537   2.355  18.507  0.00  0.00    +0.000 C 
ATOM     37  N   UNL     1       4.085   1.558  19.145  0.00  0.00    +0.000 NA
ENDBRANCH  35  36
ENDBRANCH   6  35
TORSDOF 6
ENDMDL
MODEL 6
REMARK VINA RESULT:      -7.7      4.635     11.349
REMARK  Name = 
REMARK  8 active torsions:
REMARK  status: ('A' for Active; 'I' for Inactive)
REMARK    1  A    between atoms: C_1  and  C_2
REMARK    2  A    between atoms: C_5  and  C_6
REMARK    3  A    between atoms: C_7  and  N_8
REMARK    4  A    between atoms: C_13  and  C_14
REMARK    5  A    between atoms: C_13  and  N_17
REMARK    6  A    between atoms: C_14  and  C_15
REMARK    7  A    between atoms: C_19  and  C_20
REMARK    8  A    between atoms: N_24  and  C_25
REMARK                            x       y       z     vdW  Elec       q    Type
REMARK                         _______ _______ _______ _____ _____    ______ ____
ROOT
ATOM      1  N   UNL     1       1.025   8.484  19.247  0.00  0.00    +0.000 N 
ATOM      2  C   UNL     1       1.904   7.533  19.748  0.00  0.00    +0.000 C 
ATOM      3  O   UNL     1       2.637   7.694  20.719  0.00  0.00    +0.000 OA
ATOM      4  N   UNL     1       1.769   6.291  19.129  0.00  0.00    +0.000 N 
ATOM      5  C   UNL     1       2.497   5.088  19.548  0.00  0.00    +0.000 C 
ATOM      6  C   UNL     1       2.962   4.892  18.089  0.00  0.00    +0.000 C 
ATOM      7  C   UNL     1       1.941   6.015  17.695  0.00  0.00    +0.000 C 
ATOM      8  H   UNL     1       0.192   8.061  18.870  0.00  0.00    +0.000 HD
ENDROOT
BRANCH   1  15
ATOM      9  C   UNL     1       1.813  13.403  19.174  0.00  0.00    +0.000 C 
ATOM     10  C   UNL     1       1.241  12.179  19.834  0.00  0.00    +0.000 A 
ATOM     11  C   UNL     1       0.493  12.304  21.007  0.00  0.00    +0.000 A 
ATOM     12  C   UNL     1      -0.064  11.176  21.602  0.00  0.00    +0.000 A 
ATOM     13  C   UNL     1       0.101   9.900  21.030  0.00  0.00    +0.000 A 
ATOM     14  C   UNL     1      -0.475   8.720  21.762  0.00  0.00    +0.000 C 
ATOM     15  C   UNL     1       0.867   9.761  19.855  0.00  0.00    +0.000 A 
ATOM     16  C   UNL     1       1.437  10.903  19.272  0.00  0.00    +0.000 A 
ENDBRANCH   1  15
BRANCH   6  17
ATOM     17  N   UNL     1       4.355   5.314  17.939  0.00  0.00    +0.000 N 
ATOM     18  C   UNL     1       5.276   5.491  18.945  0.00  0.00    +0.000 A 
ATOM     19  C   UNL     1       6.501   5.678  18.320  0.00  0.00    +0.000 A 
ATOM     20  C   UNL     1       6.211   5.578  16.935  0.00  0.00    +0.000 A 
ATOM     21  N   UNL     1       7.123   5.629  15.940  0.00  0.00    +0.000 N 
ATOM     22  N   UNL     1       4.911   5.373  16.736  0.00  0.00    +0.000 NA
ATOM     23  H   UNL     1       8.032   6.051  16.118  0.00  0.00    +0.000 HD
BRANCH  21  24
ATOM     24  C   UNL     1       7.022   4.999  14.678  0.00  0.00    +0.000 A 
ATOM     25  C   UNL     1       7.788   5.457  13.603  0.00  0.00    +0.000 A 
ATOM     26  C   UNL     1       7.636   4.897  12.328  0.00  0.00    +0.000 A 
ATOM     27  C   UNL     1       6.718   3.870  12.114  0.00  0.00    +0.000 A 
ATOM     28  C   UNL     1       5.941   3.407  13.169  0.00  0.00    +0.000 A 
ATOM     29  C   UNL     1       6.086   3.978  14.434  0.00  0.00    +0.000 A 
ENDBRANCH  21  24
BRANCH  19  30
ATOM     30  C   UNL     1       7.798   5.888  18.937  0.00  0.00    +0.000 C 
ATOM     31  N   UNL     1       8.337   7.138  18.790  0.00  0.00    +0.000 N 
ATOM     32  O   UNL     1       8.372   5.036  19.604  0.00  0.00    +0.000 OA
ATOM     33  H   UNL     1       7.766   7.925  18.521  0.00  0.00    +0.000 HD
ATOM     34  H   UNL     1       9.165   7.327  19.339  0.00  0.00    +0.000 HD
ENDBRANCH  19  30
ENDBRANCH   6  17
BRANCH   6  35
ATOM     35  C   UNL     1       2.791   3.473  17.536  0.00  0.00    +0.000 C 
BRANCH  35  36
ATOM     36  C   UNL     1       3.424   2.432  18.355  0.00  0.00    +0.000 C 
ATOM     37  N   UNL     1       3.932   1.620  19.007  0.00  0.00    +0.000 NA
ENDBRANCH  35  36
ENDBRANCH   6  35
TORSDOF 6
ENDMDL
MODEL 7
REMARK VINA RESULT:      -7.7      6.357     10.221
REMARK  Name = 
REMARK  8 active torsions:
REMARK  status: ('A' for Active; 'I' for Inactive)
REMARK    1  A    between atoms: C_1  and  C_2
REMARK    2  A    between atoms: C_5  and  C_6
REMARK    3  A    between atoms: C_7  and  N_8
REMARK    4  A    between atoms: C_13  and  C_14
REMARK    5  A    between atoms: C_13  and  N_17
REMARK    6  A    between atoms: C_14  and  C_15
REMARK    7  A    between atoms: C_19  and  C_20
REMARK    8  A    between atoms: N_24  and  C_25
REMARK                            x       y       z     vdW  Elec       q    Type
REMARK                         _______ _______ _______ _____ _____    ______ ____
ROOT
ATOM      1  N   UNL     1       9.119   9.268  18.921  0.00  0.00    +0.000 N 
ATOM      2  C   UNL     1       8.179   8.900  17.968  0.00  0.00    +0.000 C 
ATOM      3  O   UNL     1       7.604   9.676  17.211  0.00  0.00    +0.000 OA
ATOM      4  N   UNL     1       8.053   7.518  17.836  0.00  0.00    +0.000 N 
ATOM      5  C   UNL     1       7.214   6.869  16.822  0.00  0.00    +0.000 C 
ATOM      6  C   UNL     1       6.548   6.039  17.940  0.00  0.00    +0.000 C 
ATOM      7  C   UNL     1       7.666   6.578  18.898  0.00  0.00    +0.000 C 
ATOM      8  H   UNL     1       9.828   8.562  19.039  0.00  0.00    +0.000 HD
ENDROOT
BRANCH   1  15
ATOM      9  C   UNL     1      11.026  13.443  16.985  0.00  0.00    +0.000 C 
ATOM     10  C   UNL     1      10.469  12.678  18.152  0.00  0.00    +0.000 A 
ATOM     11  C   UNL     1      10.295  13.315  19.384  0.00  0.00    +0.000 A 
ATOM     12  C   UNL     1       9.750  12.617  20.458  0.00  0.00    +0.000 A 
ATOM     13  C   UNL     1       9.352  11.274  20.322  0.00  0.00    +0.000 A 
ATOM     14  C   UNL     1       8.831  10.567  21.541  0.00  0.00    +0.000 C 
ATOM     15  C   UNL     1       9.537  10.618  19.088  0.00  0.00    +0.000 A 
ATOM     16  C   UNL     1      10.103  11.326  18.016  0.00  0.00    +0.000 A 
ENDBRANCH   1  15
BRANCH   6  17
ATOM     17  N   UNL     1       5.225   6.578  18.252  0.00  0.00    +0.000 N 
ATOM     18  C   UNL     1       4.603   7.643  17.644  0.00  0.00    +0.000 A 
ATOM     19  C   UNL     1       3.296   7.648  18.113  0.00  0.00    +0.000 A 
ATOM     20  C   UNL     1       3.230   6.534  18.988  0.00  0.00    +0.000 A 
ATOM     21  N   UNL     1       2.119   6.107  19.628  0.00  0.00    +0.000 N 
ATOM     22  N   UNL     1       4.408   5.918  19.063  0.00  0.00    +0.000 NA
ATOM     23  H   UNL     1       1.340   6.749  19.756  0.00  0.00    +0.000 HD
BRANCH  21  24
ATOM     24  C   UNL     1       1.834   4.778  20.015  0.00  0.00    +0.000 A 
ATOM     25  C   UNL     1       2.128   4.348  21.312  0.00  0.00    +0.000 A 
ATOM     26  C   UNL     1       1.928   3.013  21.684  0.00  0.00    +0.000 A 
ATOM     27  C   UNL     1       1.429   2.091  20.764  0.00  0.00    +0.000 A 
ATOM     28  C   UNL     1       1.140   2.498  19.467  0.00  0.00    +0.000 A 
ATOM     29  C   UNL     1       1.353   3.827  19.097  0.00  0.00    +0.000 A 
ENDBRANCH  21  24
BRANCH  19  30
ATOM     30  C   UNL     1       2.223   8.560  17.763  0.00  0.00    +0.000 C 
ATOM     31  N   UNL     1       2.546   9.891  17.751  0.00  0.00    +0.000 N 
ATOM     32  O   UNL     1       1.103   8.187  17.436  0.00  0.00    +0.000 OA
ATOM     33  H   UNL     1       3.506  10.195  17.713  0.00  0.00    +0.000 HD
ATOM     34  H   UNL     1       1.843  10.510  17.368  0.00  0.00    +0.000 HD
ENDBRANCH  19  30
ENDBRANCH   6  17
BRANCH   6  35
ATOM     35  C   UNL     1       6.440   4.537  17.658  0.00  0.00    +0.000 C 
BRANCH  35  36
ATOM     36  C   UNL     1       5.793   4.213  16.382  0.00  0.00    +0.000 C 
ATOM     37  N   UNL     1       5.291   3.966  15.367  0.00  0.00    +0.000 NA
ENDBRANCH  35  36
ENDBRANCH   6  35
TORSDOF 6
ENDMDL
MODEL 8
REMARK VINA RESULT:      -7.5      4.599     11.282
REMARK  Name = 
REMARK  8 active torsions:
REMARK  status: ('A' for Active; 'I' for Inactive)
REMARK    1  A    between atoms: C_1  and  C_2
REMARK    2  A    between atoms: C_5  and  C_6
REMARK    3  A    between atoms: C_7  and  N_8
REMARK    4  A    between atoms: C_13  and  C_14
REMARK    5  A    between atoms: C_13  and  N_17
REMARK    6  A    between atoms: C_14  and  C_15
REMARK    7  A    between atoms: C_19  and  C_20
REMARK    8  A    between atoms: N_24  and  C_25
REMARK                            x       y       z     vdW  Elec       q    Type
REMARK                         _______ _______ _______ _____ _____    ______ ____
ROOT
ATOM      1  N   UNL     1       0.917   8.538  19.265  0.00  0.00    +0.000 N 
ATOM      2  C   UNL     1       1.841   7.646  19.794  0.00  0.00    +0.000 C 
ATOM      3  O   UNL     1       2.583   7.881  20.742  0.00  0.00    +0.000 OA
ATOM      4  N   UNL     1       1.745   6.372  19.237  0.00  0.00    +0.000 N 
ATOM      5  C   UNL     1       2.526   5.219  19.698  0.00  0.00    +0.000 C 
ATOM      6  C   UNL     1       2.974   4.972  18.242  0.00  0.00    +0.000 C 
ATOM      7  C   UNL     1       1.903   6.034  17.814  0.00  0.00    +0.000 C 
ATOM      8  H   UNL     1       0.096   8.066  18.924  0.00  0.00    +0.000 HD
ENDROOT
BRANCH   1  15
ATOM      9  C   UNL     1       1.444  13.479  18.911  0.00  0.00    +0.000 C 
ATOM     10  C   UNL     1       0.966  12.265  19.657  0.00  0.00    +0.000 A 
ATOM     11  C   UNL     1       0.264  12.414  20.855  0.00  0.00    +0.000 A 
ATOM     12  C   UNL     1      -0.207  11.292  21.531  0.00  0.00    +0.000 A 
ATOM     13  C   UNL     1      -0.001   9.998  21.017  0.00  0.00    +0.000 A 
ATOM     14  C   UNL     1      -0.482   8.831  21.832  0.00  0.00    +0.000 C 
ATOM     15  C   UNL     1       0.719   9.835  19.816  0.00  0.00    +0.000 A 
ATOM     16  C   UNL     1       1.204  10.973  19.151  0.00  0.00    +0.000 A 
ENDBRANCH   1  15
BRANCH   6  17
ATOM     17  N   UNL     1       4.346   5.439  18.046  0.00  0.00    +0.000 N 
ATOM     18  C   UNL     1       5.291   5.655  19.022  0.00  0.00    +0.000 A 
ATOM     19  C   UNL     1       6.490   5.878  18.358  0.00  0.00    +0.000 A 
ATOM     20  C   UNL     1       6.161   5.757  16.983  0.00  0.00    +0.000 A 
ATOM     21  N   UNL     1       7.040   5.831  15.960  0.00  0.00    +0.000 N 
ATOM     22  N   UNL     1       4.863   5.508  16.826  0.00  0.00    +0.000 NA
ATOM     23  H   UNL     1       7.939   6.285  16.107  0.00  0.00    +0.000 HD
BRANCH  21  24
ATOM     24  C   UNL     1       6.921   5.188  14.707  0.00  0.00    +0.000 A 
ATOM     25  C   UNL     1       6.049   4.107  14.554  0.00  0.00    +0.000 A 
ATOM     26  C   UNL     1       5.984   3.409  13.341  0.00  0.00    +0.000 A 
ATOM     27  C   UNL     1       6.787   3.786  12.266  0.00  0.00    +0.000 A 
ATOM     28  C   UNL     1       7.667   4.852  12.403  0.00  0.00    +0.000 A 
ATOM     29  C   UNL     1       7.739   5.537  13.617  0.00  0.00    +0.000 A 
ENDBRANCH  21  24
BRANCH  19  30
ATOM     30  C   UNL     1       7.796   6.137  18.933  0.00  0.00    +0.000 C 
ATOM     31  N   UNL     1       8.287   5.169  19.769  0.00  0.00    +0.000 N 
ATOM     32  O   UNL     1       8.469   7.123  18.659  0.00  0.00    +0.000 OA
ATOM     33  H   UNL     1       7.905   4.236  19.768  0.00  0.00    +0.000 HD
ATOM     34  H   UNL     1       9.252   5.280  20.052  0.00  0.00    +0.000 HD
ENDBRANCH  19  30
ENDBRANCH   6  17
BRANCH   6  35
ATOM     35  C   UNL     1       2.849   3.523  17.760  0.00  0.00    +0.000 C 
BRANCH  35  36
ATOM     36  C   UNL     1       3.572   2.552  18.590  0.00  0.00    +0.000 C 
ATOM     37  N   UNL     1       4.145   1.778  19.234  0.00  0.00    +0.000 NA
ENDBRANCH  35  36
ENDBRANCH   6  35
TORSDOF 6
ENDMDL
MODEL 9
REMARK VINA RESULT:      -7.4      1.831      8.285
REMARK  Name = 
REMARK  8 active torsions:
REMARK  status: ('A' for Active; 'I' for Inactive)
REMARK    1  A    between atoms: C_1  and  C_2
REMARK    2  A    between atoms: C_5  and  C_6
REMARK    3  A    between atoms: C_7  and  N_8
REMARK    4  A    between atoms: C_13  and  C_14
REMARK    5  A    between atoms: C_13  and  N_17
REMARK    6  A    between atoms: C_14  and  C_15
REMARK    7  A    between atoms: C_19  and  C_20
REMARK    8  A    between atoms: N_24  and  C_25
REMARK                            x       y       z     vdW  Elec       q    Type
REMARK                         _______ _______ _______ _____ _____    ______ ____
ROOT
ATOM      1  N   UNL     1      -3.601  12.659  19.018  0.00  0.00    +0.000 N 
ATOM      2  C   UNL     1      -2.751  11.604  18.717  0.00  0.00    +0.000 C 
ATOM      3  O   UNL     1      -3.066  10.419  18.731  0.00  0.00    +0.000 OA
ATOM      4  N   UNL     1      -1.512  12.027  18.236  0.00  0.00    +0.000 N 
ATOM      5  C   UNL     1      -0.476  11.115  17.739  0.00  0.00    +0.000 C 
ATOM      6  C   UNL     1       0.538  11.790  18.689  0.00  0.00    +0.000 C 
ATOM      7  C   UNL     1      -0.554  12.885  18.948  0.00  0.00    +0.000 C 
ATOM      8  H   UNL     1      -3.391  13.478  18.470  0.00  0.00    +0.000 HD
ENDROOT
BRANCH   1  15
ATOM      9  C   UNL     1      -7.183  12.323  22.465  0.00  0.00    +0.000 C 
ATOM     10  C   UNL     1      -6.743  12.290  21.028  0.00  0.00    +0.000 A 
ATOM     11  C   UNL     1      -7.689  12.130  20.012  0.00  0.00    +0.000 A 
ATOM     12  C   UNL     1      -7.287  12.131  18.679  0.00  0.00    +0.000 A 
ATOM     13  C   UNL     1      -5.935  12.307  18.331  0.00  0.00    +0.000 A 
ATOM     14  C   UNL     1      -5.567  12.233  16.876  0.00  0.00    +0.000 C 
ATOM     15  C   UNL     1      -4.971  12.454  19.348  0.00  0.00    +0.000 A 
ATOM     16  C   UNL     1      -5.384  12.436  20.690  0.00  0.00    +0.000 A 
ENDBRANCH   1  15
BRANCH   6  17
ATOM     17  N   UNL     1       0.780  10.943  19.857  0.00  0.00    +0.000 N 
ATOM     18  C   UNL     1       0.257  11.107  21.118  0.00  0.00    +0.000 A 
ATOM     19  C   UNL     1       0.585   9.960  21.826  0.00  0.00    +0.000 A 
ATOM     20  C   UNL     1       1.294   9.159  20.893  0.00  0.00    +0.000 A 
ATOM     21  N   UNL     1       1.753   7.910  21.126  0.00  0.00    +0.000 N 
ATOM     22  N   UNL     1       1.408   9.782  19.723  0.00  0.00    +0.000 NA
ATOM     23  H   UNL     1       1.884   7.597  22.086  0.00  0.00    +0.000 HD
BRANCH  21  24
ATOM     24  C   UNL     1       1.930   6.890  20.164  0.00  0.00    +0.000 A 
ATOM     25  C   UNL     1       1.541   5.579  20.452  0.00  0.00    +0.000 A 
ATOM     26  C   UNL     1       1.787   4.545  19.540  0.00  0.00    +0.000 A 
ATOM     27  C   UNL     1       2.422   4.809  18.328  0.00  0.00    +0.000 A 
ATOM     28  C   UNL     1       2.824   6.105  18.027  0.00  0.00    +0.000 A 
ATOM     29  C   UNL     1       2.590   7.130  18.944  0.00  0.00    +0.000 A 
ENDBRANCH  21  24
BRANCH  19  30
ATOM     30  C   UNL     1       0.249   9.628  23.198  0.00  0.00    +0.000 C 
ATOM     31  N   UNL     1      -1.087   9.580  23.494  0.00  0.00    +0.000 N 
ATOM     32  O   UNL     1       1.087   9.344  24.046  0.00  0.00    +0.000 OA
ATOM     33  H   UNL     1      -1.781   9.506  22.767  0.00  0.00    +0.000 HD
ATOM     34  H   UNL     1      -1.322   9.209  24.406  0.00  0.00    +0.000 HD
ENDBRANCH  19  30
ENDBRANCH   6  17
BRANCH   6  35
ATOM     35  C   UNL     1       1.874  12.177  18.046  0.00  0.00    +0.000 C 
BRANCH  35  36
ATOM     36  C   UNL     1       2.615  13.208  18.782  0.00  0.00    +0.000 C 
ATOM     37  N   UNL     1       3.188  14.027  19.369  0.00  0.00    +0.000 NA
ENDBRANCH  35  36
ENDBRANCH   6  35
TORSDOF 6
ENDMDL
