MODEL 1
REMARK VINA RESULT:      -8.7      0.000      0.000
REMARK  Name = 
REMARK  7 active torsions:
REMARK  status: ('A' for Active; 'I' for Inactive)
REMARK    1  A    between atoms: C_1  and  C_2
REMARK    2  A    between atoms: C_2  and  C_3
REMARK    3  A    between atoms: C_2  and  O_4
REMARK    4  A    between atoms: O_4  and  C_5
REMARK    5  A    between atoms: C_8  and  N_9
REMARK    6  A    between atoms: N_16  and  C_17
REMARK    7  A    between atoms: C_17  and  C_18
REMARK                            x       y       z     vdW  Elec       q    Type
REMARK                         _______ _______ _______ _____ _____    ______ ____
ROOT
ATOM      1  N   UNL     1       3.065   6.481  18.845  0.00  0.00    +0.000 N 
ATOM      2  C   UNL     1       2.915   5.226  19.417  0.00  0.00    +0.000 A 
ATOM      3  N   UNL     1       1.751   4.885  19.903  0.00  0.00    +0.000 NA
ATOM      4  C   UNL     1       1.591   3.661  20.473  0.00  0.00    +0.000 A 
ATOM      5  C   UNL     1       2.541   2.738  20.553  0.00  0.00    +0.000 A 
ATOM      6  C   UNL     1       3.860   3.072  20.006  0.00  0.00    +0.000 A 
ATOM      7  O   UNL     1       4.759   2.239  20.094  0.00  0.00    +0.000 OA
ATOM      8  N   UNL     1       3.992   4.340  19.457  0.00  0.00    +0.000 N 
ATOM      9  H   UNL     1       3.728   6.601  18.093  0.00  0.00    +0.000 HD
ENDROOT
BRANCH   1  13
ATOM     10  C   UNL     1       0.691   9.920  19.608  0.00  0.00    +0.000 A 
ATOM     11  C   UNL     1       1.094   9.609  18.315  0.00  0.00    +0.000 A 
ATOM     12  C   UNL     1       1.854   8.464  18.067  0.00  0.00    +0.000 A 
ATOM     13  C   UNL     1       2.208   7.576  19.094  0.00  0.00    +0.000 A 
ATOM     14  C   UNL     1       1.763   7.871  20.388  0.00  0.00    +0.000 A 
ATOM     15  C   UNL     1       1.007   9.027  20.635  0.00  0.00    +0.000 A 
ATOM     16  F   UNL     1       0.579   9.246  21.888  0.00  0.00    +0.000 F 
BRANCH  10  17
ATOM     17  O   UNL     1      -0.052  11.058  19.726  0.00  0.00    +0.000 OA
BRANCH  17  19
ATOM     18  C   UNL     1      -2.201  11.371  18.720  0.00  0.00    +0.000 C 
ATOM     19  C   UNL     1      -0.692  11.551  18.542  0.00  0.00    +0.000 C 
ATOM     20  C   UNL     1      -0.354  13.032  18.410  0.00  0.00    +0.000 C 
ENDBRANCH  17  19
ENDBRANCH  10  17
ENDBRANCH   1  13
BRANCH   8  21
ATOM     21  C   UNL     1       5.358   4.738  19.134  0.00  0.00    +0.000 C 
BRANCH  21  22
ATOM     22  C   UNL     1       5.797   4.540  17.692  0.00  0.00    +0.000 A 
ATOM     23  C   UNL     1       7.100   4.781  17.237  0.00  0.00    +0.000 A 
ATOM     24  C   UNL     1       7.412   4.662  15.877  0.00  0.00    +0.000 A 
ATOM     25  C   UNL     1       6.428   4.285  14.964  0.00  0.00    +0.000 A 
ATOM     26 CL   UNL     1       6.802   4.189  13.288  0.00  0.00    +0.000 Cl
ATOM     27  C   UNL     1       5.139   4.001  15.402  0.00  0.00    +0.000 A 
ATOM     28  C   UNL     1       4.828   4.126  16.759  0.00  0.00    +0.000 A 
ENDBRANCH  21  22
ENDBRANCH   8  21
TORSDOF 5
ENDMDL
MODEL 2
REMARK VINA RESULT:      -8.7      1.299      1.675
REMARK  Name = 
REMARK  7 active torsions:
REMARK  status: ('A' for Active; 'I' for Inactive)
REMARK    1  A    between atoms: C_1  and  C_2
REMARK    2  A    between atoms: C_2  and  C_3
REMARK    3  A    between atoms: C_2  and  O_4
REMARK    4  A    between atoms: O_4  and  C_5
REMARK    5  A    between atoms: C_8  and  N_9
REMARK    6  A    between atoms: N_16  and  C_17
REMARK    7  A    between atoms: C_17  and  C_18
REMARK                            x       y       z     vdW  Elec       q    Type
REMARK                         _______ _______ _______ _____ _____    ______ ____
ROOT
ATOM      1  N   UNL     1       3.110   5.955  18.281  0.00  0.00    +0.000 N 
ATOM      2  C   UNL     1       2.668   4.649  18.426  0.00  0.00    +0.000 A 
ATOM      3  N   UNL     1       1.402   4.429  18.659  0.00  0.00    +0.000 NA
ATOM      4  C   UNL     1       0.956   3.153  18.811  0.00  0.00    +0.000 A 
ATOM      5  C   UNL     1       1.718   2.072  18.708  0.00  0.00    +0.000 A 
ATOM      6  C   UNL     1       3.144   2.270  18.431  0.00  0.00    +0.000 A 
ATOM      7  O   UNL     1       3.869   1.282  18.358  0.00  0.00    +0.000 OA
ATOM      8  N   UNL     1       3.567   3.587  18.310  0.00  0.00    +0.000 N 
ATOM      9  H   UNL     1       3.896   6.143  17.676  0.00  0.00    +0.000 HD
ENDROOT
BRANCH   1  13
ATOM     10  C   UNL     1       1.236   9.479  19.735  0.00  0.00    +0.000 A 
ATOM     11  C   UNL     1       1.525   9.336  18.383  0.00  0.00    +0.000 A 
ATOM     12  C   UNL     1       2.119   8.165  17.908  0.00  0.00    +0.000 A 
ATOM     13  C   UNL     1       2.413   7.088  18.757  0.00  0.00    +0.000 A 
ATOM     14  C   UNL     1       2.081   7.220  20.110  0.00  0.00    +0.000 A 
ATOM     15  C   UNL     1       1.491   8.401  20.587  0.00  0.00    +0.000 A 
ATOM     16  F   UNL     1       1.164   8.464  21.887  0.00  0.00    +0.000 F 
BRANCH  10  17
ATOM     17  O   UNL     1       0.650  10.661  20.081  0.00  0.00    +0.000 OA
BRANCH  17  19
ATOM     18  C   UNL     1      -0.950  11.434  21.684  0.00  0.00    +0.000 C 
ATOM     19  C   UNL     1      -0.748  10.636  20.395  0.00  0.00    +0.000 C 
ATOM     20  C   UNL     1      -1.497  11.301  19.245  0.00  0.00    +0.000 C 
ENDBRANCH  17  19
ENDBRANCH  10  17
ENDBRANCH   1  13
BRANCH   8  21
ATOM     21  C   UNL     1       5.013   3.774  18.268  0.00  0.00    +0.000 C 
BRANCH  21  22
ATOM     22  C   UNL     1       5.606   4.170  16.927  0.00  0.00    +0.000 A 
ATOM     23  C   UNL     1       4.937   4.011  15.705  0.00  0.00    +0.000 A 
ATOM     24  C   UNL     1       5.579   4.317  14.499  0.00  0.00    +0.000 A 
ATOM     25  C   UNL     1       6.887   4.797  14.504  0.00  0.00    +0.000 A 
ATOM     26 CL   UNL     1       7.690   5.123  13.018  0.00  0.00    +0.000 Cl
ATOM     27  C   UNL     1       7.553   5.001  15.708  0.00  0.00    +0.000 A 
ATOM     28  C   UNL     1       6.914   4.691  16.911  0.00  0.00    +0.000 A 
ENDBRANCH  21  22
ENDBRANCH   8  21
TORSDOF 5
ENDMDL
MODEL 3
REMARK VINA RESULT:      -8.6      1.435      2.102
REMARK  Name = 
REMARK  7 active torsions:
REMARK  status: ('A' for Active; 'I' for Inactive)
REMARK    1  A    between atoms: C_1  and  C_2
REMARK    2  A    between atoms: C_2  and  C_3
REMARK    3  A    between atoms: C_2  and  O_4
REMARK    4  A    between atoms: O_4  and  C_5
REMARK    5  A    between atoms: C_8  and  N_9
REMARK    6  A    between atoms: N_16  and  C_17
REMARK    7  A    between atoms: C_17  and  C_18
REMARK                            x       y       z     vdW  Elec       q    Type
REMARK                         _______ _______ _______ _____ _____    ______ ____
ROOT
ATOM      1  N   UNL     1       2.930   6.526  19.228  0.00  0.00    +0.000 N 
ATOM      2  C   UNL     1       2.823   5.244  19.746  0.00  0.00    +0.000 A 
ATOM      3  N   UNL     1       1.706   4.882  20.320  0.00  0.00    +0.000 NA
ATOM      4  C   UNL     1       1.590   3.631  20.839  0.00  0.00    +0.000 A 
ATOM      5  C   UNL     1       2.535   2.702  20.783  0.00  0.00    +0.000 A 
ATOM      6  C   UNL     1       3.801   3.059  20.135  0.00  0.00    +0.000 A 
ATOM      7  O   UNL     1       4.697   2.220  20.097  0.00  0.00    +0.000 OA
ATOM      8  N   UNL     1       3.892   4.353  19.642  0.00  0.00    +0.000 N 
ATOM      9  H   UNL     1       3.522   6.683  18.426  0.00  0.00    +0.000 HD
ENDROOT
BRANCH   1  13
ATOM     10  C   UNL     1       0.257   9.638  20.332  0.00  0.00    +0.000 A 
ATOM     11  C   UNL     1       0.649   8.679  21.258  0.00  0.00    +0.000 A 
ATOM     12  C   UNL     1       1.547   7.672  20.896  0.00  0.00    +0.000 A 
ATOM     13  C   UNL     1       2.108   7.610  19.611  0.00  0.00    +0.000 A 
ATOM     14  C   UNL     1       1.743   8.603  18.695  0.00  0.00    +0.000 A 
ATOM     15  C   UNL     1       0.833   9.608  19.059  0.00  0.00    +0.000 A 
ATOM     16  F   UNL     1       0.541  10.555  18.153  0.00  0.00    +0.000 F 
BRANCH  10  17
ATOM     17  O   UNL     1      -0.617  10.574  20.801  0.00  0.00    +0.000 OA
BRANCH  17  19
ATOM     18  C   UNL     1      -0.027  12.775  21.531  0.00  0.00    +0.000 C 
ATOM     19  C   UNL     1      -0.222  11.320  21.959  0.00  0.00    +0.000 C 
ATOM     20  C   UNL     1      -1.347  11.224  22.984  0.00  0.00    +0.000 C 
ENDBRANCH  17  19
ENDBRANCH  10  17
ENDBRANCH   1  13
BRANCH   8  21
ATOM     21  C   UNL     1       5.226   4.763  19.214  0.00  0.00    +0.000 C 
BRANCH  21  22
ATOM     22  C   UNL     1       5.523   4.654  17.728  0.00  0.00    +0.000 A 
ATOM     23  C   UNL     1       4.549   4.369  16.761  0.00  0.00    +0.000 A 
ATOM     24  C   UNL     1       4.910   4.196  15.419  0.00  0.00    +0.000 A 
ATOM     25  C   UNL     1       6.243   4.322  15.031  0.00  0.00    +0.000 A 
ATOM     26 CL   UNL     1       6.690   4.060  13.391  0.00  0.00    +0.000 Cl
ATOM     27  C   UNL     1       7.217   4.646  15.969  0.00  0.00    +0.000 A 
ATOM     28  C   UNL     1       6.857   4.812  17.309  0.00  0.00    +0.000 A 
ENDBRANCH  21  22
ENDBRANCH   8  21
TORSDOF 5
ENDMDL
MODEL 4
REMARK VINA RESULT:      -8.5      0.775      1.290
REMARK  Name = 
REMARK  7 active torsions:
REMARK  status: ('A' for Active; 'I' for Inactive)
REMARK    1  A    between atoms: C_1  and  C_2
REMARK    2  A    between atoms: C_2  and  C_3
REMARK    3  A    between atoms: C_2  and  O_4
REMARK    4  A    between atoms: O_4  and  C_5
REMARK    5  A    between atoms: C_8  and  N_9
REMARK    6  A    between atoms: N_16  and  C_17
REMARK    7  A    between atoms: C_17  and  C_18
REMARK                            x       y       z     vdW  Elec       q    Type
REMARK                         _______ _______ _______ _____ _____    ______ ____
ROOT
ATOM      1  N   UNL     1       3.067   6.340  18.798  0.00  0.00    +0.000 N 
ATOM      2  C   UNL     1       2.817   5.105  19.377  0.00  0.00    +0.000 A 
ATOM      3  N   UNL     1       1.612   4.836  19.804  0.00  0.00    +0.000 NA
ATOM      4  C   UNL     1       1.355   3.632  20.380  0.00  0.00    +0.000 A 
ATOM      5  C   UNL     1       2.247   2.659  20.523  0.00  0.00    +0.000 A 
ATOM      6  C   UNL     1       3.609   2.912  20.044  0.00  0.00    +0.000 A 
ATOM      7  O   UNL     1       4.454   2.033  20.192  0.00  0.00    +0.000 OA
ATOM      8  N   UNL     1       3.840   4.162  19.487  0.00  0.00    +0.000 N 
ATOM      9  H   UNL     1       3.774   6.412  18.081  0.00  0.00    +0.000 HD
ENDROOT
BRANCH   1  13
ATOM     10  C   UNL     1       0.849   9.917  19.376  0.00  0.00    +0.000 A 
ATOM     11  C   UNL     1       1.265   9.538  18.105  0.00  0.00    +0.000 A 
ATOM     12  C   UNL     1       1.973   8.349  17.918  0.00  0.00    +0.000 A 
ATOM     13  C   UNL     1       2.259   7.484  18.986  0.00  0.00    +0.000 A 
ATOM     14  C   UNL     1       1.801   7.849  20.257  0.00  0.00    +0.000 A 
ATOM     15  C   UNL     1       1.097   9.049  20.443  0.00  0.00    +0.000 A 
ATOM     16  F   UNL     1       0.653   9.337  21.676  0.00  0.00    +0.000 F 
BRANCH  10  17
ATOM     17  O   UNL     1       0.161  11.093  19.435  0.00  0.00    +0.000 OA
BRANCH  17  19
ATOM     18  C   UNL     1       0.011  13.295  18.508  0.00  0.00    +0.000 C 
ATOM     19  C   UNL     1       0.908  12.302  19.249  0.00  0.00    +0.000 C 
ATOM     20  C   UNL     1       1.265  12.848  20.627  0.00  0.00    +0.000 C 
ENDBRANCH  17  19
ENDBRANCH  10  17
ENDBRANCH   1  13
BRANCH   8  21
ATOM     21  C   UNL     1       5.241   4.480  19.232  0.00  0.00    +0.000 C 
BRANCH  21  22
ATOM     22  C   UNL     1       5.652   4.606  17.775  0.00  0.00    +0.000 A 
ATOM     23  C   UNL     1       5.012   3.931  16.726  0.00  0.00    +0.000 A 
ATOM     24  C   UNL     1       5.499   4.027  15.417  0.00  0.00    +0.000 A 
ATOM     25  C   UNL     1       6.620   4.808  15.143  0.00  0.00    +0.000 A 
ATOM     26 CL   UNL     1       7.247   4.882  13.543  0.00  0.00    +0.000 Cl
ATOM     27  C   UNL     1       7.245   5.519  16.163  0.00  0.00    +0.000 A 
ATOM     28  C   UNL     1       6.761   5.419  17.470  0.00  0.00    +0.000 A 
ENDBRANCH  21  22
ENDBRANCH   8  21
TORSDOF 5
ENDMDL
MODEL 5
REMARK VINA RESULT:      -8.4      1.517      1.933
REMARK  Name = 
REMARK  7 active torsions:
REMARK  status: ('A' for Active; 'I' for Inactive)
REMARK    1  A    between atoms: C_1  and  C_2
REMARK    2  A    between atoms: C_2  and  C_3
REMARK    3  A    between atoms: C_2  and  O_4
REMARK    4  A    between atoms: O_4  and  C_5
REMARK    5  A    between atoms: C_8  and  N_9
REMARK    6  A    between atoms: N_16  and  C_17
REMARK    7  A    between atoms: C_17  and  C_18
REMARK                            x       y       z     vdW  Elec       q    Type
REMARK                         _______ _______ _______ _____ _____    ______ ____
ROOT
ATOM      1  N   UNL     1       3.119   6.138  18.792  0.00  0.00    +0.000 N 
ATOM      2  C   UNL     1       2.719   4.827  18.999  0.00  0.00    +0.000 A 
ATOM      3  N   UNL     1       1.454   4.574  19.209  0.00  0.00    +0.000 NA
ATOM      4  C   UNL     1       1.048   3.294  19.421  0.00  0.00    +0.000 A 
ATOM      5  C   UNL     1       1.851   2.237  19.401  0.00  0.00    +0.000 A 
ATOM      6  C   UNL     1       3.276   2.471  19.154  0.00  0.00    +0.000 A 
ATOM      7  O   UNL     1       4.038   1.507  19.158  0.00  0.00    +0.000 OA
ATOM      8  N   UNL     1       3.657   3.794  18.969  0.00  0.00    +0.000 N 
ATOM      9  H   UNL     1       3.916   6.320  18.200  0.00  0.00    +0.000 HD
ENDROOT
BRANCH   1  13
ATOM     10  C   UNL     1       0.654   9.400  19.944  0.00  0.00    +0.000 A 
ATOM     11  C   UNL     1       1.087   8.472  20.884  0.00  0.00    +0.000 A 
ATOM     12  C   UNL     1       1.917   7.416  20.503  0.00  0.00    +0.000 A 
ATOM     13  C   UNL     1       2.369   7.270  19.183  0.00  0.00    +0.000 A 
ATOM     14  C   UNL     1       1.965   8.231  18.249  0.00  0.00    +0.000 A 
ATOM     15  C   UNL     1       1.123   9.287  18.633  0.00  0.00    +0.000 A 
ATOM     16  F   UNL     1       0.791  10.199  17.706  0.00  0.00    +0.000 F 
BRANCH  10  17
ATOM     17  O   UNL     1      -0.146  10.391  20.434  0.00  0.00    +0.000 OA
BRANCH  17  19
ATOM     18  C   UNL     1       0.713  12.550  21.006  0.00  0.00    +0.000 C 
ATOM     19  C   UNL     1       0.357  11.159  21.534  0.00  0.00    +0.000 C 
ATOM     20  C   UNL     1      -0.750  11.263  22.577  0.00  0.00    +0.000 C 
ENDBRANCH  17  19
ENDBRANCH  10  17
ENDBRANCH   1  13
BRANCH   8  21
ATOM     21  C   UNL     1       5.096   4.030  18.959  0.00  0.00    +0.000 C 
BRANCH  21  22
ATOM     22  C   UNL     1       5.741   4.216  17.596  0.00  0.00    +0.000 A 
ATOM     23  C   UNL     1       7.059   4.659  17.413  0.00  0.00    +0.000 A 
ATOM     24  C   UNL     1       7.559   4.892  16.127  0.00  0.00    +0.000 A 
ATOM     25  C   UNL     1       6.752   4.670  15.012  0.00  0.00    +0.000 A 
ATOM     26 CL   UNL     1       7.353   5.006  13.435  0.00  0.00    +0.000 Cl
ATOM     27  C   UNL     1       5.456   4.191  15.170  0.00  0.00    +0.000 A 
ATOM     28  C   UNL     1       4.956   3.964  16.454  0.00  0.00    +0.000 A 
ENDBRANCH  21  22
ENDBRANCH   8  21
TORSDOF 5
ENDMDL
MODEL 6
REMARK VINA RESULT:      -8.4      1.391      1.521
REMARK  Name = 
REMARK  7 active torsions:
REMARK  status: ('A' for Active; 'I' for Inactive)
REMARK    1  A    between atoms: C_1  and  C_2
REMARK    2  A    between atoms: C_2  and  C_3
REMARK    3  A    between atoms: C_2  and  O_4
REMARK    4  A    between atoms: O_4  and  C_5
REMARK    5  A    between atoms: C_8  and  N_9
REMARK    6  A    between atoms: N_16  and  C_17
REMARK    7  A    between atoms: C_17  and  C_18
REMARK                            x       y       z     vdW  Elec       q    Type
REMARK                         _______ _______ _______ _____ _____    ______ ____
ROOT
ATOM      1  N   UNL     1       3.141   6.052  18.401  0.00  0.00    +0.000 N 
ATOM      2  C   UNL     1       2.706   4.744  18.554  0.00  0.00    +0.000 A 
ATOM      3  N   UNL     1       1.426   4.509  18.665  0.00  0.00    +0.000 NA
ATOM      4  C   UNL     1       0.986   3.232  18.824  0.00  0.00    +0.000 A 
ATOM      5  C   UNL     1       1.772   2.163  18.844  0.00  0.00    +0.000 A 
ATOM      6  C   UNL     1       3.215   2.378  18.708  0.00  0.00    +0.000 A 
ATOM      7  O   UNL     1       3.960   1.402  18.751  0.00  0.00    +0.000 OA
ATOM      8  N   UNL     1       3.628   3.697  18.576  0.00  0.00    +0.000 N 
ATOM      9  H   UNL     1       3.981   6.231  17.872  0.00  0.00    +0.000 HD
ENDROOT
BRANCH   1  13
ATOM     10  C   UNL     1       1.070   9.600  19.484  0.00  0.00    +0.000 A 
ATOM     11  C   UNL     1       1.406   9.352  18.158  0.00  0.00    +0.000 A 
ATOM     12  C   UNL     1       2.065   8.172  17.805  0.00  0.00    +0.000 A 
ATOM     13  C   UNL     1       2.380   7.189  18.755  0.00  0.00    +0.000 A 
ATOM     14  C   UNL     1       2.001   7.425  20.082  0.00  0.00    +0.000 A 
ATOM     15  C   UNL     1       1.347   8.615  20.435  0.00  0.00    +0.000 A 
ATOM     16  F   UNL     1       0.977   8.777  21.715  0.00  0.00    +0.000 F 
BRANCH  10  17
ATOM     17  O   UNL     1       0.423  10.780  19.706  0.00  0.00    +0.000 OA
BRANCH  17  19
ATOM     18  C   UNL     1       1.510  12.891  20.008  0.00  0.00    +0.000 C 
ATOM     19  C   UNL     1       0.964  11.647  20.711  0.00  0.00    +0.000 C 
ATOM     20  C   UNL     1      -0.169  12.035  21.654  0.00  0.00    +0.000 C 
ENDBRANCH  17  19
ENDBRANCH  10  17
ENDBRANCH   1  13
BRANCH   8  21
ATOM     21  C   UNL     1       5.068   3.910  18.676  0.00  0.00    +0.000 C 
BRANCH  21  22
ATOM     22  C   UNL     1       5.795   4.233  17.381  0.00  0.00    +0.000 A 
ATOM     23  C   UNL     1       6.869   5.131  17.297  0.00  0.00    +0.000 A 
ATOM     24  C   UNL     1       7.435   5.446  16.056  0.00  0.00    +0.000 A 
ATOM     25  C   UNL     1       6.944   4.857  14.892  0.00  0.00    +0.000 A 
ATOM     26 CL   UNL     1       7.608   5.286  13.365  0.00  0.00    +0.000 Cl
ATOM     27  C   UNL     1       5.907   3.932  14.960  0.00  0.00    +0.000 A 
ATOM     28  C   UNL     1       5.339   3.622  16.198  0.00  0.00    +0.000 A 
ENDBRANCH  21  22
ENDBRANCH   8  21
TORSDOF 5
ENDMDL
MODEL 7
REMARK VINA RESULT:      -8.2      2.105      2.679
REMARK  Name = 
REMARK  7 active torsions:
REMARK  status: ('A' for Active; 'I' for Inactive)
REMARK    1  A    between atoms: C_1  and  C_2
REMARK    2  A    between atoms: C_2  and  C_3
REMARK    3  A    between atoms: C_2  and  O_4
REMARK    4  A    between atoms: O_4  and  C_5
REMARK    5  A    between atoms: C_8  and  N_9
REMARK    6  A    between atoms: N_16  and  C_17
REMARK    7  A    between atoms: C_17  and  C_18
REMARK                            x       y       z     vdW  Elec       q    Type
REMARK                         _______ _______ _______ _____ _____    ______ ____
ROOT
ATOM      1  N   UNL     1       2.490   5.975  18.010  0.00  0.00    +0.000 N 
ATOM      2  C   UNL     1       2.356   4.695  18.525  0.00  0.00    +0.000 A 
ATOM      3  N   UNL     1       1.546   4.497  19.532  0.00  0.00    +0.000 NA
ATOM      4  C   UNL     1       1.411   3.249  20.053  0.00  0.00    +0.000 A 
ATOM      5  C   UNL     1       2.029   2.169  19.590  0.00  0.00    +0.000 A 
ATOM      6  C   UNL     1       2.936   2.341  18.452  0.00  0.00    +0.000 A 
ATOM      7  O   UNL     1       3.536   1.357  18.027  0.00  0.00    +0.000 OA
ATOM      8  N   UNL     1       3.069   3.634  17.965  0.00  0.00    +0.000 N 
ATOM      9  H   UNL     1       2.697   6.089  17.028  0.00  0.00    +0.000 HD
ENDROOT
BRANCH   1  13
ATOM     10  C   UNL     1       1.238   9.441  20.123  0.00  0.00    +0.000 A 
ATOM     11  C   UNL     1       1.566   8.275  20.804  0.00  0.00    +0.000 A 
ATOM     12  C   UNL     1       2.001   7.146  20.106  0.00  0.00    +0.000 A 
ATOM     13  C   UNL     1       2.153   7.155  18.711  0.00  0.00    +0.000 A 
ATOM     14  C   UNL     1       1.862   8.344  18.034  0.00  0.00    +0.000 A 
ATOM     15  C   UNL     1       1.417   9.474  18.738  0.00  0.00    +0.000 A 
ATOM     16  F   UNL     1       1.182  10.599  18.044  0.00  0.00    +0.000 F 
BRANCH  10  17
ATOM     17  O   UNL     1       0.833  10.478  20.911  0.00  0.00    +0.000 OA
BRANCH  17  19
ATOM     18  C   UNL     1      -0.657  10.835  22.749  0.00  0.00    +0.000 C 
ATOM     19  C   UNL     1      -0.558  10.542  21.251  0.00  0.00    +0.000 C 
ATOM     20  C   UNL     1      -1.182  11.681  20.453  0.00  0.00    +0.000 C 
ENDBRANCH  17  19
ENDBRANCH  10  17
ENDBRANCH   1  13
BRANCH   8  21
ATOM     21  C   UNL     1       4.142   3.826  16.995  0.00  0.00    +0.000 C 
BRANCH  21  22
ATOM     22  C   UNL     1       5.279   4.741  17.416  0.00  0.00    +0.000 A 
ATOM     23  C   UNL     1       5.989   4.596  18.616  0.00  0.00    +0.000 A 
ATOM     24  C   UNL     1       6.967   5.529  18.981  0.00  0.00    +0.000 A 
ATOM     25  C   UNL     1       7.255   6.604  18.143  0.00  0.00    +0.000 A 
ATOM     26 CL   UNL     1       8.421   7.776  18.617  0.00  0.00    +0.000 Cl
ATOM     27  C   UNL     1       6.592   6.742  16.928  0.00  0.00    +0.000 A 
ATOM     28  C   UNL     1       5.612   5.814  16.567  0.00  0.00    +0.000 A 
ENDBRANCH  21  22
ENDBRANCH   8  21
TORSDOF 5
ENDMDL
MODEL 8
REMARK VINA RESULT:      -8.1      1.289      1.561
REMARK  Name = 
REMARK  7 active torsions:
REMARK  status: ('A' for Active; 'I' for Inactive)
REMARK    1  A    between atoms: C_1  and  C_2
REMARK    2  A    between atoms: C_2  and  C_3
REMARK    3  A    between atoms: C_2  and  O_4
REMARK    4  A    between atoms: O_4  and  C_5
REMARK    5  A    between atoms: C_8  and  N_9
REMARK    6  A    between atoms: N_16  and  C_17
REMARK    7  A    between atoms: C_17  and  C_18
REMARK                            x       y       z     vdW  Elec       q    Type
REMARK                         _______ _______ _______ _____ _____    ______ ____
ROOT
ATOM      1  N   UNL     1       2.631   7.100  19.510  0.00  0.00    +0.000 N 
ATOM      2  C   UNL     1       2.531   5.746  19.794  0.00  0.00    +0.000 A 
ATOM      3  N   UNL     1       1.387   5.265  20.203  0.00  0.00    +0.000 NA
ATOM      4  C   UNL     1       1.276   3.941  20.493  0.00  0.00    +0.000 A 
ATOM      5  C   UNL     1       2.258   3.058  20.362  0.00  0.00    +0.000 A 
ATOM      6  C   UNL     1       3.556   3.550  19.891  0.00  0.00    +0.000 A 
ATOM      7  O   UNL     1       4.483   2.750  19.789  0.00  0.00    +0.000 OA
ATOM      8  N   UNL     1       3.638   4.911  19.632  0.00  0.00    +0.000 N 
ATOM      9  H   UNL     1       3.277   7.405  18.798  0.00  0.00    +0.000 HD
ENDROOT
BRANCH   1  13
ATOM     10  C   UNL     1       0.141  10.224  20.954  0.00  0.00    +0.000 A 
ATOM     11  C   UNL     1       0.265   9.990  19.590  0.00  0.00    +0.000 A 
ATOM     12  C   UNL     1       1.066   8.945  19.122  0.00  0.00    +0.000 A 
ATOM     13  C   UNL     1       1.741   8.082  19.999  0.00  0.00    +0.000 A 
ATOM     14  C   UNL     1       1.578   8.296  21.372  0.00  0.00    +0.000 A 
ATOM     15  C   UNL     1       0.779   9.351  21.839  0.00  0.00    +0.000 A 
ATOM     16  F   UNL     1       0.631   9.493  23.166  0.00  0.00    +0.000 F 
BRANCH  10  17
ATOM     17  O   UNL     1      -0.673  11.265  21.292  0.00  0.00    +0.000 OA
BRANCH  17  19
ATOM     18  C   UNL     1      -1.832  13.261  20.658  0.00  0.00    +0.000 C 
ATOM     19  C   UNL     1      -0.517  12.486  20.557  0.00  0.00    +0.000 C 
ATOM     20  C   UNL     1       0.610  13.282  21.207  0.00  0.00    +0.000 C 
ENDBRANCH  17  19
ENDBRANCH  10  17
ENDBRANCH   1  13
BRANCH   8  21
ATOM     21  C   UNL     1       4.984   5.418  19.393  0.00  0.00    +0.000 C 
BRANCH  21  22
ATOM     22  C   UNL     1       5.491   5.344  17.962  0.00  0.00    +0.000 A 
ATOM     23  C   UNL     1       4.779   5.835  16.859  0.00  0.00    +0.000 A 
ATOM     24  C   UNL     1       5.266   5.654  15.560  0.00  0.00    +0.000 A 
ATOM     25  C   UNL     1       6.477   4.994  15.353  0.00  0.00    +0.000 A 
ATOM     26 CL   UNL     1       7.048   4.728  13.752  0.00  0.00    +0.000 Cl
ATOM     27  C   UNL     1       7.219   4.536  16.436  0.00  0.00    +0.000 A 
ATOM     28  C   UNL     1       6.728   4.713  17.732  0.00  0.00    +0.000 A 
ENDBRANCH  21  22
ENDBRANCH   8  21
TORSDOF 5
ENDMDL
MODEL 9
REMARK VINA RESULT:      -8.1      1.470      1.965
REMARK  Name = 
REMARK  7 active torsions:
REMARK  status: ('A' for Active; 'I' for Inactive)
REMARK    1  A    between atoms: C_1  and  C_2
REMARK    2  A    between atoms: C_2  and  C_3
REMARK    3  A    between atoms: C_2  and  O_4
REMARK    4  A    between atoms: O_4  and  C_5
REMARK    5  A    between atoms: C_8  and  N_9
REMARK    6  A    between atoms: N_16  and  C_17
REMARK    7  A    between atoms: C_17  and  C_18
REMARK                            x       y       z     vdW  Elec       q    Type
REMARK                         _______ _______ _______ _____ _____    ______ ____
ROOT
ATOM      1  N   UNL     1       3.138   6.073  18.493  0.00  0.00    +0.000 N 
ATOM      2  C   UNL     1       2.683   4.766  18.582  0.00  0.00    +0.000 A 
ATOM      3  N   UNL     1       1.419   4.548  18.833  0.00  0.00    +0.000 NA
ATOM      4  C   UNL     1       0.961   3.272  18.931  0.00  0.00    +0.000 A 
ATOM      5  C   UNL     1       1.707   2.189  18.755  0.00  0.00    +0.000 A 
ATOM      6  C   UNL     1       3.128   2.385  18.455  0.00  0.00    +0.000 A 
ATOM      7  O   UNL     1       3.840   1.393  18.315  0.00  0.00    +0.000 OA
ATOM      8  N   UNL     1       3.565   3.701  18.391  0.00  0.00    +0.000 N 
ATOM      9  H   UNL     1       3.911   6.282  17.880  0.00  0.00    +0.000 HD
ENDROOT
BRANCH   1  13
ATOM     10  C   UNL     1       0.899   9.304  20.104  0.00  0.00    +0.000 A 
ATOM     11  C   UNL     1       1.264   8.226  20.903  0.00  0.00    +0.000 A 
ATOM     12  C   UNL     1       2.021   7.178  20.373  0.00  0.00    +0.000 A 
ATOM     13  C   UNL     1       2.465   7.187  19.043  0.00  0.00    +0.000 A 
ATOM     14  C   UNL     1       2.132   8.295  18.255  0.00  0.00    +0.000 A 
ATOM     15  C   UNL     1       1.364   9.342  18.788  0.00  0.00    +0.000 A 
ATOM     16  F   UNL     1       1.099  10.396  17.999  0.00  0.00    +0.000 F 
BRANCH  10  17
ATOM     17  O   UNL     1       0.167  10.269  20.732  0.00  0.00    +0.000 OA
BRANCH  17  19
ATOM     18  C   UNL     1      -1.487  11.759  19.856  0.00  0.00    +0.000 C 
ATOM     19  C   UNL     1       0.011  11.521  20.053  0.00  0.00    +0.000 C 
ATOM     20  C   UNL     1       0.601  12.611  20.941  0.00  0.00    +0.000 C 
ENDBRANCH  17  19
ENDBRANCH  10  17
ENDBRANCH   1  13
BRANCH   8  21
ATOM     21  C   UNL     1       5.012   3.873  18.326  0.00  0.00    +0.000 C 
BRANCH  21  22
ATOM     22  C   UNL     1       5.589   4.238  16.969  0.00  0.00    +0.000 A 
ATOM     23  C   UNL     1       4.883   4.110  15.764  0.00  0.00    +0.000 A 
ATOM     24  C   UNL     1       5.508   4.383  14.542  0.00  0.00    +0.000 A 
ATOM     25  C   UNL     1       6.838   4.799  14.513  0.00  0.00    +0.000 A 
ATOM     26 CL   UNL     1       7.618   5.084  13.007  0.00  0.00    +0.000 Cl
ATOM     27  C   UNL     1       7.543   4.973  15.699  0.00  0.00    +0.000 A 
ATOM     28  C   UNL     1       6.920   4.695  16.919  0.00  0.00    +0.000 A 
ENDBRANCH  21  22
ENDBRANCH   8  21
TORSDOF 5
ENDMDL
