MODEL 1
REMARK VINA RESULT:      -6.9      0.000      0.000
REMARK  Name = 
REMARK  8 active torsions:
REMARK  status: ('A' for Active; 'I' for Inactive)
REMARK    1  A    between atoms: C_1  and  N_2
REMARK    2  A    between atoms: N_2  and  C_3
REMARK    3  A    between atoms: N_2  and  C_4
REMARK    4  A    between atoms: N_2  and  C_5
REMARK    5  A    between atoms: C_5  and  C_6
REMARK    6  A    between atoms: C_6  and  N_7
REMARK    7  A    between atoms: C_8  and  C_10
REMARK    8  A    between atoms: C_12  and  O_13
REMARK                            x       y       z     vdW  Elec       q    Type
REMARK                         _______ _______ _______ _____ _____    ______ ____
ROOT
ATOM      1  C   UNL     1       2.275   7.334  19.378  0.00  0.00    +0.000 A 
ATOM      2  C   UNL     1       2.377   8.227  18.304  0.00  0.00    +0.000 A 
ATOM      3  C   UNL     1       1.758   9.482  18.369  0.00  0.00    +0.000 A 
ATOM      4  C   UNL     1       1.022   9.843  19.525  0.00  0.00    +0.000 A 
ATOM      5  C   UNL     1       0.358  11.090  19.683  0.00  0.00    +0.000 A 
ATOM      6 CL   UNL     1       0.362  12.363  18.464  0.00  0.00    +0.000 Cl
ATOM      7  C   UNL     1      -0.348  11.358  20.863  0.00  0.00    +0.000 A 
ATOM      8  C   UNL     1      -0.411  10.414  21.889  0.00  0.00    +0.000 A 
ATOM      9 CL   UNL     1      -1.303  10.770  23.357  0.00  0.00    +0.000 Cl
ATOM     10  C   UNL     1       0.234   9.188  21.749  0.00  0.00    +0.000 A 
ATOM     11  C   UNL     1       0.947   8.898  20.583  0.00  0.00    +0.000 A 
ATOM     12  N   UNL     1       1.569   7.698  20.478  0.00  0.00    +0.000 NA
ENDROOT
BRANCH   1  14
ATOM     13  N   UNL     1       4.171   5.857  18.801  0.00  0.00    +0.000 N 
ATOM     14  C   UNL     1       2.920   6.002  19.326  0.00  0.00    +0.000 C 
ATOM     15  O   UNL     1       2.323   5.032  19.773  0.00  0.00    +0.000 OA
ATOM     16  H   UNL     1       4.675   6.685  18.450  0.00  0.00    +0.000 HD
BRANCH  13  17
ATOM     17  C   UNL     1       4.863   4.583  18.748  0.00  0.00    +0.000 C 
BRANCH  17  18
ATOM     18  C   UNL     1       4.904   4.023  17.300  0.00  0.00    +0.000 C 
BRANCH  18  20
ATOM     19  C   UNL     1       6.179   3.652  15.291  0.00  0.00    +0.000 C 
ATOM     20  N   UNL     1       5.990   4.576  16.436  0.00  0.00    +0.000 N 
ATOM     21  C   UNL     1       7.273   4.662  17.176  0.00  0.00    +0.000 C 
ATOM     22  C   UNL     1       5.632   5.911  15.905  0.00  0.00    +0.000 C 
ENDBRANCH  18  20
ENDBRANCH  17  18
ENDBRANCH  13  17
ENDBRANCH   1  14
BRANCH   3  23
ATOM     23  O   UNL     1       1.877  10.322  17.320  0.00  0.00    +0.000 OA
ATOM     24  H   UNL     1       2.711  10.441  16.842  0.00  0.00    +0.000 HD
ENDBRANCH   3  23
TORSDOF 5
ENDMDL
MODEL 2
REMARK VINA RESULT:      -6.8      3.720      8.176
REMARK  Name = 
REMARK  8 active torsions:
REMARK  status: ('A' for Active; 'I' for Inactive)
REMARK    1  A    between atoms: C_1  and  N_2
REMARK    2  A    between atoms: N_2  and  C_3
REMARK    3  A    between atoms: N_2  and  C_4
REMARK    4  A    between atoms: N_2  and  C_5
REMARK    5  A    between atoms: C_5  and  C_6
REMARK    6  A    between atoms: C_6  and  N_7
REMARK    7  A    between atoms: C_8  and  C_10
REMARK    8  A    between atoms: C_12  and  O_13
REMARK                            x       y       z     vdW  Elec       q    Type
REMARK                         _______ _______ _______ _____ _____    ______ ____
ROOT
ATOM      1  C   UNL     1       2.550   7.868  18.505  0.00  0.00    +0.000 A 
ATOM      2  C   UNL     1       2.380   6.955  19.553  0.00  0.00    +0.000 A 
ATOM      3  C   UNL     1       3.088   5.747  19.557  0.00  0.00    +0.000 A 
ATOM      4  C   UNL     1       3.974   5.448  18.492  0.00  0.00    +0.000 A 
ATOM      5  C   UNL     1       4.733   4.250  18.406  0.00  0.00    +0.000 A 
ATOM      6 CL   UNL     1       4.682   2.969  19.617  0.00  0.00    +0.000 Cl
ATOM      7  C   UNL     1       5.583   4.041  17.312  0.00  0.00    +0.000 A 
ATOM      8  C   UNL     1       5.694   4.995  16.300  0.00  0.00    +0.000 A 
ATOM      9 CL   UNL     1       6.763   4.712  14.938  0.00  0.00    +0.000 Cl
ATOM     10  C   UNL     1       4.957   6.175  16.369  0.00  0.00    +0.000 A 
ATOM     11  C   UNL     1       4.104   6.407  17.452  0.00  0.00    +0.000 A 
ATOM     12  N   UNL     1       3.403   7.567  17.495  0.00  0.00    +0.000 NA
ENDROOT
BRANCH   1  14
ATOM     13  N   UNL     1       1.047   9.530  19.549  0.00  0.00    +0.000 N 
ATOM     14  C   UNL     1       1.807   9.149  18.482  0.00  0.00    +0.000 C 
ATOM     15  O   UNL     1       1.893   9.872  17.498  0.00  0.00    +0.000 OA
ATOM     16  H   UNL     1       1.001   8.925  20.383  0.00  0.00    +0.000 HD
BRANCH  13  17
ATOM     17  C   UNL     1       0.319  10.784  19.595  0.00  0.00    +0.000 C 
BRANCH  17  18
ATOM     18  C   UNL     1      -1.160  10.595  19.163  0.00  0.00    +0.000 C 
BRANCH  18  20
ATOM     19  C   UNL     1      -2.685  11.475  17.519  0.00  0.00    +0.000 C 
ATOM     20  N   UNL     1      -1.846  11.835  18.688  0.00  0.00    +0.000 N 
ATOM     21  C   UNL     1      -0.864  12.859  18.254  0.00  0.00    +0.000 C 
ATOM     22  C   UNL     1      -2.726  12.401  19.737  0.00  0.00    +0.000 C 
ENDBRANCH  18  20
ENDBRANCH  17  18
ENDBRANCH  13  17
ENDBRANCH   1  14
BRANCH   3  23
ATOM     23  O   UNL     1       2.908   4.889  20.583  0.00  0.00    +0.000 OA
ATOM     24  H   UNL     1       3.585   4.249  20.850  0.00  0.00    +0.000 HD
ENDBRANCH   3  23
TORSDOF 5
ENDMDL
MODEL 3
REMARK VINA RESULT:      -6.7      1.495      2.346
REMARK  Name = 
REMARK  8 active torsions:
REMARK  status: ('A' for Active; 'I' for Inactive)
REMARK    1  A    between atoms: C_1  and  N_2
REMARK    2  A    between atoms: N_2  and  C_3
REMARK    3  A    between atoms: N_2  and  C_4
REMARK    4  A    between atoms: N_2  and  C_5
REMARK    5  A    between atoms: C_5  and  C_6
REMARK    6  A    between atoms: C_6  and  N_7
REMARK    7  A    between atoms: C_8  and  C_10
REMARK    8  A    between atoms: C_12  and  O_13
REMARK                            x       y       z     vdW  Elec       q    Type
REMARK                         _______ _______ _______ _____ _____    ______ ____
ROOT
ATOM      1  C   UNL     1       2.309   7.492  18.635  0.00  0.00    +0.000 A 
ATOM      2  C   UNL     1       2.510   8.589  17.788  0.00  0.00    +0.000 A 
ATOM      3  C   UNL     1       2.020   9.852  18.143  0.00  0.00    +0.000 A 
ATOM      4  C   UNL     1       1.313  10.016  19.361  0.00  0.00    +0.000 A 
ATOM      5  C   UNL     1       0.778  11.255  19.805  0.00  0.00    +0.000 A 
ATOM      6 CL   UNL     1       0.922  12.763  18.904  0.00  0.00    +0.000 Cl
ATOM      7  C   UNL     1       0.091  11.319  21.025  0.00  0.00    +0.000 A 
ATOM      8  C   UNL     1      -0.076  10.180  21.812  0.00  0.00    +0.000 A 
ATOM      9 CL   UNL     1      -0.941  10.283  23.335  0.00  0.00    +0.000 Cl
ATOM     10  C   UNL     1       0.444   8.958  21.391  0.00  0.00    +0.000 A 
ATOM     11  C   UNL     1       1.134   8.869  20.180  0.00  0.00    +0.000 A 
ATOM     12  N   UNL     1       1.633   7.667  19.798  0.00  0.00    +0.000 NA
ENDROOT
BRANCH   1  14
ATOM     13  N   UNL     1       4.151   5.872  18.334  0.00  0.00    +0.000 N 
ATOM     14  C   UNL     1       2.817   6.148  18.275  0.00  0.00    +0.000 C 
ATOM     15  O   UNL     1       2.022   5.280  17.938  0.00  0.00    +0.000 OA
ATOM     16  H   UNL     1       4.810   6.603  18.644  0.00  0.00    +0.000 HD
BRANCH  13  17
ATOM     17  C   UNL     1       4.704   4.568  18.019  0.00  0.00    +0.000 C 
BRANCH  17  18
ATOM     18  C   UNL     1       4.977   3.744  19.306  0.00  0.00    +0.000 C 
BRANCH  18  20
ATOM     19  C   UNL     1       4.740   1.537  20.241  0.00  0.00    +0.000 C 
ATOM     20  N   UNL     1       4.007   2.638  19.569  0.00  0.00    +0.000 N 
ATOM     21  C   UNL     1       3.440   2.109  18.303  0.00  0.00    +0.000 C 
ATOM     22  C   UNL     1       2.910   3.080  20.460  0.00  0.00    +0.000 C 
ENDBRANCH  18  20
ENDBRANCH  17  18
ENDBRANCH  13  17
ENDBRANCH   1  14
BRANCH   3  23
ATOM     23  O   UNL     1       2.233  10.892  17.309  0.00  0.00    +0.000 OA
ATOM     24  H   UNL     1       3.042  11.424  17.339  0.00  0.00    +0.000 HD
ENDBRANCH   3  23
TORSDOF 5
ENDMDL
MODEL 4
REMARK VINA RESULT:      -6.7      0.870      1.330
REMARK  Name = 
REMARK  8 active torsions:
REMARK  status: ('A' for Active; 'I' for Inactive)
REMARK    1  A    between atoms: C_1  and  N_2
REMARK    2  A    between atoms: N_2  and  C_3
REMARK    3  A    between atoms: N_2  and  C_4
REMARK    4  A    between atoms: N_2  and  C_5
REMARK    5  A    between atoms: C_5  and  C_6
REMARK    6  A    between atoms: C_6  and  N_7
REMARK    7  A    between atoms: C_8  and  C_10
REMARK    8  A    between atoms: C_12  and  O_13
REMARK                            x       y       z     vdW  Elec       q    Type
REMARK                         _______ _______ _______ _____ _____    ______ ____
ROOT
ATOM      1  C   UNL     1       2.186   7.749  19.021  0.00  0.00    +0.000 A 
ATOM      2  C   UNL     1       2.380   8.768  18.080  0.00  0.00    +0.000 A 
ATOM      3  C   UNL     1       1.821  10.035  18.288  0.00  0.00    +0.000 A 
ATOM      4  C   UNL     1       1.050  10.280  19.453  0.00  0.00    +0.000 A 
ATOM      5  C   UNL     1       0.442  11.530  19.750  0.00  0.00    +0.000 A 
ATOM      6 CL   UNL     1       0.564  12.950  18.714  0.00  0.00    +0.000 Cl
ATOM      7  C   UNL     1      -0.304  11.678  20.927  0.00  0.00    +0.000 A 
ATOM      8  C   UNL     1      -0.460  10.612  21.814  0.00  0.00    +0.000 A 
ATOM      9 CL   UNL     1      -1.400  10.819  23.281  0.00  0.00    +0.000 Cl
ATOM     10  C   UNL     1       0.131   9.381  21.537  0.00  0.00    +0.000 A 
ATOM     11  C   UNL     1       0.881   9.210  20.371  0.00  0.00    +0.000 A 
ATOM     12  N   UNL     1       1.449   8.002  20.131  0.00  0.00    +0.000 NA
ENDROOT
BRANCH   1  14
ATOM     13  N   UNL     1       3.807   5.971  19.588  0.00  0.00    +0.000 N 
ATOM     14  C   UNL     1       2.768   6.402  18.816  0.00  0.00    +0.000 C 
ATOM     15  O   UNL     1       2.295   5.673  17.954  0.00  0.00    +0.000 OA
ATOM     16  H   UNL     1       4.181   6.584  20.328  0.00  0.00    +0.000 HD
BRANCH  13  17
ATOM     17  C   UNL     1       4.399   4.653  19.451  0.00  0.00    +0.000 C 
BRANCH  17  18
ATOM     18  C   UNL     1       5.910   4.746  19.106  0.00  0.00    +0.000 C 
BRANCH  18  20
ATOM     19  C   UNL     1       6.099   6.358  17.326  0.00  0.00    +0.000 C 
ATOM     20  N   UNL     1       6.220   4.916  17.654  0.00  0.00    +0.000 N 
ATOM     21  C   UNL     1       5.257   4.168  16.809  0.00  0.00    +0.000 C 
ATOM     22  C   UNL     1       7.601   4.481  17.342  0.00  0.00    +0.000 C 
ENDBRANCH  18  20
ENDBRANCH  17  18
ENDBRANCH  13  17
ENDBRANCH   1  14
BRANCH   3  23
ATOM     23  O   UNL     1       2.028  10.999  17.367  0.00  0.00    +0.000 OA
ATOM     24  H   UNL     1       1.416  11.739  17.243  0.00  0.00    +0.000 HD
ENDBRANCH   3  23
TORSDOF 5
ENDMDL
MODEL 5
REMARK VINA RESULT:      -6.7      2.424      3.817
REMARK  Name = 
REMARK  8 active torsions:
REMARK  status: ('A' for Active; 'I' for Inactive)
REMARK    1  A    between atoms: C_1  and  N_2
REMARK    2  A    between atoms: N_2  and  C_3
REMARK    3  A    between atoms: N_2  and  C_4
REMARK    4  A    between atoms: N_2  and  C_5
REMARK    5  A    between atoms: C_5  and  C_6
REMARK    6  A    between atoms: C_6  and  N_7
REMARK    7  A    between atoms: C_8  and  C_10
REMARK    8  A    between atoms: C_12  and  O_13
REMARK                            x       y       z     vdW  Elec       q    Type
REMARK                         _______ _______ _______ _____ _____    ______ ____
ROOT
ATOM      1  C   UNL     1       1.463   8.320  20.099  0.00  0.00    +0.000 A 
ATOM      2  C   UNL     1       0.822   8.164  21.335  0.00  0.00    +0.000 A 
ATOM      3  C   UNL     1       0.043   9.203  21.861  0.00  0.00    +0.000 A 
ATOM      4  C   UNL     1      -0.089  10.416  21.140  0.00  0.00    +0.000 A 
ATOM      5  C   UNL     1      -0.855  11.525  21.592  0.00  0.00    +0.000 A 
ATOM      6 CL   UNL     1      -1.749  11.544  23.111  0.00  0.00    +0.000 Cl
ATOM      7  C   UNL     1      -0.926  12.686  20.811  0.00  0.00    +0.000 A 
ATOM      8  C   UNL     1      -0.253  12.770  19.591  0.00  0.00    +0.000 A 
ATOM      9 CL   UNL     1      -0.356  14.234  18.630  0.00  0.00    +0.000 Cl
ATOM     10  C   UNL     1       0.500  11.691  19.134  0.00  0.00    +0.000 A 
ATOM     11  C   UNL     1       0.585  10.522  19.895  0.00  0.00    +0.000 A 
ATOM     12  N   UNL     1       1.322   9.487  19.422  0.00  0.00    +0.000 NA
ENDROOT
BRANCH   1  14
ATOM     13  N   UNL     1       2.652   6.162  20.292  0.00  0.00    +0.000 N 
ATOM     14  C   UNL     1       2.293   7.234  19.528  0.00  0.00    +0.000 C 
ATOM     15  O   UNL     1       2.642   7.302  18.357  0.00  0.00    +0.000 OA
ATOM     16  H   UNL     1       2.332   6.103  21.270  0.00  0.00    +0.000 HD
BRANCH  13  17
ATOM     17  C   UNL     1       3.442   5.057  19.781  0.00  0.00    +0.000 C 
BRANCH  17  18
ATOM     18  C   UNL     1       2.727   3.698  20.010  0.00  0.00    +0.000 C 
BRANCH  18  20
ATOM     19  C   UNL     1       2.589   3.852  17.610  0.00  0.00    +0.000 C 
ATOM     20  N   UNL     1       2.381   2.946  18.767  0.00  0.00    +0.000 N 
ATOM     21  C   UNL     1       0.958   2.525  18.773  0.00  0.00    +0.000 C 
ATOM     22  C   UNL     1       3.251   1.760  18.592  0.00  0.00    +0.000 C 
ENDBRANCH  18  20
ENDBRANCH  17  18
ENDBRANCH  13  17
ENDBRANCH   1  14
BRANCH   3  23
ATOM     23  O   UNL     1      -0.565   9.022  23.052  0.00  0.00    +0.000 OA
ATOM     24  H   UNL     1      -1.438   9.392  23.250  0.00  0.00    +0.000 HD
ENDBRANCH   3  23
TORSDOF 5
ENDMDL
MODEL 6
REMARK VINA RESULT:      -6.7      1.775      2.420
REMARK  Name = 
REMARK  8 active torsions:
REMARK  status: ('A' for Active; 'I' for Inactive)
REMARK    1  A    between atoms: C_1  and  N_2
REMARK    2  A    between atoms: N_2  and  C_3
REMARK    3  A    between atoms: N_2  and  C_4
REMARK    4  A    between atoms: N_2  and  C_5
REMARK    5  A    between atoms: C_5  and  C_6
REMARK    6  A    between atoms: C_6  and  N_7
REMARK    7  A    between atoms: C_8  and  C_10
REMARK    8  A    between atoms: C_12  and  O_13
REMARK                            x       y       z     vdW  Elec       q    Type
REMARK                         _______ _______ _______ _____ _____    ______ ____
ROOT
ATOM      1  C   UNL     1       1.922   7.681  19.822  0.00  0.00    +0.000 A 
ATOM      2  C   UNL     1       2.110   8.468  18.679  0.00  0.00    +0.000 A 
ATOM      3  C   UNL     1       1.527   9.739  18.596  0.00  0.00    +0.000 A 
ATOM      4  C   UNL     1       0.740  10.223  19.670  0.00  0.00    +0.000 A 
ATOM      5  C   UNL     1       0.107  11.496  19.678  0.00  0.00    +0.000 A 
ATOM      6 CL   UNL     1       0.217  12.652  18.351  0.00  0.00    +0.000 Cl
ATOM      7  C   UNL     1      -0.654  11.889  20.787  0.00  0.00    +0.000 A 
ATOM      8  C   UNL     1      -0.802  11.045  21.888  0.00  0.00    +0.000 A 
ATOM      9 CL   UNL     1      -1.761  11.556  23.265  0.00  0.00    +0.000 Cl
ATOM     10  C   UNL     1      -0.188   9.795  21.896  0.00  0.00    +0.000 A 
ATOM     11  C   UNL     1       0.578   9.382  20.803  0.00  0.00    +0.000 A 
ATOM     12  N   UNL     1       1.168   8.161  20.842  0.00  0.00    +0.000 NA
ENDROOT
BRANCH   1  14
ATOM     13  N   UNL     1       3.641   6.016  19.205  0.00  0.00    +0.000 N 
ATOM     14  C   UNL     1       2.527   6.333  19.926  0.00  0.00    +0.000 C 
ATOM     15  O   UNL     1       2.025   5.510  20.680  0.00  0.00    +0.000 OA
ATOM     16  H   UNL     1       4.071   6.725  18.592  0.00  0.00    +0.000 HD
BRANCH  13  17
ATOM     17  C   UNL     1       4.293   4.722  19.287  0.00  0.00    +0.000 C 
BRANCH  17  18
ATOM     18  C   UNL     1       3.630   3.694  18.331  0.00  0.00    +0.000 C 
BRANCH  18  20
ATOM     19  C   UNL     1       3.635   1.285  18.333  0.00  0.00    +0.000 C 
ATOM     20  N   UNL     1       3.063   2.483  18.996  0.00  0.00    +0.000 N 
ATOM     21  C   UNL     1       1.587   2.430  18.848  0.00  0.00    +0.000 C 
ATOM     22  C   UNL     1       3.421   2.436  20.433  0.00  0.00    +0.000 C 
ENDBRANCH  18  20
ENDBRANCH  17  18
ENDBRANCH  13  17
ENDBRANCH   1  14
BRANCH   3  23
ATOM     23  O   UNL     1       1.729  10.477  17.484  0.00  0.00    +0.000 OA
ATOM     24  H   UNL     1       2.615  10.682  17.151  0.00  0.00    +0.000 HD
ENDBRANCH   3  23
TORSDOF 5
ENDMDL
MODEL 7
REMARK VINA RESULT:      -6.6      3.530      8.279
REMARK  Name = 
REMARK  8 active torsions:
REMARK  status: ('A' for Active; 'I' for Inactive)
REMARK    1  A    between atoms: C_1  and  N_2
REMARK    2  A    between atoms: N_2  and  C_3
REMARK    3  A    between atoms: N_2  and  C_4
REMARK    4  A    between atoms: N_2  and  C_5
REMARK    5  A    between atoms: C_5  and  C_6
REMARK    6  A    between atoms: C_6  and  N_7
REMARK    7  A    between atoms: C_8  and  C_10
REMARK    8  A    between atoms: C_12  and  O_13
REMARK                            x       y       z     vdW  Elec       q    Type
REMARK                         _______ _______ _______ _____ _____    ______ ____
ROOT
ATOM      1  C   UNL     1       2.514   7.975  18.456  0.00  0.00    +0.000 A 
ATOM      2  C   UNL     1       2.337   7.074  19.513  0.00  0.00    +0.000 A 
ATOM      3  C   UNL     1       3.048   5.867  19.537  0.00  0.00    +0.000 A 
ATOM      4  C   UNL     1       3.943   5.557  18.483  0.00  0.00    +0.000 A 
ATOM      5  C   UNL     1       4.705   4.359  18.418  0.00  0.00    +0.000 A 
ATOM      6 CL   UNL     1       4.646   3.093  19.643  0.00  0.00    +0.000 Cl
ATOM      7  C   UNL     1       5.564   4.139  17.332  0.00  0.00    +0.000 A 
ATOM      8  C   UNL     1       5.682   5.082  16.311  0.00  0.00    +0.000 A 
ATOM      9 CL   UNL     1       6.763   4.785  14.961  0.00  0.00    +0.000 Cl
ATOM     10  C   UNL     1       4.942   6.261  16.360  0.00  0.00    +0.000 A 
ATOM     11  C   UNL     1       4.080   6.504  17.433  0.00  0.00    +0.000 A 
ATOM     12  N   UNL     1       3.377   7.663  17.457  0.00  0.00    +0.000 NA
ENDROOT
BRANCH   1  14
ATOM     13  N   UNL     1       0.848   9.553  19.373  0.00  0.00    +0.000 N 
ATOM     14  C   UNL     1       1.769   9.254  18.412  0.00  0.00    +0.000 C 
ATOM     15  O   UNL     1       2.000  10.049  17.511  0.00  0.00    +0.000 OA
ATOM     16  H   UNL     1       0.679   8.887  20.141  0.00  0.00    +0.000 HD
BRANCH  13  17
ATOM     17  C   UNL     1       0.107  10.801  19.396  0.00  0.00    +0.000 C 
BRANCH  17  18
ATOM     18  C   UNL     1       0.537  11.691  20.593  0.00  0.00    +0.000 C 
BRANCH  18  20
ATOM     19  C   UNL     1      -0.717  11.100  22.563  0.00  0.00    +0.000 C 
ATOM     20  N   UNL     1      -0.574  12.120  21.495  0.00  0.00    +0.000 N 
ATOM     21  C   UNL     1      -1.861  12.202  20.761  0.00  0.00    +0.000 C 
ATOM     22  C   UNL     1      -0.280  13.424  22.132  0.00  0.00    +0.000 C 
ENDBRANCH  18  20
ENDBRANCH  17  18
ENDBRANCH  13  17
ENDBRANCH   1  14
BRANCH   3  23
ATOM     23  O   UNL     1       2.860   5.021  20.571  0.00  0.00    +0.000 OA
ATOM     24  H   UNL     1       3.094   4.082  20.523  0.00  0.00    +0.000 HD
ENDBRANCH   3  23
TORSDOF 5
ENDMDL
MODEL 8
REMARK VINA RESULT:      -6.6      3.905      7.737
REMARK  Name = 
REMARK  8 active torsions:
REMARK  status: ('A' for Active; 'I' for Inactive)
REMARK    1  A    between atoms: C_1  and  N_2
REMARK    2  A    between atoms: N_2  and  C_3
REMARK    3  A    between atoms: N_2  and  C_4
REMARK    4  A    between atoms: N_2  and  C_5
REMARK    5  A    between atoms: C_5  and  C_6
REMARK    6  A    between atoms: C_6  and  N_7
REMARK    7  A    between atoms: C_8  and  C_10
REMARK    8  A    between atoms: C_12  and  O_13
REMARK                            x       y       z     vdW  Elec       q    Type
REMARK                         _______ _______ _______ _____ _____    ______ ____
ROOT
ATOM      1  C   UNL     1       2.705   7.889  17.911  0.00  0.00    +0.000 A 
ATOM      2  C   UNL     1       3.890   7.875  17.165  0.00  0.00    +0.000 A 
ATOM      3  C   UNL     1       4.522   6.660  16.870  0.00  0.00    +0.000 A 
ATOM      4  C   UNL     1       3.961   5.444  17.336  0.00  0.00    +0.000 A 
ATOM      5  C   UNL     1       4.529   4.165  17.089  0.00  0.00    +0.000 A 
ATOM      6 CL   UNL     1       6.010   3.912  16.167  0.00  0.00    +0.000 Cl
ATOM      7  C   UNL     1       3.902   3.017  17.592  0.00  0.00    +0.000 A 
ATOM      8  C   UNL     1       2.725   3.112  18.335  0.00  0.00    +0.000 A 
ATOM      9 CL   UNL     1       1.958   1.661  18.956  0.00  0.00    +0.000 Cl
ATOM     10  C   UNL     1       2.156   4.358  18.584  0.00  0.00    +0.000 A 
ATOM     11  C   UNL     1       2.761   5.517  18.092  0.00  0.00    +0.000 A 
ATOM     12  N   UNL     1       2.180   6.716  18.346  0.00  0.00    +0.000 NA
ENDROOT
BRANCH   1  14
ATOM     13  N   UNL     1       1.229   9.264  19.339  0.00  0.00    +0.000 N 
ATOM     14  C   UNL     1       2.024   9.164  18.236  0.00  0.00    +0.000 C 
ATOM     15  O   UNL     1       2.195  10.134  17.509  0.00  0.00    +0.000 OA
ATOM     16  H   UNL     1       1.111   8.448  19.959  0.00  0.00    +0.000 HD
BRANCH  13  17
ATOM     17  C   UNL     1       0.558  10.493  19.722  0.00  0.00    +0.000 C 
BRANCH  17  18
ATOM     18  C   UNL     1      -0.950  10.450  19.356  0.00  0.00    +0.000 C 
BRANCH  18  20
ATOM     19  C   UNL     1      -0.365  12.647  18.559  0.00  0.00    +0.000 C 
ATOM     20  N   UNL     1      -1.498  11.714  18.777  0.00  0.00    +0.000 N 
ATOM     21  C   UNL     1      -2.455  12.361  19.708  0.00  0.00    +0.000 C 
ATOM     22  C   UNL     1      -2.158  11.470  17.474  0.00  0.00    +0.000 C 
ENDBRANCH  18  20
ENDBRANCH  17  18
ENDBRANCH  13  17
ENDBRANCH   1  14
BRANCH   3  23
ATOM     23  O   UNL     1       5.661   6.677  16.146  0.00  0.00    +0.000 OA
ATOM     24  H   UNL     1       5.991   7.480  15.717  0.00  0.00    +0.000 HD
ENDBRANCH   3  23
TORSDOF 5
ENDMDL
MODEL 9
REMARK VINA RESULT:      -6.6      3.781      8.010
REMARK  Name = 
REMARK  8 active torsions:
REMARK  status: ('A' for Active; 'I' for Inactive)
REMARK    1  A    between atoms: C_1  and  N_2
REMARK    2  A    between atoms: N_2  and  C_3
REMARK    3  A    between atoms: N_2  and  C_4
REMARK    4  A    between atoms: N_2  and  C_5
REMARK    5  A    between atoms: C_5  and  C_6
REMARK    6  A    between atoms: C_6  and  N_7
REMARK    7  A    between atoms: C_8  and  C_10
REMARK    8  A    between atoms: C_12  and  O_13
REMARK                            x       y       z     vdW  Elec       q    Type
REMARK                         _______ _______ _______ _____ _____    ______ ____
ROOT
ATOM      1  C   UNL     1       2.134   6.938  19.829  0.00  0.00    +0.000 A 
ATOM      2  C   UNL     1       1.860   5.694  20.413  0.00  0.00    +0.000 A 
ATOM      3  C   UNL     1       2.413   4.525  19.874  0.00  0.00    +0.000 A 
ATOM      4  C   UNL     1       3.245   4.605  18.729  0.00  0.00    +0.000 A 
ATOM      5  C   UNL     1       3.849   3.477  18.110  0.00  0.00    +0.000 A 
ATOM      6 CL   UNL     1       3.649   1.821  18.681  0.00  0.00    +0.000 Cl
ATOM      7  C   UNL     1       4.656   3.654  16.978  0.00  0.00    +0.000 A 
ATOM      8  C   UNL     1       4.877   4.925  16.448  0.00  0.00    +0.000 A 
ATOM      9 CL   UNL     1       5.891   5.123  15.030  0.00  0.00    +0.000 Cl
ATOM     10  C   UNL     1       4.294   6.041  17.045  0.00  0.00    +0.000 A 
ATOM     11  C   UNL     1       3.486   5.890  18.175  0.00  0.00    +0.000 A 
ATOM     12  N   UNL     1       2.935   6.995  18.736  0.00  0.00    +0.000 NA
ENDROOT
BRANCH   1  14
ATOM     13  N   UNL     1       1.271   9.239  19.568  0.00  0.00    +0.000 N 
ATOM     14  C   UNL     1       1.556   8.183  20.384  0.00  0.00    +0.000 C 
ATOM     15  O   UNL     1       1.323   8.251  21.583  0.00  0.00    +0.000 OA
ATOM     16  H   UNL     1       1.448   9.162  18.555  0.00  0.00    +0.000 HD
BRANCH  13  17
ATOM     17  C   UNL     1       0.681  10.474  20.049  0.00  0.00    +0.000 C 
BRANCH  17  18
ATOM     18  C   UNL     1      -0.837  10.537  19.730  0.00  0.00    +0.000 C 
BRANCH  18  20
ATOM     19  C   UNL     1      -0.083  12.598  18.735  0.00  0.00    +0.000 C 
ATOM     20  N   UNL     1      -1.283  11.772  19.015  0.00  0.00    +0.000 N 
ATOM     21  C   UNL     1      -2.208  12.572  19.855  0.00  0.00    +0.000 C 
ATOM     22  C   UNL     1      -1.936  11.445  17.727  0.00  0.00    +0.000 C 
ENDBRANCH  18  20
ENDBRANCH  17  18
ENDBRANCH  13  17
ENDBRANCH   1  14
BRANCH   3  23
ATOM     23  O   UNL     1       2.135   3.342  20.460  0.00  0.00    +0.000 OA
ATOM     24  H   UNL     1       1.228   3.025  20.584  0.00  0.00    +0.000 HD
ENDBRANCH   3  23
TORSDOF 5
ENDMDL
