MODEL 1
REMARK VINA RESULT:      -7.2      0.000      0.000
REMARK  Name = 
REMARK  4 active torsions:
REMARK  status: ('A' for Active; 'I' for Inactive)
REMARK    1  A    between atoms: C_1  and  C_2
REMARK    2  A    between atoms: N_7  and  S_8
REMARK    3  A    between atoms: S_8  and  C_11
REMARK    4  A    between atoms: C_11  and  C_12
REMARK                            x       y       z     vdW  Elec       q    Type
REMARK                         _______ _______ _______ _____ _____    ______ ____
ROOT
ATOM      1  S   UNL     1       3.671   6.153  18.240  0.00  0.00    +0.000 S 
ATOM      2  O   UNL     1       4.811   5.974  19.116  0.00  0.00    +0.000 OA
ATOM      3  O   UNL     1       2.598   7.066  18.574  0.00  0.00    +0.000 OA
ENDROOT
BRANCH   1  10
ATOM      4  C   UNL     1       5.494   4.226  15.120  0.00  0.00    +0.000 C 
ATOM      5  C   UNL     1       6.203   5.340  15.785  0.00  0.00    +0.000 A 
ATOM      6  N   UNL     1       7.526   5.494  15.661  0.00  0.00    +0.000 NA
ATOM      7  O   UNL     1       7.809   6.691  16.312  0.00  0.00    +0.000 OA
ATOM      8  N   UNL     1       6.650   7.285  16.811  0.00  0.00    +0.000 NA
ATOM      9  C   UNL     1       5.681   6.427  16.518  0.00  0.00    +0.000 A 
ATOM     10  N   UNL     1       4.346   6.700  16.792  0.00  0.00    +0.000 N 
ATOM     11  H   UNL     1       4.073   7.671  16.636  0.00  0.00    +0.000 HD
ENDBRANCH   1  10
BRANCH   1  12
ATOM     12  C   UNL     1       2.985   4.516  17.843  0.00  0.00    +0.000 C 
BRANCH  12  13
ATOM     13  C   UNL     1       2.547   3.853  19.132  0.00  0.00    +0.000 A 
ATOM     14  C   UNL     1       3.467   3.141  19.916  0.00  0.00    +0.000 A 
ATOM     15  C   UNL     1       3.055   2.484  21.078  0.00  0.00    +0.000 A 
ATOM     16  C   UNL     1       1.721   2.536  21.476  0.00  0.00    +0.000 A 
ATOM     17  C   UNL     1       0.798   3.247  20.713  0.00  0.00    +0.000 A 
ATOM     18  C   UNL     1       1.206   3.903  19.548  0.00  0.00    +0.000 A 
ENDBRANCH  12  13
ENDBRANCH   1  12
TORSDOF 3
ENDMDL
MODEL 2
REMARK VINA RESULT:      -7.1      0.803      1.099
REMARK  Name = 
REMARK  4 active torsions:
REMARK  status: ('A' for Active; 'I' for Inactive)
REMARK    1  A    between atoms: C_1  and  C_2
REMARK    2  A    between atoms: N_7  and  S_8
REMARK    3  A    between atoms: S_8  and  C_11
REMARK    4  A    between atoms: C_11  and  C_12
REMARK                            x       y       z     vdW  Elec       q    Type
REMARK                         _______ _______ _______ _____ _____    ______ ____
ROOT
ATOM      1  S   UNL     1       3.470   6.423  18.264  0.00  0.00    +0.000 S 
ATOM      2  O   UNL     1       4.489   5.684  18.981  0.00  0.00    +0.000 OA
ATOM      3  O   UNL     1       2.844   7.596  18.838  0.00  0.00    +0.000 OA
ENDROOT
BRANCH   1  10
ATOM      4  C   UNL     1       5.346   4.379  15.252  0.00  0.00    +0.000 C 
ATOM      5  C   UNL     1       6.076   5.462  15.944  0.00  0.00    +0.000 A 
ATOM      6  N   UNL     1       7.409   5.550  15.884  0.00  0.00    +0.000 NA
ATOM      7  O   UNL     1       7.719   6.737  16.540  0.00  0.00    +0.000 OA
ATOM      8  N   UNL     1       6.568   7.393  16.977  0.00  0.00    +0.000 NA
ATOM      9  C   UNL     1       5.573   6.581  16.642  0.00  0.00    +0.000 A 
ATOM     10  N   UNL     1       4.241   6.922  16.848  0.00  0.00    +0.000 N 
ATOM     11  H   UNL     1       4.025   7.904  16.672  0.00  0.00    +0.000 HD
ENDBRANCH   1  10
BRANCH   1  12
ATOM     12  C   UNL     1       2.192   5.253  17.709  0.00  0.00    +0.000 C 
BRANCH  12  13
ATOM     13  C   UNL     1       1.954   4.242  18.811  0.00  0.00    +0.000 A 
ATOM     14  C   UNL     1       1.590   4.664  20.099  0.00  0.00    +0.000 A 
ATOM     15  C   UNL     1       1.420   3.739  21.131  0.00  0.00    +0.000 A 
ATOM     16  C   UNL     1       1.603   2.378  20.889  0.00  0.00    +0.000 A 
ATOM     17  C   UNL     1       1.954   1.944  19.613  0.00  0.00    +0.000 A 
ATOM     18  C   UNL     1       2.129   2.868  18.579  0.00  0.00    +0.000 A 
ENDBRANCH  12  13
ENDBRANCH   1  12
TORSDOF 3
ENDMDL
MODEL 3
REMARK VINA RESULT:      -7.1      1.397      1.618
REMARK  Name = 
REMARK  4 active torsions:
REMARK  status: ('A' for Active; 'I' for Inactive)
REMARK    1  A    between atoms: C_1  and  C_2
REMARK    2  A    between atoms: N_7  and  S_8
REMARK    3  A    between atoms: S_8  and  C_11
REMARK    4  A    between atoms: C_11  and  C_12
REMARK                            x       y       z     vdW  Elec       q    Type
REMARK                         _______ _______ _______ _____ _____    ______ ____
ROOT
ATOM      1  S   UNL     1       4.059   4.600  17.570  0.00  0.00    +0.000 S 
ATOM      2  O   UNL     1       3.687   3.404  16.842  0.00  0.00    +0.000 OA
ATOM      3  O   UNL     1       5.120   4.584  18.556  0.00  0.00    +0.000 OA
ENDROOT
BRANCH   1  10
ATOM      4  C   UNL     1       5.854   4.109  13.922  0.00  0.00    +0.000 C 
ATOM      5  C   UNL     1       6.458   5.042  14.897  0.00  0.00    +0.000 A 
ATOM      6  N   UNL     1       7.732   5.436  14.784  0.00  0.00    +0.000 NA
ATOM      7  O   UNL     1       7.902   6.385  15.788  0.00  0.00    +0.000 OA
ATOM      8  N   UNL     1       6.720   6.593  16.498  0.00  0.00    +0.000 NA
ATOM      9  C   UNL     1       5.856   5.735  15.970  0.00  0.00    +0.000 A 
ATOM     10  N   UNL     1       4.525   5.688  16.366  0.00  0.00    +0.000 N 
ATOM     11  H   UNL     1       4.109   6.601  16.554  0.00  0.00    +0.000 HD
ENDBRANCH   1  10
BRANCH   1  12
ATOM     12  C   UNL     1       2.557   5.326  18.295  0.00  0.00    +0.000 C 
BRANCH  12  13
ATOM     13  C   UNL     1       2.080   4.426  19.415  0.00  0.00    +0.000 A 
ATOM     14  C   UNL     1       2.555   4.604  20.724  0.00  0.00    +0.000 A 
ATOM     15  C   UNL     1       2.158   3.744  21.750  0.00  0.00    +0.000 A 
ATOM     16  C   UNL     1       1.274   2.699  21.485  0.00  0.00    +0.000 A 
ATOM     17  C   UNL     1       0.786   2.516  20.193  0.00  0.00    +0.000 A 
ATOM     18  C   UNL     1       1.185   3.373  19.163  0.00  0.00    +0.000 A 
ENDBRANCH  12  13
ENDBRANCH   1  12
TORSDOF 3
ENDMDL
MODEL 4
REMARK VINA RESULT:      -7.0      1.256      1.448
REMARK  Name = 
REMARK  4 active torsions:
REMARK  status: ('A' for Active; 'I' for Inactive)
REMARK    1  A    between atoms: C_1  and  C_2
REMARK    2  A    between atoms: N_7  and  S_8
REMARK    3  A    between atoms: S_8  and  C_11
REMARK    4  A    between atoms: C_11  and  C_12
REMARK                            x       y       z     vdW  Elec       q    Type
REMARK                         _______ _______ _______ _____ _____    ______ ____
ROOT
ATOM      1  S   UNL     1       5.390   4.894  18.824  0.00  0.00    +0.000 S 
ATOM      2  O   UNL     1       6.787   4.526  18.937  0.00  0.00    +0.000 OA
ATOM      3  O   UNL     1       4.716   5.628  19.874  0.00  0.00    +0.000 OA
ENDROOT
BRANCH   1  10
ATOM      4  C   UNL     1       5.151   4.001  14.835  0.00  0.00    +0.000 C 
ATOM      5  C   UNL     1       6.239   4.883  15.306  0.00  0.00    +0.000 A 
ATOM      6  N   UNL     1       7.334   5.090  14.566  0.00  0.00    +0.000 NA
ATOM      7  O   UNL     1       8.061   6.048  15.266  0.00  0.00    +0.000 OA
ATOM      8  N   UNL     1       7.394   6.449  16.424  0.00  0.00    +0.000 NA
ATOM      9  C   UNL     1       6.301   5.698  16.457  0.00  0.00    +0.000 A 
ATOM     10  N   UNL     1       5.327   5.853  17.437  0.00  0.00    +0.000 N 
ATOM     11  H   UNL     1       5.148   6.823  17.702  0.00  0.00    +0.000 HD
ENDBRANCH   1  10
BRANCH   1  12
ATOM     12  C   UNL     1       4.434   3.405  18.403  0.00  0.00    +0.000 C 
BRANCH  12  13
ATOM     13  C   UNL     1       3.268   3.294  19.362  0.00  0.00    +0.000 A 
ATOM     14  C   UNL     1       3.425   2.665  20.606  0.00  0.00    +0.000 A 
ATOM     15  C   UNL     1       2.340   2.514  21.471  0.00  0.00    +0.000 A 
ATOM     16  C   UNL     1       1.084   2.997  21.110  0.00  0.00    +0.000 A 
ATOM     17  C   UNL     1       0.914   3.633  19.882  0.00  0.00    +0.000 A 
ATOM     18  C   UNL     1       1.998   3.782  19.012  0.00  0.00    +0.000 A 
ENDBRANCH  12  13
ENDBRANCH   1  12
TORSDOF 3
ENDMDL
MODEL 5
REMARK VINA RESULT:      -7.0      1.529      1.971
REMARK  Name = 
REMARK  4 active torsions:
REMARK  status: ('A' for Active; 'I' for Inactive)
REMARK    1  A    between atoms: C_1  and  C_2
REMARK    2  A    between atoms: N_7  and  S_8
REMARK    3  A    between atoms: S_8  and  C_11
REMARK    4  A    between atoms: C_11  and  C_12
REMARK                            x       y       z     vdW  Elec       q    Type
REMARK                         _______ _______ _______ _____ _____    ______ ____
ROOT
ATOM      1  S   UNL     1       5.216   5.138  18.922  0.00  0.00    +0.000 S 
ATOM      2  O   UNL     1       5.052   3.766  18.484  0.00  0.00    +0.000 OA
ATOM      3  O   UNL     1       6.376   5.554  19.682  0.00  0.00    +0.000 OA
ENDROOT
BRANCH   1  10
ATOM      4  C   UNL     1       5.212   4.056  14.972  0.00  0.00    +0.000 C 
ATOM      5  C   UNL     1       6.263   4.973  15.462  0.00  0.00    +0.000 A 
ATOM      6  N   UNL     1       7.396   5.161  14.776  0.00  0.00    +0.000 NA
ATOM      7  O   UNL     1       8.072   6.161  15.469  0.00  0.00    +0.000 OA
ATOM      8  N   UNL     1       7.336   6.606  16.567  0.00  0.00    +0.000 NA
ATOM      9  C   UNL     1       6.250   5.842  16.575  0.00  0.00    +0.000 A 
ATOM     10  N   UNL     1       5.221   6.030  17.490  0.00  0.00    +0.000 N 
ATOM     11  H   UNL     1       5.017   7.008  17.698  0.00  0.00    +0.000 HD
ENDBRANCH   1  10
BRANCH   1  12
ATOM     12  C   UNL     1       3.699   5.652  19.784  0.00  0.00    +0.000 C 
BRANCH  12  13
ATOM     13  C   UNL     1       2.665   4.557  19.634  0.00  0.00    +0.000 A 
ATOM     14  C   UNL     1       2.043   4.328  18.398  0.00  0.00    +0.000 A 
ATOM     15  C   UNL     1       1.051   3.353  18.268  0.00  0.00    +0.000 A 
ATOM     16  C   UNL     1       0.673   2.588  19.370  0.00  0.00    +0.000 A 
ATOM     17  C   UNL     1       1.288   2.798  20.602  0.00  0.00    +0.000 A 
ATOM     18  C   UNL     1       2.278   3.775  20.736  0.00  0.00    +0.000 A 
ENDBRANCH  12  13
ENDBRANCH   1  12
TORSDOF 3
ENDMDL
MODEL 6
REMARK VINA RESULT:      -7.0      2.081      2.736
REMARK  Name = 
REMARK  4 active torsions:
REMARK  status: ('A' for Active; 'I' for Inactive)
REMARK    1  A    between atoms: C_1  and  C_2
REMARK    2  A    between atoms: N_7  and  S_8
REMARK    3  A    between atoms: S_8  and  C_11
REMARK    4  A    between atoms: C_11  and  C_12
REMARK                            x       y       z     vdW  Elec       q    Type
REMARK                         _______ _______ _______ _____ _____    ______ ____
ROOT
ATOM      1  S   UNL     1       4.906   4.158  17.312  0.00  0.00    +0.000 S 
ATOM      2  O   UNL     1       4.339   5.490  17.375  0.00  0.00    +0.000 OA
ATOM      3  O   UNL     1       4.516   3.220  16.280  0.00  0.00    +0.000 OA
ENDROOT
BRANCH   1  10
ATOM      4  C   UNL     1       7.773   5.636  19.835  0.00  0.00    +0.000 C 
ATOM      5  C   UNL     1       7.605   6.254  18.502  0.00  0.00    +0.000 A 
ATOM      6  N   UNL     1       8.080   7.476  18.239  0.00  0.00    +0.000 NA
ATOM      7  O   UNL     1       7.844   7.666  16.881  0.00  0.00    +0.000 OA
ATOM      8  N   UNL     1       7.250   6.543  16.306  0.00  0.00    +0.000 NA
ATOM      9  C   UNL     1       7.072   5.703  17.317  0.00  0.00    +0.000 A 
ATOM     10  N   UNL     1       6.563   4.423  17.133  0.00  0.00    +0.000 N 
ATOM     11  H   UNL     1       6.892   3.956  16.287  0.00  0.00    +0.000 HD
ENDBRANCH   1  10
BRANCH   1  12
ATOM     12  C   UNL     1       4.734   3.380  18.947  0.00  0.00    +0.000 C 
BRANCH  12  13
ATOM     13  C   UNL     1       3.287   3.485  19.380  0.00  0.00    +0.000 A 
ATOM     14  C   UNL     1       2.325   2.597  18.875  0.00  0.00    +0.000 A 
ATOM     15  C   UNL     1       0.981   2.723  19.231  0.00  0.00    +0.000 A 
ATOM     16  C   UNL     1       0.580   3.732  20.105  0.00  0.00    +0.000 A 
ATOM     17  C   UNL     1       1.525   4.615  20.623  0.00  0.00    +0.000 A 
ATOM     18  C   UNL     1       2.870   4.494  20.265  0.00  0.00    +0.000 A 
ENDBRANCH  12  13
ENDBRANCH   1  12
TORSDOF 3
ENDMDL
MODEL 7
REMARK VINA RESULT:      -6.9      1.648      1.999
REMARK  Name = 
REMARK  4 active torsions:
REMARK  status: ('A' for Active; 'I' for Inactive)
REMARK    1  A    between atoms: C_1  and  C_2
REMARK    2  A    between atoms: N_7  and  S_8
REMARK    3  A    between atoms: S_8  and  C_11
REMARK    4  A    between atoms: C_11  and  C_12
REMARK                            x       y       z     vdW  Elec       q    Type
REMARK                         _______ _______ _______ _____ _____    ______ ____
ROOT
ATOM      1  S   UNL     1       5.442   5.004  19.027  0.00  0.00    +0.000 S 
ATOM      2  O   UNL     1       5.346   3.636  18.559  0.00  0.00    +0.000 OA
ATOM      3  O   UNL     1       6.595   5.469  19.769  0.00  0.00    +0.000 OA
ENDROOT
BRANCH   1  10
ATOM      4  C   UNL     1       5.135   4.012  15.065  0.00  0.00    +0.000 C 
ATOM      5  C   UNL     1       6.235   4.900  15.497  0.00  0.00    +0.000 A 
ATOM      6  N   UNL     1       7.319   5.084  14.735  0.00  0.00    +0.000 NA
ATOM      7  O   UNL     1       8.062   6.055  15.399  0.00  0.00    +0.000 OA
ATOM      8  N   UNL     1       7.415   6.488  16.556  0.00  0.00    +0.000 NA
ATOM      9  C   UNL     1       6.319   5.743  16.626  0.00  0.00    +0.000 A 
ATOM     10  N   UNL     1       5.362   5.929  17.617  0.00  0.00    +0.000 N 
ATOM     11  H   UNL     1       5.191   6.905  17.860  0.00  0.00    +0.000 HD
ENDBRANCH   1  10
BRANCH   1  12
ATOM     12  C   UNL     1       3.920   5.411  19.936  0.00  0.00    +0.000 C 
BRANCH  12  13
ATOM     13  C   UNL     1       2.849   4.412  19.554  0.00  0.00    +0.000 A 
ATOM     14  C   UNL     1       2.531   3.346  20.409  0.00  0.00    +0.000 A 
ATOM     15  C   UNL     1       1.580   2.393  20.037  0.00  0.00    +0.000 A 
ATOM     16  C   UNL     1       0.928   2.496  18.809  0.00  0.00    +0.000 A 
ATOM     17  C   UNL     1       1.226   3.555  17.955  0.00  0.00    +0.000 A 
ATOM     18  C   UNL     1       2.180   4.508  18.322  0.00  0.00    +0.000 A 
ENDBRANCH  12  13
ENDBRANCH   1  12
TORSDOF 3
ENDMDL
MODEL 8
REMARK VINA RESULT:      -6.9      2.285      2.827
REMARK  Name = 
REMARK  4 active torsions:
REMARK  status: ('A' for Active; 'I' for Inactive)
REMARK    1  A    between atoms: C_1  and  C_2
REMARK    2  A    between atoms: N_7  and  S_8
REMARK    3  A    between atoms: S_8  and  C_11
REMARK    4  A    between atoms: C_11  and  C_12
REMARK                            x       y       z     vdW  Elec       q    Type
REMARK                         _______ _______ _______ _____ _____    ______ ____
ROOT
ATOM      1  S   UNL     1       4.940   3.975  16.895  0.00  0.00    +0.000 S 
ATOM      2  O   UNL     1       4.609   4.057  15.487  0.00  0.00    +0.000 OA
ATOM      3  O   UNL     1       4.679   2.775  17.663  0.00  0.00    +0.000 OA
ENDROOT
BRANCH   1  10
ATOM      4  C   UNL     1       7.425   5.550  19.743  0.00  0.00    +0.000 C 
ATOM      5  C   UNL     1       7.450   6.119  18.378  0.00  0.00    +0.000 A 
ATOM      6  N   UNL     1       7.960   7.332  18.140  0.00  0.00    +0.000 NA
ATOM      7  O   UNL     1       7.920   7.471  16.756  0.00  0.00    +0.000 OA
ATOM      8  N   UNL     1       7.410   6.326  16.144  0.00  0.00    +0.000 NA
ATOM      9  C   UNL     1       7.087   5.524  17.150  0.00  0.00    +0.000 A 
ATOM     10  N   UNL     1       6.606   4.236  16.943  0.00  0.00    +0.000 N 
ATOM     11  H   UNL     1       7.050   3.740  16.170  0.00  0.00    +0.000 HD
ENDBRANCH   1  10
BRANCH   1  12
ATOM     12  C   UNL     1       4.219   5.415  17.740  0.00  0.00    +0.000 C 
BRANCH  12  13
ATOM     13  C   UNL     1       3.080   4.939  18.617  0.00  0.00    +0.000 A 
ATOM     14  C   UNL     1       3.108   5.156  20.002  0.00  0.00    +0.000 A 
ATOM     15  C   UNL     1       2.084   4.673  20.821  0.00  0.00    +0.000 A 
ATOM     16  C   UNL     1       1.014   3.974  20.265  0.00  0.00    +0.000 A 
ATOM     17  C   UNL     1       0.968   3.760  18.889  0.00  0.00    +0.000 A 
ATOM     18  C   UNL     1       1.992   4.239  18.068  0.00  0.00    +0.000 A 
ENDBRANCH  12  13
ENDBRANCH   1  12
TORSDOF 3
ENDMDL
MODEL 9
REMARK VINA RESULT:      -6.9      2.593      3.413
REMARK  Name = 
REMARK  4 active torsions:
REMARK  status: ('A' for Active; 'I' for Inactive)
REMARK    1  A    between atoms: C_1  and  C_2
REMARK    2  A    between atoms: N_7  and  S_8
REMARK    3  A    between atoms: S_8  and  C_11
REMARK    4  A    between atoms: C_11  and  C_12
REMARK                            x       y       z     vdW  Elec       q    Type
REMARK                         _______ _______ _______ _____ _____    ______ ____
ROOT
ATOM      1  S   UNL     1       4.093   3.088  19.046  0.00  0.00    +0.000 S 
ATOM      2  O   UNL     1       3.968   2.475  17.740  0.00  0.00    +0.000 OA
ATOM      3  O   UNL     1       4.780   2.418  20.131  0.00  0.00    +0.000 OA
ENDROOT
BRANCH   1  10
ATOM      4  C   UNL     1       5.130   5.040  15.599  0.00  0.00    +0.000 C 
ATOM      5  C   UNL     1       6.185   4.716  16.583  0.00  0.00    +0.000 A 
ATOM      6  N   UNL     1       7.477   4.699  16.236  0.00  0.00    +0.000 NA
ATOM      7  O   UNL     1       8.164   4.477  17.426  0.00  0.00    +0.000 OA
ATOM      8  N   UNL     1       7.290   4.388  18.509  0.00  0.00    +0.000 NA
ATOM      9  C   UNL     1       6.080   4.494  17.973  0.00  0.00    +0.000 A 
ATOM     10  N   UNL     1       4.928   4.524  18.750  0.00  0.00    +0.000 N 
ATOM     11  H   UNL     1       5.021   5.049  19.621  0.00  0.00    +0.000 HD
ENDBRANCH   1  10
BRANCH   1  12
ATOM     12  C   UNL     1       2.442   3.616  19.597  0.00  0.00    +0.000 C 
BRANCH  12  13
ATOM     13  C   UNL     1       2.305   5.103  19.352  0.00  0.00    +0.000 A 
ATOM     14  C   UNL     1       2.395   5.623  18.052  0.00  0.00    +0.000 A 
ATOM     15  C   UNL     1       2.321   6.999  17.827  0.00  0.00    +0.000 A 
ATOM     16  C   UNL     1       2.149   7.875  18.898  0.00  0.00    +0.000 A 
ATOM     17  C   UNL     1       2.048   7.373  20.193  0.00  0.00    +0.000 A 
ATOM     18  C   UNL     1       2.125   5.996  20.421  0.00  0.00    +0.000 A 
ENDBRANCH  12  13
ENDBRANCH   1  12
TORSDOF 3
ENDMDL
