MODEL 1
REMARK VINA RESULT:      -4.8      0.000      0.000
REMARK  Name = 
REMARK  2 active torsions:
REMARK  status: ('A' for Active; 'I' for Inactive)
REMARK    1  A    between atoms: C_1  and  N_2
REMARK    2  A    between atoms: C_5  and  N_6
REMARK                            x       y       z     vdW  Elec       q    Type
REMARK                         _______ _______ _______ _____ _____    ______ ____
ROOT
ATOM      1  C   UNL     1       2.963   3.573  17.025  0.00  0.00    +0.000 C 
ATOM      2  N   UNL     1       4.193   3.933  17.690  0.00  0.00    +0.000 N 
ATOM      3  C   UNL     1       4.368   3.964  19.045  0.00  0.00    +0.000 A 
ATOM      4  N   UNL     1       5.591   4.321  19.365  0.00  0.00    +0.000 NA
ATOM      5  C   UNL     1       6.244   4.531  18.157  0.00  0.00    +0.000 A 
ATOM      6  C   UNL     1       5.380   4.295  17.100  0.00  0.00    +0.000 A 
ATOM      7  I   UNL     1       5.720   4.431  15.080  0.00  0.00    +0.000 I 
ENDROOT
BRANCH   5   8
ATOM      8  N   UNL     1       7.636   4.942  18.172  0.00  0.00    +0.000 N 
ATOM      9  O   UNL     1       8.480   4.129  17.765  0.00  0.00    +0.000 OA
ATOM     10  O   UNL     1       7.897   6.075  18.594  0.00  0.00    +0.000 OA
ENDBRANCH   5   8
TORSDOF 1
ENDMDL
MODEL 2
REMARK VINA RESULT:      -4.8      3.619      4.147
REMARK  Name = 
REMARK  2 active torsions:
REMARK  status: ('A' for Active; 'I' for Inactive)
REMARK    1  A    between atoms: C_1  and  N_2
REMARK    2  A    between atoms: C_5  and  N_6
REMARK                            x       y       z     vdW  Elec       q    Type
REMARK                         _______ _______ _______ _____ _____    ______ ____
ROOT
ATOM      1  C   UNL     1       2.931   6.743  19.307  0.00  0.00    +0.000 C 
ATOM      2  N   UNL     1       3.676   5.506  19.323  0.00  0.00    +0.000 N 
ATOM      3  C   UNL     1       5.004   5.391  19.023  0.00  0.00    +0.000 A 
ATOM      4  N   UNL     1       5.416   4.148  19.125  0.00  0.00    +0.000 NA
ATOM      5  C   UNL     1       4.298   3.418  19.511  0.00  0.00    +0.000 A 
ATOM      6  C   UNL     1       3.202   4.255  19.635  0.00  0.00    +0.000 A 
ATOM      7  I   UNL     1       1.269   3.807  20.166  0.00  0.00    +0.000 I 
ENDROOT
BRANCH   5   8
ATOM      8  N   UNL     1       4.427   1.986  19.713  0.00  0.00    +0.000 N 
ATOM      9  O   UNL     1       3.867   1.238  18.898  0.00  0.00    +0.000 OA
ATOM     10  O   UNL     1       5.083   1.599  20.687  0.00  0.00    +0.000 OA
ENDBRANCH   5   8
TORSDOF 1
ENDMDL
MODEL 3
REMARK VINA RESULT:      -4.7      3.692      4.230
REMARK  Name = 
REMARK  2 active torsions:
REMARK  status: ('A' for Active; 'I' for Inactive)
REMARK    1  A    between atoms: C_1  and  N_2
REMARK    2  A    between atoms: C_5  and  N_6
REMARK                            x       y       z     vdW  Elec       q    Type
REMARK                         _______ _______ _______ _____ _____    ______ ____
ROOT
ATOM      1  C   UNL     1       2.556   6.405  19.661  0.00  0.00    +0.000 C 
ATOM      2  N   UNL     1       3.431   5.259  19.564  0.00  0.00    +0.000 N 
ATOM      3  C   UNL     1       4.749   5.312  19.206  0.00  0.00    +0.000 A 
ATOM      4  N   UNL     1       5.296   4.118  19.208  0.00  0.00    +0.000 NA
ATOM      5  C   UNL     1       4.283   3.246  19.586  0.00  0.00    +0.000 A 
ATOM      6  C   UNL     1       3.109   3.947  19.809  0.00  0.00    +0.000 A 
ATOM      7  I   UNL     1       1.263   3.254  20.382  0.00  0.00    +0.000 I 
ENDROOT
BRANCH   5   8
ATOM      8  N   UNL     1       4.575   1.828  19.684  0.00  0.00    +0.000 N 
ATOM      9  O   UNL     1       5.306   1.454  20.614  0.00  0.00    +0.000 OA
ATOM     10  O   UNL     1       4.084   1.078  18.832  0.00  0.00    +0.000 OA
ENDBRANCH   5   8
TORSDOF 1
ENDMDL
MODEL 4
REMARK VINA RESULT:      -4.6      2.439      2.712
REMARK  Name = 
REMARK  2 active torsions:
REMARK  status: ('A' for Active; 'I' for Inactive)
REMARK    1  A    between atoms: C_1  and  N_2
REMARK    2  A    between atoms: C_5  and  N_6
REMARK                            x       y       z     vdW  Elec       q    Type
REMARK                         _______ _______ _______ _____ _____    ______ ____
ROOT
ATOM      1  C   UNL     1       1.269   3.628  19.978  0.00  0.00    +0.000 C 
ATOM      2  N   UNL     1       2.700   3.614  19.788  0.00  0.00    +0.000 N 
ATOM      3  C   UNL     1       3.520   2.569  20.114  0.00  0.00    +0.000 A 
ATOM      4  N   UNL     1       4.774   2.833  19.826  0.00  0.00    +0.000 NA
ATOM      5  C   UNL     1       4.769   4.113  19.286  0.00  0.00    +0.000 A 
ATOM      6  C   UNL     1       3.478   4.615  19.259  0.00  0.00    +0.000 A 
ATOM      7  I   UNL     1       2.796   6.434  18.593  0.00  0.00    +0.000 I 
ENDROOT
BRANCH   5   8
ATOM      8  N   UNL     1       6.025   4.702  18.859  0.00  0.00    +0.000 N 
ATOM      9  O   UNL     1       6.316   4.630  17.656  0.00  0.00    +0.000 OA
ATOM     10  O   UNL     1       6.733   5.236  19.722  0.00  0.00    +0.000 OA
ENDBRANCH   5   8
TORSDOF 1
ENDMDL
MODEL 5
REMARK VINA RESULT:      -4.6      3.139      3.620
REMARK  Name = 
REMARK  2 active torsions:
REMARK  status: ('A' for Active; 'I' for Inactive)
REMARK    1  A    between atoms: C_1  and  N_2
REMARK    2  A    between atoms: C_5  and  N_6
REMARK                            x       y       z     vdW  Elec       q    Type
REMARK                         _______ _______ _______ _____ _____    ______ ____
ROOT
ATOM      1  C   UNL     1       4.133   6.779  17.551  0.00  0.00    +0.000 C 
ATOM      2  N   UNL     1       4.565   5.558  18.191  0.00  0.00    +0.000 N 
ATOM      3  C   UNL     1       5.825   5.332  18.671  0.00  0.00    +0.000 A 
ATOM      4  N   UNL     1       5.928   4.137  19.206  0.00  0.00    +0.000 NA
ATOM      5  C   UNL     1       4.673   3.558  19.066  0.00  0.00    +0.000 A 
ATOM      6  C   UNL     1       3.811   4.435  18.429  0.00  0.00    +0.000 A 
ATOM      7  I   UNL     1       1.836   4.190  17.922  0.00  0.00    +0.000 I 
ENDROOT
BRANCH   5   8
ATOM      8  N   UNL     1       4.459   2.212  19.567  0.00  0.00    +0.000 N 
ATOM      9  O   UNL     1       3.805   1.432  18.859  0.00  0.00    +0.000 OA
ATOM     10  O   UNL     1       4.936   1.927  20.672  0.00  0.00    +0.000 OA
ENDBRANCH   5   8
TORSDOF 1
ENDMDL
MODEL 6
REMARK VINA RESULT:      -4.5      0.978      1.175
REMARK  Name = 
REMARK  2 active torsions:
REMARK  status: ('A' for Active; 'I' for Inactive)
REMARK    1  A    between atoms: C_1  and  N_2
REMARK    2  A    between atoms: C_5  and  N_6
REMARK                            x       y       z     vdW  Elec       q    Type
REMARK                         _______ _______ _______ _____ _____    ______ ____
ROOT
ATOM      1  C   UNL     1       3.117   3.656  17.234  0.00  0.00    +0.000 C 
ATOM      2  N   UNL     1       4.181   4.307  17.963  0.00  0.00    +0.000 N 
ATOM      3  C   UNL     1       4.110   4.687  19.274  0.00  0.00    +0.000 A 
ATOM      4  N   UNL     1       5.227   5.251  19.673  0.00  0.00    +0.000 NA
ATOM      5  C   UNL     1       6.066   5.236  18.565  0.00  0.00    +0.000 A 
ATOM      6  C   UNL     1       5.423   4.652  17.487  0.00  0.00    +0.000 A 
ATOM      7  I   UNL     1       6.103   4.331  15.576  0.00  0.00    +0.000 I 
ENDROOT
BRANCH   5   8
ATOM      8  N   UNL     1       7.399   5.798  18.685  0.00  0.00    +0.000 N 
ATOM      9  O   UNL     1       7.667   6.795  17.998  0.00  0.00    +0.000 OA
ATOM     10  O   UNL     1       8.190   5.244  19.459  0.00  0.00    +0.000 OA
ENDBRANCH   5   8
TORSDOF 1
ENDMDL
MODEL 7
REMARK VINA RESULT:      -4.4      2.840      3.705
REMARK  Name = 
REMARK  2 active torsions:
REMARK  status: ('A' for Active; 'I' for Inactive)
REMARK    1  A    between atoms: C_1  and  N_2
REMARK    2  A    between atoms: C_5  and  N_6
REMARK                            x       y       z     vdW  Elec       q    Type
REMARK                         _______ _______ _______ _____ _____    ______ ____
ROOT
ATOM      1  C   UNL     1       7.199   6.141  17.756  0.00  0.00    +0.000 C 
ATOM      2  N   UNL     1       6.080   5.275  18.045  0.00  0.00    +0.000 N 
ATOM      3  C   UNL     1       5.493   5.140  19.273  0.00  0.00    +0.000 A 
ATOM      4  N   UNL     1       4.494   4.288  19.239  0.00  0.00    +0.000 NA
ATOM      5  C   UNL     1       4.428   3.847  17.923  0.00  0.00    +0.000 A 
ATOM      6  C   UNL     1       5.416   4.454  17.166  0.00  0.00    +0.000 A 
ATOM      7  I   UNL     1       5.856   4.233  15.172  0.00  0.00    +0.000 I 
ENDROOT
BRANCH   5   8
ATOM      8  N   UNL     1       3.409   2.881  17.555  0.00  0.00    +0.000 N 
ATOM      9  O   UNL     1       2.401   3.303  16.969  0.00  0.00    +0.000 OA
ATOM     10  O   UNL     1       3.605   1.696  17.853  0.00  0.00    +0.000 OA
ENDBRANCH   5   8
TORSDOF 1
ENDMDL
MODEL 8
REMARK VINA RESULT:      -4.4      3.523      4.094
REMARK  Name = 
REMARK  2 active torsions:
REMARK  status: ('A' for Active; 'I' for Inactive)
REMARK    1  A    between atoms: C_1  and  N_2
REMARK    2  A    between atoms: C_5  and  N_6
REMARK                            x       y       z     vdW  Elec       q    Type
REMARK                         _______ _______ _______ _____ _____    ______ ____
ROOT
ATOM      1  C   UNL     1       3.143   7.032  18.060  0.00  0.00    +0.000 C 
ATOM      2  N   UNL     1       3.657   5.683  18.102  0.00  0.00    +0.000 N 
ATOM      3  C   UNL     1       4.593   5.177  17.244  0.00  0.00    +0.000 A 
ATOM      4  N   UNL     1       4.874   3.925  17.523  0.00  0.00    +0.000 NA
ATOM      5  C   UNL     1       4.081   3.601  18.617  0.00  0.00    +0.000 A 
ATOM      6  C   UNL     1       3.312   4.691  18.987  0.00  0.00    +0.000 A 
ATOM      7  I   UNL     1       1.943   4.868  20.508  0.00  0.00    +0.000 I 
ENDROOT
BRANCH   5   8
ATOM      8  N   UNL     1       4.162   2.263  19.174  0.00  0.00    +0.000 N 
ATOM      9  O   UNL     1       4.864   2.102  20.183  0.00  0.00    +0.000 OA
ATOM     10  O   UNL     1       3.532   1.364  18.605  0.00  0.00    +0.000 OA
ENDBRANCH   5   8
TORSDOF 1
ENDMDL
MODEL 9
REMARK VINA RESULT:      -4.4      2.412      2.758
REMARK  Name = 
REMARK  2 active torsions:
REMARK  status: ('A' for Active; 'I' for Inactive)
REMARK    1  A    between atoms: C_1  and  N_2
REMARK    2  A    between atoms: C_5  and  N_6
REMARK                            x       y       z     vdW  Elec       q    Type
REMARK                         _______ _______ _______ _____ _____    ______ ____
ROOT
ATOM      1  C   UNL     1       2.790   6.527  18.066  0.00  0.00    +0.000 C 
ATOM      2  N   UNL     1       4.158   6.306  17.661  0.00  0.00    +0.000 N 
ATOM      3  C   UNL     1       4.891   7.165  16.890  0.00  0.00    +0.000 A 
ATOM      4  N   UNL     1       6.106   6.709  16.684  0.00  0.00    +0.000 NA
ATOM      5  C   UNL     1       6.164   5.494  17.355  0.00  0.00    +0.000 A 
ATOM      6  C   UNL     1       4.951   5.228  17.968  0.00  0.00    +0.000 A 
ATOM      7  I   UNL     1       4.386   3.611  19.100  0.00  0.00    +0.000 I 
ENDROOT
BRANCH   5   8
ATOM      8  N   UNL     1       7.398   4.729  17.319  0.00  0.00    +0.000 N 
ATOM      9  O   UNL     1       7.967   4.503  18.398  0.00  0.00    +0.000 OA
ATOM     10  O   UNL     1       7.810   4.353  16.215  0.00  0.00    +0.000 OA
ENDBRANCH   5   8
TORSDOF 1
ENDMDL
