MODEL 1
REMARK VINA RESULT:      -7.4      0.000      0.000
REMARK  Name = 
REMARK  8 active torsions:
REMARK  status: ('A' for Active; 'I' for Inactive)
REMARK    1  A    between atoms: C_1  and  O_2
REMARK    2  A    between atoms: O_2  and  C_3
REMARK    3  A    between atoms: C_8  and  N_9
REMARK    4  A    between atoms: N_12  and  C_13
REMARK    5  A    between atoms: C_13  and  C_14
REMARK    6  A    between atoms: C_13  and  C_15
REMARK    7  A    between atoms: C_15  and  N_16
REMARK    8  A    between atoms: N_27  and  C_28
REMARK                            x       y       z     vdW  Elec       q    Type
REMARK                         _______ _______ _______ _____ _____    ______ ____
ROOT
ATOM      1  C   UNL     1       2.451  14.515  19.934  0.00  0.00    +0.000 C 
ENDROOT
BRANCH   1   2
ATOM      2  N   UNL     1       1.803  13.203  19.846  0.00  0.00    +0.000 N 
ATOM      3  C   UNL     1       2.061  12.421  18.741  0.00  0.00    +0.000 C 
ATOM      4  O   UNL     1       2.755  12.780  17.792  0.00  0.00    +0.000 OA
ATOM      5  N   UNL     1       1.554  11.168  18.718  0.00  0.00    +0.000 N 
ATOM      6  C   UNL     1       0.505  10.678  19.570  0.00  0.00    +0.000 C 
ATOM      7  C   UNL     1      -0.824  10.711  18.871  0.00  0.00    +0.000 A 
ATOM      8  C   UNL     1      -1.215  10.064  17.709  0.00  0.00    +0.000 A 
ATOM      9  C   UNL     1      -2.449  10.401  17.156  0.00  0.00    +0.000 A 
ATOM     10  C   UNL     1      -3.250  11.382  17.759  0.00  0.00    +0.000 A 
ATOM     11  C   UNL     1      -2.897  11.918  19.000  0.00  0.00    +0.000 A 
ATOM     12  C   UNL     1      -1.709  11.526  19.582  0.00  0.00    +0.000 A 
ATOM     13  N   UNL     1      -1.215  11.848  20.816  0.00  0.00    +0.000 N 
ATOM     14  C   UNL     1      -1.960  12.174  22.004  0.00  0.00    +0.000 C 
ATOM     15  C   UNL     1       0.222  11.535  20.832  0.00  0.00    +0.000 C 
ATOM     16  C   UNL     1       0.959  12.869  20.885  0.00  0.00    +0.000 C 
ATOM     17  O   UNL     1       0.757  13.641  21.834  0.00  0.00    +0.000 OA
ATOM     18  H   UNL     1       1.715  10.690  17.845  0.00  0.00    +0.000 HD
ENDBRANCH   1   2
BRANCH   1  19
ATOM     19  C   UNL     1       3.957  14.483  20.347  0.00  0.00    +0.000 C 
ATOM     20  C   UNL     1       4.096  14.354  21.869  0.00  0.00    +0.000 C 
BRANCH  19  24
ATOM     21  N   UNL     1       7.350  14.952  18.608  0.00  0.00    +0.000 N 
ATOM     22  C   UNL     1       7.155  15.144  20.047  0.00  0.00    +0.000 C 
ATOM     23  C   UNL     1       5.936  16.051  20.281  0.00  0.00    +0.000 C 
ATOM     24  N   UNL     1       4.687  15.573  19.657  0.00  0.00    +0.000 NA
ATOM     25  C   UNL     1       4.925  15.365  18.214  0.00  0.00    +0.000 C 
ATOM     26  C   UNL     1       6.178  14.546  17.821  0.00  0.00    +0.000 C 
BRANCH  21  32
ATOM     27  C   UNL     1       9.360  13.723  17.913  0.00  0.00    +0.000 A 
ATOM     28  C   UNL     1      10.671  13.748  17.430  0.00  0.00    +0.000 A 
ATOM     29  C   UNL     1      11.265  14.958  17.059  0.00  0.00    +0.000 A 
ATOM     30  C   UNL     1      10.544  16.140  17.159  0.00  0.00    +0.000 A 
ATOM     31  C   UNL     1       9.241  16.115  17.654  0.00  0.00    +0.000 A 
ATOM     32  C   UNL     1       8.619  14.919  18.055  0.00  0.00    +0.000 A 
BRANCH  27  34
ATOM     33  C   UNL     1       9.714  11.699  19.082  0.00  0.00    +0.000 C 
ATOM     34  O   UNL     1       8.810  12.546  18.381  0.00  0.00    +0.000 OA
ENDBRANCH  27  34
ENDBRANCH  21  32
ENDBRANCH  19  24
ENDBRANCH   1  19
TORSDOF 5
ENDMDL
MODEL 2
REMARK VINA RESULT:      -7.3      0.946      1.606
REMARK  Name = 
REMARK  8 active torsions:
REMARK  status: ('A' for Active; 'I' for Inactive)
REMARK    1  A    between atoms: C_1  and  O_2
REMARK    2  A    between atoms: O_2  and  C_3
REMARK    3  A    between atoms: C_8  and  N_9
REMARK    4  A    between atoms: N_12  and  C_13
REMARK    5  A    between atoms: C_13  and  C_14
REMARK    6  A    between atoms: C_13  and  C_15
REMARK    7  A    between atoms: C_15  and  N_16
REMARK    8  A    between atoms: N_27  and  C_28
REMARK                            x       y       z     vdW  Elec       q    Type
REMARK                         _______ _______ _______ _____ _____    ______ ____
ROOT
ATOM      1  C   UNL     1       2.697  14.593  19.713  0.00  0.00    +0.000 C 
ENDROOT
BRANCH   1   2
ATOM      2  N   UNL     1       2.059  13.275  19.638  0.00  0.00    +0.000 N 
ATOM      3  C   UNL     1       2.236  12.529  18.492  0.00  0.00    +0.000 C 
ATOM      4  O   UNL     1       2.848  12.925  17.503  0.00  0.00    +0.000 OA
ATOM      5  N   UNL     1       1.742  11.271  18.471  0.00  0.00    +0.000 N 
ATOM      6  C   UNL     1       0.769  10.743  19.389  0.00  0.00    +0.000 C 
ATOM      7  C   UNL     1      -0.611  10.779  18.799  0.00  0.00    +0.000 A 
ATOM      8  C   UNL     1      -1.087  10.161  17.652  0.00  0.00    +0.000 A 
ATOM      9  C   UNL     1      -2.365  10.498  17.210  0.00  0.00    +0.000 A 
ATOM     10  C   UNL     1      -3.125  11.450  17.904  0.00  0.00    +0.000 A 
ATOM     11  C   UNL     1      -2.680  11.955  19.129  0.00  0.00    +0.000 A 
ATOM     12  C   UNL     1      -1.445  11.561  19.602  0.00  0.00    +0.000 A 
ATOM     13  N   UNL     1      -0.858  11.853  20.803  0.00  0.00    +0.000 N 
ATOM     14  C   UNL     1      -1.509  12.134  22.055  0.00  0.00    +0.000 C 
ATOM     15  C   UNL     1       0.579  11.558  20.695  0.00  0.00    +0.000 C 
ATOM     16  C   UNL     1       1.304  12.900  20.729  0.00  0.00    +0.000 C 
ATOM     17  O   UNL     1       1.170  13.641  21.715  0.00  0.00    +0.000 OA
ATOM     18  H   UNL     1       1.838  10.821  17.574  0.00  0.00    +0.000 HD
ENDBRANCH   1   2
BRANCH   1  19
ATOM     19  C   UNL     1       4.183  14.581  20.196  0.00  0.00    +0.000 C 
ATOM     20  C   UNL     1       4.253  14.649  21.727  0.00  0.00    +0.000 C 
BRANCH  19  24
ATOM     21  N   UNL     1       7.636  14.719  18.519  0.00  0.00    +0.000 N 
ATOM     22  C   UNL     1       7.411  15.089  19.919  0.00  0.00    +0.000 C 
ATOM     23  C   UNL     1       6.222  16.059  20.006  0.00  0.00    +0.000 C 
ATOM     24  N   UNL     1       4.972  15.554  19.404  0.00  0.00    +0.000 NA
ATOM     25  C   UNL     1       5.240  15.167  18.005  0.00  0.00    +0.000 C 
ATOM     26  C   UNL     1       6.471  14.263  17.750  0.00  0.00    +0.000 C 
BRANCH  21  32
ATOM     27  C   UNL     1       9.739  15.678  17.684  0.00  0.00    +0.000 A 
ATOM     28  C   UNL     1      10.991  15.485  17.096  0.00  0.00    +0.000 A 
ATOM     29  C   UNL     1      11.463  14.194  16.842  0.00  0.00    +0.000 A 
ATOM     30  C   UNL     1      10.687  13.096  17.189  0.00  0.00    +0.000 A 
ATOM     31  C   UNL     1       9.431  13.290  17.763  0.00  0.00    +0.000 A 
ATOM     32  C   UNL     1       8.917  14.575  18.014  0.00  0.00    +0.000 A 
BRANCH  27  34
ATOM     33  C   UNL     1       9.909  17.763  18.786  0.00  0.00    +0.000 C 
ATOM     34  O   UNL     1       9.226  16.951  17.836  0.00  0.00    +0.000 OA
ENDBRANCH  27  34
ENDBRANCH  21  32
ENDBRANCH  19  24
ENDBRANCH   1  19
TORSDOF 5
ENDMDL
MODEL 3
REMARK VINA RESULT:      -7.1      5.660      7.806
REMARK  Name = 
REMARK  8 active torsions:
REMARK  status: ('A' for Active; 'I' for Inactive)
REMARK    1  A    between atoms: C_1  and  O_2
REMARK    2  A    between atoms: O_2  and  C_3
REMARK    3  A    between atoms: C_8  and  N_9
REMARK    4  A    between atoms: N_12  and  C_13
REMARK    5  A    between atoms: C_13  and  C_14
REMARK    6  A    between atoms: C_13  and  C_15
REMARK    7  A    between atoms: C_15  and  N_16
REMARK    8  A    between atoms: N_27  and  C_28
REMARK                            x       y       z     vdW  Elec       q    Type
REMARK                         _______ _______ _______ _____ _____    ______ ____
ROOT
ATOM      1  C   UNL     1       2.581   7.587  19.967  0.00  0.00    +0.000 C 
ENDROOT
BRANCH   1   2
ATOM      2  N   UNL     1       1.507   8.524  19.622  0.00  0.00    +0.000 N 
ATOM      3  C   UNL     1       1.474   9.034  18.343  0.00  0.00    +0.000 C 
ATOM      4  O   UNL     1       2.324   8.798  17.486  0.00  0.00    +0.000 OA
ATOM      5  N   UNL     1       0.420   9.807  17.994  0.00  0.00    +0.000 N 
ATOM      6  C   UNL     1      -0.500  10.422  18.912  0.00  0.00    +0.000 C 
ATOM      7  C   UNL     1      -0.143  11.860  19.160  0.00  0.00    +0.000 A 
ATOM      8  C   UNL     1      -0.060  12.906  18.255  0.00  0.00    +0.000 A 
ATOM      9  C   UNL     1       0.474  14.114  18.700  0.00  0.00    +0.000 A 
ATOM     10  C   UNL     1       0.928  14.243  20.020  0.00  0.00    +0.000 A 
ATOM     11  C   UNL     1       0.707  13.221  20.947  0.00  0.00    +0.000 A 
ATOM     12  C   UNL     1       0.109  12.053  20.520  0.00  0.00    +0.000 A 
ATOM     13  N   UNL     1      -0.281  10.972  21.263  0.00  0.00    +0.000 N 
ATOM     14  C   UNL     1      -0.694  10.955  22.642  0.00  0.00    +0.000 C 
ATOM     15  C   UNL     1      -0.492   9.839  20.350  0.00  0.00    +0.000 C 
ATOM     16  C   UNL     1       0.623   8.837  20.633  0.00  0.00    +0.000 C 
ATOM     17  O   UNL     1       0.736   8.356  21.770  0.00  0.00    +0.000 OA
ATOM     18  H   UNL     1       0.509  10.208  17.074  0.00  0.00    +0.000 HD
ENDBRANCH   1   2
BRANCH   1  19
ATOM     19  C   UNL     1       2.345   6.113  19.506  0.00  0.00    +0.000 C 
ATOM     20  C   UNL     1       1.230   5.460  20.334  0.00  0.00    +0.000 C 
BRANCH  19  24
ATOM     21  N   UNL     1       4.731   5.030  16.697  0.00  0.00    +0.000 N 
ATOM     22  C   UNL     1       3.615   4.202  17.162  0.00  0.00    +0.000 C 
ATOM     23  C   UNL     1       3.654   4.110  18.696  0.00  0.00    +0.000 C 
ATOM     24  N   UNL     1       3.647   5.413  19.391  0.00  0.00    +0.000 NA
ATOM     25  C   UNL     1       4.765   6.230  18.879  0.00  0.00    +0.000 C 
ATOM     26  C   UNL     1       4.911   6.337  17.342  0.00  0.00    +0.000 C 
BRANCH  21  32
ATOM     27  C   UNL     1       6.831   4.866  15.432  0.00  0.00    +0.000 A 
ATOM     28  C   UNL     1       7.483   4.609  14.224  0.00  0.00    +0.000 A 
ATOM     29  C   UNL     1       6.762   4.168  13.110  0.00  0.00    +0.000 A 
ATOM     30  C   UNL     1       5.392   3.973  13.209  0.00  0.00    +0.000 A 
ATOM     31  C   UNL     1       4.740   4.243  14.413  0.00  0.00    +0.000 A 
ATOM     32  C   UNL     1       5.431   4.707  15.547  0.00  0.00    +0.000 A 
BRANCH  27  34
ATOM     33  C   UNL     1       7.804   4.488  17.554  0.00  0.00    +0.000 C 
ATOM     34  O   UNL     1       7.523   5.404  16.500  0.00  0.00    +0.000 OA
ENDBRANCH  27  34
ENDBRANCH  21  32
ENDBRANCH  19  24
ENDBRANCH   1  19
TORSDOF 5
ENDMDL
MODEL 4
REMARK VINA RESULT:      -7.1      1.653      3.257
REMARK  Name = 
REMARK  8 active torsions:
REMARK  status: ('A' for Active; 'I' for Inactive)
REMARK    1  A    between atoms: C_1  and  O_2
REMARK    2  A    between atoms: O_2  and  C_3
REMARK    3  A    between atoms: C_8  and  N_9
REMARK    4  A    between atoms: N_12  and  C_13
REMARK    5  A    between atoms: C_13  and  C_14
REMARK    6  A    between atoms: C_13  and  C_15
REMARK    7  A    between atoms: C_15  and  N_16
REMARK    8  A    between atoms: N_27  and  C_28
REMARK                            x       y       z     vdW  Elec       q    Type
REMARK                         _______ _______ _______ _____ _____    ______ ____
ROOT
ATOM      1  C   UNL     1       2.647  15.238  19.424  0.00  0.00    +0.000 C 
ENDROOT
BRANCH   1   2
ATOM      2  N   UNL     1       1.497  14.343  19.585  0.00  0.00    +0.000 N 
ATOM      3  C   UNL     1       0.563  14.650  20.551  0.00  0.00    +0.000 C 
ATOM      4  O   UNL     1       0.664  15.597  21.328  0.00  0.00    +0.000 OA
ATOM      5  N   UNL     1      -0.552  13.888  20.621  0.00  0.00    +0.000 N 
ATOM      6  C   UNL     1      -0.717  12.595  20.014  0.00  0.00    +0.000 C 
ATOM      7  C   UNL     1      -0.484  11.494  21.008  0.00  0.00    +0.000 A 
ATOM      8  C   UNL     1      -1.158  11.228  22.190  0.00  0.00    +0.000 A 
ATOM      9  C   UNL     1      -0.633  10.254  23.037  0.00  0.00    +0.000 A 
ATOM     10  C   UNL     1       0.553   9.587  22.699  0.00  0.00    +0.000 A 
ATOM     11  C   UNL     1       1.136   9.773  21.442  0.00  0.00    +0.000 A 
ATOM     12  C   UNL     1       0.570  10.685  20.575  0.00  0.00    +0.000 A 
ATOM     13  N   UNL     1       0.915  10.959  19.279  0.00  0.00    +0.000 N 
ATOM     14  C   UNL     1       1.516  10.068  18.322  0.00  0.00    +0.000 C 
ATOM     15  C   UNL     1       0.313  12.248  18.906  0.00  0.00    +0.000 C 
ATOM     16  C   UNL     1       1.462  13.240  18.758  0.00  0.00    +0.000 C 
ATOM     17  O   UNL     1       2.357  13.017  17.930  0.00  0.00    +0.000 OA
ATOM     18  H   UNL     1      -1.145  14.122  21.401  0.00  0.00    +0.000 HD
ENDBRANCH   1   2
BRANCH   1  19
ATOM     19  C   UNL     1       4.006  14.669  19.942  0.00  0.00    +0.000 C 
ATOM     20  C   UNL     1       3.920  14.343  21.438  0.00  0.00    +0.000 C 
BRANCH  19  24
ATOM     21  N   UNL     1       7.599  14.181  18.673  0.00  0.00    +0.000 N 
ATOM     22  C   UNL     1       7.264  14.327  20.092  0.00  0.00    +0.000 C 
ATOM     23  C   UNL     1       6.350  15.548  20.278  0.00  0.00    +0.000 C 
ATOM     24  N   UNL     1       5.119  15.523  19.464  0.00  0.00    +0.000 NA
ATOM     25  C   UNL     1       5.491  15.349  18.045  0.00  0.00    +0.000 C 
ATOM     26  C   UNL     1       6.486  14.211  17.715  0.00  0.00    +0.000 C 
BRANCH  21  32
ATOM     27  C   UNL     1       9.873  14.720  17.915  0.00  0.00    +0.000 A 
ATOM     28  C   UNL     1      11.109  14.282  17.434  0.00  0.00    +0.000 A 
ATOM     29  C   UNL     1      11.379  12.915  17.317  0.00  0.00    +0.000 A 
ATOM     30  C   UNL     1      10.418  11.987  17.693  0.00  0.00    +0.000 A 
ATOM     31  C   UNL     1       9.179  12.427  18.161  0.00  0.00    +0.000 A 
ATOM     32  C   UNL     1       8.866  13.794  18.272  0.00  0.00    +0.000 A 
BRANCH  27  34
ATOM     33  C   UNL     1      10.403  16.881  17.115  0.00  0.00    +0.000 C 
ATOM     34  O   UNL     1       9.566  16.066  17.930  0.00  0.00    +0.000 OA
ENDBRANCH  27  34
ENDBRANCH  21  32
ENDBRANCH  19  24
ENDBRANCH   1  19
TORSDOF 5
ENDMDL
MODEL 5
REMARK VINA RESULT:      -7.0      5.664      8.553
REMARK  Name = 
REMARK  8 active torsions:
REMARK  status: ('A' for Active; 'I' for Inactive)
REMARK    1  A    between atoms: C_1  and  O_2
REMARK    2  A    between atoms: O_2  and  C_3
REMARK    3  A    between atoms: C_8  and  N_9
REMARK    4  A    between atoms: N_12  and  C_13
REMARK    5  A    between atoms: C_13  and  C_14
REMARK    6  A    between atoms: C_13  and  C_15
REMARK    7  A    between atoms: C_15  and  N_16
REMARK    8  A    between atoms: N_27  and  C_28
REMARK                            x       y       z     vdW  Elec       q    Type
REMARK                         _______ _______ _______ _____ _____    ______ ____
ROOT
ATOM      1  C   UNL     1      -3.813  14.546  24.075  0.00  0.00    +0.000 C 
ENDROOT
BRANCH   1   2
ATOM      2  N   UNL     1      -5.112  13.994  23.675  0.00  0.00    +0.000 N 
ATOM      3  C   UNL     1      -5.479  12.765  24.177  0.00  0.00    +0.000 C 
ATOM      4  O   UNL     1      -4.759  12.072  24.893  0.00  0.00    +0.000 OA
ATOM      5  N   UNL     1      -6.722  12.311  23.899  0.00  0.00    +0.000 N 
ATOM      6  C   UNL     1      -7.584  12.822  22.867  0.00  0.00    +0.000 C 
ATOM      7  C   UNL     1      -7.518  11.970  21.632  0.00  0.00    +0.000 A 
ATOM      8  C   UNL     1      -7.828  10.627  21.481  0.00  0.00    +0.000 A 
ATOM      9  C   UNL     1      -7.508  10.014  20.272  0.00  0.00    +0.000 A 
ATOM     10  C   UNL     1      -6.873  10.743  19.256  0.00  0.00    +0.000 A 
ATOM     11  C   UNL     1      -6.696  12.124  19.380  0.00  0.00    +0.000 A 
ATOM     12  C   UNL     1      -7.084  12.742  20.552  0.00  0.00    +0.000 A 
ATOM     13  N   UNL     1      -7.088  14.076  20.852  0.00  0.00    +0.000 N 
ATOM     14  C   UNL     1      -7.242  15.182  19.943  0.00  0.00    +0.000 C 
ATOM     15  C   UNL     1      -7.196  14.218  22.312  0.00  0.00    +0.000 C 
ATOM     16  C   UNL     1      -5.854  14.757  22.798  0.00  0.00    +0.000 C 
ATOM     17  O   UNL     1      -5.442  15.844  22.369  0.00  0.00    +0.000 OA
ATOM     18  H   UNL     1      -6.886  11.373  24.230  0.00  0.00    +0.000 HD
ENDBRANCH   1   2
BRANCH   1  19
ATOM     19  C   UNL     1      -2.635  14.239  23.097  0.00  0.00    +0.000 C 
ATOM     20  C   UNL     1      -2.258  15.492  22.296  0.00  0.00    +0.000 C 
BRANCH  19  24
ATOM     21  N   UNL     1      -0.856  12.031  20.506  0.00  0.00    +0.000 N 
ATOM     22  C   UNL     1      -1.703  13.169  20.140  0.00  0.00    +0.000 C 
ATOM     23  C   UNL     1      -3.039  13.073  20.893  0.00  0.00    +0.000 C 
ATOM     24  N   UNL     1      -2.912  12.982  22.361  0.00  0.00    +0.000 NA
ATOM     25  C   UNL     1      -2.033  11.844  22.693  0.00  0.00    +0.000 C 
ATOM     26  C   UNL     1      -0.684  11.755  21.938  0.00  0.00    +0.000 C 
BRANCH  21  32
ATOM     27  C   UNL     1      -0.552  10.377  18.714  0.00  0.00    +0.000 A 
ATOM     28  C   UNL     1       0.305   9.705  17.839  0.00  0.00    +0.000 A 
ATOM     29  C   UNL     1       1.659  10.044  17.773  0.00  0.00    +0.000 A 
ATOM     30  C   UNL     1       2.153  11.065  18.574  0.00  0.00    +0.000 A 
ATOM     31  C   UNL     1       1.300  11.726  19.457  0.00  0.00    +0.000 A 
ATOM     32  C   UNL     1      -0.064  11.396  19.564  0.00  0.00    +0.000 A 
BRANCH  27  34
ATOM     33  C   UNL     1      -2.600   9.879  17.642  0.00  0.00    +0.000 C 
ATOM     34  O   UNL     1      -1.864   9.971  18.858  0.00  0.00    +0.000 OA
ENDBRANCH  27  34
ENDBRANCH  21  32
ENDBRANCH  19  24
ENDBRANCH   1  19
TORSDOF 5
ENDMDL
MODEL 6
REMARK VINA RESULT:      -6.8      1.868      3.097
REMARK  Name = 
REMARK  8 active torsions:
REMARK  status: ('A' for Active; 'I' for Inactive)
REMARK    1  A    between atoms: C_1  and  O_2
REMARK    2  A    between atoms: O_2  and  C_3
REMARK    3  A    between atoms: C_8  and  N_9
REMARK    4  A    between atoms: N_12  and  C_13
REMARK    5  A    between atoms: C_13  and  C_14
REMARK    6  A    between atoms: C_13  and  C_15
REMARK    7  A    between atoms: C_15  and  N_16
REMARK    8  A    between atoms: N_27  and  C_28
REMARK                            x       y       z     vdW  Elec       q    Type
REMARK                         _______ _______ _______ _____ _____    ______ ____
ROOT
ATOM      1  C   UNL     1       3.187  15.455  20.691  0.00  0.00    +0.000 C 
ENDROOT
BRANCH   1   2
ATOM      2  N   UNL     1       1.983  14.619  20.707  0.00  0.00    +0.000 N 
ATOM      3  C   UNL     1       1.137  14.718  21.791  0.00  0.00    +0.000 C 
ATOM      4  O   UNL     1       1.359  15.420  22.775  0.00  0.00    +0.000 OA
ATOM      5  N   UNL     1      -0.028  14.033  21.750  0.00  0.00    +0.000 N 
ATOM      6  C   UNL     1      -0.330  12.956  20.846  0.00  0.00    +0.000 C 
ATOM      7  C   UNL     1      -0.124  11.621  21.502  0.00  0.00    +0.000 A 
ATOM      8  C   UNL     1      -0.744  11.095  22.625  0.00  0.00    +0.000 A 
ATOM      9  C   UNL     1      -0.246   9.903  23.149  0.00  0.00    +0.000 A 
ATOM     10  C   UNL     1       0.861   9.279  22.557  0.00  0.00    +0.000 A 
ATOM     11  C   UNL     1       1.379   9.753  21.348  0.00  0.00    +0.000 A 
ATOM     12  C   UNL     1       0.835  10.893  20.792  0.00  0.00    +0.000 A 
ATOM     13  N   UNL     1       1.120  11.476  19.588  0.00  0.00    +0.000 N 
ATOM     14  C   UNL     1       1.589  10.832  18.389  0.00  0.00    +0.000 C 
ATOM     15  C   UNL     1       0.599  12.851  19.608  0.00  0.00    +0.000 C 
ATOM     16  C   UNL     1       1.811  13.776  19.630  0.00  0.00    +0.000 C 
ATOM     17  O   UNL     1       2.634  13.726  18.704  0.00  0.00    +0.000 OA
ATOM     18  H   UNL     1      -0.552  14.089  22.610  0.00  0.00    +0.000 HD
ENDBRANCH   1   2
BRANCH   1  19
ATOM     19  C   UNL     1       4.538  14.671  20.729  0.00  0.00    +0.000 C 
ATOM     20  C   UNL     1       4.712  13.962  22.078  0.00  0.00    +0.000 C 
BRANCH  19  24
ATOM     21  N   UNL     1       7.889  14.231  18.904  0.00  0.00    +0.000 N 
ATOM     22  C   UNL     1       7.756  14.159  20.361  0.00  0.00    +0.000 C 
ATOM     23  C   UNL     1       6.960  15.374  20.862  0.00  0.00    +0.000 C 
ATOM     24  N   UNL     1       5.633  15.540  20.237  0.00  0.00    +0.000 NA
ATOM     25  C   UNL     1       5.801  15.582  18.770  0.00  0.00    +0.000 C 
ATOM     26  C   UNL     1       6.664  14.468  18.130  0.00  0.00    +0.000 C 
BRANCH  21  32
ATOM     27  C   UNL     1       9.445  12.505  18.107  0.00  0.00    +0.000 A 
ATOM     28  C   UNL     1      10.679  12.175  17.542  0.00  0.00    +0.000 A 
ATOM     29  C   UNL     1      11.551  13.179  17.110  0.00  0.00    +0.000 A 
ATOM     30  C   UNL     1      11.183  14.512  17.233  0.00  0.00    +0.000 A 
ATOM     31  C   UNL     1       9.956  14.840  17.810  0.00  0.00    +0.000 A 
ATOM     32  C   UNL     1       9.063  13.856  18.273  0.00  0.00    +0.000 A 
BRANCH  27  34
ATOM     33  C   UNL     1       9.320  10.405  19.187  0.00  0.00    +0.000 C 
ATOM     34  O   UNL     1       8.630  11.520  18.631  0.00  0.00    +0.000 OA
ENDBRANCH  27  34
ENDBRANCH  21  32
ENDBRANCH  19  24
ENDBRANCH   1  19
TORSDOF 5
ENDMDL
MODEL 7
REMARK VINA RESULT:      -6.7      1.668      3.060
REMARK  Name = 
REMARK  8 active torsions:
REMARK  status: ('A' for Active; 'I' for Inactive)
REMARK    1  A    between atoms: C_1  and  O_2
REMARK    2  A    between atoms: O_2  and  C_3
REMARK    3  A    between atoms: C_8  and  N_9
REMARK    4  A    between atoms: N_12  and  C_13
REMARK    5  A    between atoms: C_13  and  C_14
REMARK    6  A    between atoms: C_13  and  C_15
REMARK    7  A    between atoms: C_15  and  N_16
REMARK    8  A    between atoms: N_27  and  C_28
REMARK                            x       y       z     vdW  Elec       q    Type
REMARK                         _______ _______ _______ _____ _____    ______ ____
ROOT
ATOM      1  C   UNL     1       2.737  14.775  18.530  0.00  0.00    +0.000 C 
ENDROOT
BRANCH   1   2
ATOM      2  N   UNL     1       1.454  14.080  18.669  0.00  0.00    +0.000 N 
ATOM      3  C   UNL     1       0.346  14.819  19.024  0.00  0.00    +0.000 C 
ATOM      4  O   UNL     1       0.378  16.019  19.291  0.00  0.00    +0.000 OA
ATOM      5  N   UNL     1      -0.854  14.198  19.039  0.00  0.00    +0.000 N 
ATOM      6  C   UNL     1      -1.055  12.774  19.044  0.00  0.00    +0.000 C 
ATOM      7  C   UNL     1      -1.314  12.266  20.433  0.00  0.00    +0.000 A 
ATOM      8  C   UNL     1      -2.338  12.598  21.307  0.00  0.00    +0.000 A 
ATOM      9  C   UNL     1      -2.258  12.128  22.616  0.00  0.00    +0.000 A 
ATOM     10  C   UNL     1      -1.158  11.361  23.027  0.00  0.00    +0.000 A 
ATOM     11  C   UNL     1      -0.212  10.926  22.095  0.00  0.00    +0.000 A 
ATOM     12  C   UNL     1      -0.335  11.332  20.782  0.00  0.00    +0.000 A 
ATOM     13  N   UNL     1       0.414  10.959  19.699  0.00  0.00    +0.000 N 
ATOM     14  C   UNL     1       1.104   9.713  19.494  0.00  0.00    +0.000 C 
ATOM     15  C   UNL     1       0.177  11.930  18.620  0.00  0.00    +0.000 C 
ATOM     16  C   UNL     1       1.472  12.718  18.450  0.00  0.00    +0.000 C 
ATOM     17  O   UNL     1       2.517  12.118  18.160  0.00  0.00    +0.000 OA
ATOM     18  H   UNL     1      -1.599  14.781  19.387  0.00  0.00    +0.000 HD
ENDBRANCH   1   2
BRANCH   1  19
ATOM     19  C   UNL     1       3.735  14.563  19.712  0.00  0.00    +0.000 C 
ATOM     20  C   UNL     1       2.987  14.526  21.051  0.00  0.00    +0.000 C 
BRANCH  19  24
ATOM     21  N   UNL     1       7.420  14.343  18.647  0.00  0.00    +0.000 N 
ATOM     22  C   UNL     1       6.970  14.118  20.023  0.00  0.00    +0.000 C 
ATOM     23  C   UNL     1       6.045  15.269  20.452  0.00  0.00    +0.000 C 
ATOM     24  N   UNL     1       4.885  15.487  19.566  0.00  0.00    +0.000 NA
ATOM     25  C   UNL     1       5.372  15.683  18.185  0.00  0.00    +0.000 C 
ATOM     26  C   UNL     1       6.390  14.648  17.646  0.00  0.00    +0.000 C 
BRANCH  21  32
ATOM     27  C   UNL     1       9.664  15.040  17.931  0.00  0.00    +0.000 A 
ATOM     28  C   UNL     1      10.933  14.691  17.462  0.00  0.00    +0.000 A 
ATOM     29  C   UNL     1      11.294  13.347  17.330  0.00  0.00    +0.000 A 
ATOM     30  C   UNL     1      10.389  12.353  17.679  0.00  0.00    +0.000 A 
ATOM     31  C   UNL     1       9.118  12.703  18.134  0.00  0.00    +0.000 A 
ATOM     32  C   UNL     1       8.715  14.045  18.260  0.00  0.00    +0.000 A 
BRANCH  27  34
ATOM     33  C   UNL     1      10.249  17.292  17.506  0.00  0.00    +0.000 C 
ATOM     34  O   UNL     1       9.269  16.363  17.960  0.00  0.00    +0.000 OA
ENDBRANCH  27  34
ENDBRANCH  21  32
ENDBRANCH  19  24
ENDBRANCH   1  19
TORSDOF 5
ENDMDL
MODEL 8
REMARK VINA RESULT:      -6.6      1.896      8.990
REMARK  Name = 
REMARK  8 active torsions:
REMARK  status: ('A' for Active; 'I' for Inactive)
REMARK    1  A    between atoms: C_1  and  O_2
REMARK    2  A    between atoms: O_2  and  C_3
REMARK    3  A    between atoms: C_8  and  N_9
REMARK    4  A    between atoms: N_12  and  C_13
REMARK    5  A    between atoms: C_13  and  C_14
REMARK    6  A    between atoms: C_13  and  C_15
REMARK    7  A    between atoms: C_15  and  N_16
REMARK    8  A    between atoms: N_27  and  C_28
REMARK                            x       y       z     vdW  Elec       q    Type
REMARK                         _______ _______ _______ _____ _____    ______ ____
ROOT
ATOM      1  C   UNL     1       5.104  15.109  20.301  0.00  0.00    +0.000 C 
ENDROOT
BRANCH   1   2
ATOM      2  N   UNL     1       6.413  15.140  19.641  0.00  0.00    +0.000 N 
ATOM      3  C   UNL     1       6.482  14.772  18.314  0.00  0.00    +0.000 C 
ATOM      4  O   UNL     1       5.523  14.362  17.664  0.00  0.00    +0.000 OA
ATOM      5  N   UNL     1       7.667  14.911  17.678  0.00  0.00    +0.000 N 
ATOM      6  C   UNL     1       8.941  15.090  18.321  0.00  0.00    +0.000 C 
ATOM      7  C   UNL     1       9.690  13.791  18.415  0.00  0.00    +0.000 A 
ATOM      8  C   UNL     1      10.116  12.954  17.395  0.00  0.00    +0.000 A 
ATOM      9  C   UNL     1      10.631  11.707  17.745  0.00  0.00    +0.000 A 
ATOM     10  C   UNL     1      10.692  11.320  19.092  0.00  0.00    +0.000 A 
ATOM     11  C   UNL     1      10.387  12.233  20.105  0.00  0.00    +0.000 A 
ATOM     12  C   UNL     1       9.947  13.494  19.755  0.00  0.00    +0.000 A 
ATOM     13  N   UNL     1       9.682  14.562  20.568  0.00  0.00    +0.000 N 
ATOM     14  C   UNL     1      10.280  14.868  21.841  0.00  0.00    +0.000 C 
ATOM     15  C   UNL     1       8.877  15.529  19.807  0.00  0.00    +0.000 C 
ATOM     16  C   UNL     1       7.482  15.518  20.425  0.00  0.00    +0.000 C 
ATOM     17  O   UNL     1       7.343  15.808  21.622  0.00  0.00    +0.000 OA
ATOM     18  H   UNL     1       7.659  14.545  16.739  0.00  0.00    +0.000 HD
ENDBRANCH   1   2
BRANCH   1  19
ATOM     19  C   UNL     1       4.155  16.297  19.944  0.00  0.00    +0.000 C 
ATOM     20  C   UNL     1       4.678  17.606  20.547  0.00  0.00    +0.000 C 
BRANCH  19  24
ATOM     21  N   UNL     1       1.868  13.303  19.193  0.00  0.00    +0.000 N 
ATOM     22  C   UNL     1       2.043  14.426  18.270  0.00  0.00    +0.000 C 
ATOM     23  C   UNL     1       1.863  15.747  19.034  0.00  0.00    +0.000 C 
ATOM     24  N   UNL     1       2.748  15.907  20.204  0.00  0.00    +0.000 NA
ATOM     25  C   UNL     1       2.566  14.746  21.099  0.00  0.00    +0.000 C 
ATOM     26  C   UNL     1       2.627  13.342  20.450  0.00  0.00    +0.000 C 
BRANCH  21  32
ATOM     27  C   UNL     1      -0.199  12.047  18.757  0.00  0.00    +0.000 A 
ATOM     28  C   UNL     1      -0.818  10.836  18.437  0.00  0.00    +0.000 A 
ATOM     29  C   UNL     1      -0.051   9.707  18.133  0.00  0.00    +0.000 A 
ATOM     30  C   UNL     1       1.334   9.793  18.136  0.00  0.00    +0.000 A 
ATOM     31  C   UNL     1       1.951  10.999  18.469  0.00  0.00    +0.000 A 
ATOM     32  C   UNL     1       1.211  12.149  18.800  0.00  0.00    +0.000 A 
BRANCH  27  34
ATOM     33  C   UNL     1      -2.122  12.805  19.903  0.00  0.00    +0.000 C 
ATOM     34  O   UNL     1      -0.951  13.132  19.162  0.00  0.00    +0.000 OA
ENDBRANCH  27  34
ENDBRANCH  21  32
ENDBRANCH  19  24
ENDBRANCH   1  19
TORSDOF 5
ENDMDL
MODEL 9
REMARK VINA RESULT:      -6.5      3.927      7.965
REMARK  Name = 
REMARK  8 active torsions:
REMARK  status: ('A' for Active; 'I' for Inactive)
REMARK    1  A    between atoms: C_1  and  O_2
REMARK    2  A    between atoms: O_2  and  C_3
REMARK    3  A    between atoms: C_8  and  N_9
REMARK    4  A    between atoms: N_12  and  C_13
REMARK    5  A    between atoms: C_13  and  C_14
REMARK    6  A    between atoms: C_13  and  C_15
REMARK    7  A    between atoms: C_15  and  N_16
REMARK    8  A    between atoms: N_27  and  C_28
REMARK                            x       y       z     vdW  Elec       q    Type
REMARK                         _______ _______ _______ _____ _____    ______ ____
ROOT
ATOM      1  C   UNL     1       0.588  12.425  20.971  0.00  0.00    +0.000 C 
ENDROOT
BRANCH   1   2
ATOM      2  N   UNL     1       0.675  13.883  20.843  0.00  0.00    +0.000 N 
ATOM      3  C   UNL     1      -0.425  14.562  20.366  0.00  0.00    +0.000 C 
ATOM      4  O   UNL     1      -1.458  14.015  19.984  0.00  0.00    +0.000 OA
ATOM      5  N   UNL     1      -0.383  15.913  20.356  0.00  0.00    +0.000 N 
ATOM      6  C   UNL     1       0.808  16.709  20.482  0.00  0.00    +0.000 C 
ATOM      7  C   UNL     1       1.303  17.164  19.139  0.00  0.00    +0.000 A 
ATOM      8  C   UNL     1       0.660  17.945  18.190  0.00  0.00    +0.000 A 
ATOM      9  C   UNL     1       1.258  18.076  16.938  0.00  0.00    +0.000 A 
ATOM     10  C   UNL     1       2.462  17.416  16.656  0.00  0.00    +0.000 A 
ATOM     11  C   UNL     1       3.158  16.750  17.669  0.00  0.00    +0.000 A 
ATOM     12  C   UNL     1       2.599  16.685  18.929  0.00  0.00    +0.000 A 
ATOM     13  N   UNL     1       3.137  16.170  20.077  0.00  0.00    +0.000 N 
ATOM     14  C   UNL     1       4.529  16.086  20.435  0.00  0.00    +0.000 C 
ATOM     15  C   UNL     1       2.048  15.964  21.043  0.00  0.00    +0.000 C 
ATOM     16  C   UNL     1       1.880  14.455  21.194  0.00  0.00    +0.000 C 
ATOM     17  O   UNL     1       2.835  13.771  21.590  0.00  0.00    +0.000 OA
ATOM     18  H   UNL     1      -1.188  16.333  19.919  0.00  0.00    +0.000 HD
ENDBRANCH   1   2
BRANCH   1  19
ATOM     19  C   UNL     1       1.192  11.618  19.779  0.00  0.00    +0.000 C 
ATOM     20  C   UNL     1       1.440  12.538  18.576  0.00  0.00    +0.000 C 
BRANCH  19  24
ATOM     21  N   UNL     1       1.876   7.839  19.695  0.00  0.00    +0.000 N 
ATOM     22  C   UNL     1       2.000   8.701  18.517  0.00  0.00    +0.000 C 
ATOM     23  C   UNL     1       0.736   9.564  18.381  0.00  0.00    +0.000 C 
ATOM     24  N   UNL     1       0.414  10.374  19.573  0.00  0.00    +0.000 NA
ATOM     25  C   UNL     1       0.323   9.479  20.744  0.00  0.00    +0.000 C 
ATOM     26  C   UNL     1       1.487   8.481  20.957  0.00  0.00    +0.000 C 
BRANCH  21  32
ATOM     27  C   UNL     1       3.328   6.082  18.777  0.00  0.00    +0.000 A 
ATOM     28  C   UNL     1       3.698   4.736  18.738  0.00  0.00    +0.000 A 
ATOM     29  C   UNL     1       3.108   3.813  19.606  0.00  0.00    +0.000 A 
ATOM     30  C   UNL     1       2.156   4.240  20.523  0.00  0.00    +0.000 A 
ATOM     31  C   UNL     1       1.777   5.582  20.551  0.00  0.00    +0.000 A 
ATOM     32  C   UNL     1       2.336   6.533  19.678  0.00  0.00    +0.000 A 
BRANCH  27  34
ATOM     33  C   UNL     1       4.765   6.418  16.930  0.00  0.00    +0.000 C 
ATOM     34  O   UNL     1       3.829   6.974  17.849  0.00  0.00    +0.000 OA
ENDBRANCH  27  34
ENDBRANCH  21  32
ENDBRANCH  19  24
ENDBRANCH   1  19
TORSDOF 5
ENDMDL
