MODEL 1
REMARK VINA RESULT:      -6.1      0.000      0.000
REMARK  Name = 
REMARK  4 active torsions:
REMARK  status: ('A' for Active; 'I' for Inactive)
REMARK    1  A    between atoms: C_1  and  C_2
REMARK    2  A    between atoms: C_5  and  N_6
REMARK    3  A    between atoms: C_7  and  C_9
REMARK    4  A    between atoms: N_11  and  C_12
REMARK                            x       y       z     vdW  Elec       q    Type
REMARK                         _______ _______ _______ _____ _____    ______ ____
ROOT
ATOM      1  N   UNL     1       3.678   6.696  17.518  0.00  0.00    +0.000 N 
ATOM      2  C   UNL     1       3.855   5.339  17.342  0.00  0.00    +0.000 C 
ATOM      3  O   UNL     1       3.077   4.520  17.833  0.00  0.00    +0.000 OA
ATOM      4  H   UNL     1       4.334   7.303  17.035  0.00  0.00    +0.000 HD
ENDROOT
BRANCH   1   9
ATOM      5  C   UNL     1      -0.027   9.578  20.910  0.00  0.00    +0.000 C 
ATOM      6  C   UNL     1       1.215   9.063  20.181  0.00  0.00    +0.000 C 
ATOM      7  C   UNL     1       1.484   7.591  20.523  0.00  0.00    +0.000 C 
ATOM      8  C   UNL     1       2.685   7.034  19.753  0.00  0.00    +0.000 C 
ATOM      9  C   UNL     1       2.529   7.224  18.244  0.00  0.00    +0.000 C 
ATOM     10  C   UNL     1       2.275   8.701  17.908  0.00  0.00    +0.000 C 
ATOM     11  C   UNL     1       1.064   9.248  18.665  0.00  0.00    +0.000 C 
ENDBRANCH   1   9
BRANCH   2  12
ATOM     12  C   UNL     1       5.037   4.946  16.550  0.00  0.00    +0.000 A 
ATOM     13  N   UNL     1       4.927   4.455  15.290  0.00  0.00    +0.000 NA
ATOM     14  N   UNL     1       6.206   4.299  14.882  0.00  0.00    +0.000 N 
ATOM     15  C   UNL     1       6.510   3.891  13.529  0.00  0.00    +0.000 C 
ATOM     16  C   UNL     1       7.131   4.615  15.831  0.00  0.00    +0.000 A 
ATOM     17  C   UNL     1       6.406   5.027  16.917  0.00  0.00    +0.000 A 
ATOM     18  I   UNL     1       7.238   5.653  18.654  0.00  0.00    +0.000 I 
ENDBRANCH   2  12
TORSDOF 2
ENDMDL
MODEL 2
REMARK VINA RESULT:      -5.9      3.062      3.809
REMARK  Name = 
REMARK  4 active torsions:
REMARK  status: ('A' for Active; 'I' for Inactive)
REMARK    1  A    between atoms: C_1  and  C_2
REMARK    2  A    between atoms: C_5  and  N_6
REMARK    3  A    between atoms: C_7  and  C_9
REMARK    4  A    between atoms: N_11  and  C_12
REMARK                            x       y       z     vdW  Elec       q    Type
REMARK                         _______ _______ _______ _____ _____    ______ ____
ROOT
ATOM      1  N   UNL     1       2.149   7.377  20.294  0.00  0.00    +0.000 N 
ATOM      2  C   UNL     1       2.052   6.001  20.263  0.00  0.00    +0.000 C 
ATOM      3  O   UNL     1       1.082   5.414  20.745  0.00  0.00    +0.000 OA
ATOM      4  H   UNL     1       2.955   7.783  19.826  0.00  0.00    +0.000 HD
ENDROOT
BRANCH   1   9
ATOM      5  C   UNL     1      -1.211  11.566  22.462  0.00  0.00    +0.000 C 
ATOM      6  C   UNL     1      -0.052  10.749  21.889  0.00  0.00    +0.000 C 
ATOM      7  C   UNL     1       0.322   9.590  22.825  0.00  0.00    +0.000 C 
ATOM      8  C   UNL     1       1.437   8.719  22.240  0.00  0.00    +0.000 C 
ATOM      9  C   UNL     1       1.081   8.201  20.846  0.00  0.00    +0.000 C 
ATOM     10  C   UNL     1       0.724   9.368  19.911  0.00  0.00    +0.000 C 
ATOM     11  C   UNL     1      -0.403  10.224  20.490  0.00  0.00    +0.000 C 
ENDBRANCH   1   9
BRANCH   2  12
ATOM     12  C   UNL     1       3.186   5.294  19.636  0.00  0.00    +0.000 A 
ATOM     13  N   UNL     1       4.394   5.887  19.461  0.00  0.00    +0.000 NA
ATOM     14  N   UNL     1       5.171   4.909  18.945  0.00  0.00    +0.000 N 
ATOM     15  C   UNL     1       6.582   5.124  18.718  0.00  0.00    +0.000 C 
ATOM     16  C   UNL     1       4.514   3.735  18.731  0.00  0.00    +0.000 A 
ATOM     17  C   UNL     1       3.232   3.957  19.159  0.00  0.00    +0.000 A 
ATOM     18  I   UNL     1       1.771   2.555  19.115  0.00  0.00    +0.000 I 
ENDBRANCH   2  12
TORSDOF 2
ENDMDL
MODEL 3
REMARK VINA RESULT:      -5.8      3.771      4.038
REMARK  Name = 
REMARK  4 active torsions:
REMARK  status: ('A' for Active; 'I' for Inactive)
REMARK    1  A    between atoms: C_1  and  C_2
REMARK    2  A    between atoms: C_5  and  N_6
REMARK    3  A    between atoms: C_7  and  C_9
REMARK    4  A    between atoms: N_11  and  C_12
REMARK                            x       y       z     vdW  Elec       q    Type
REMARK                         _______ _______ _______ _____ _____    ______ ____
ROOT
ATOM      1  N   UNL     1       4.558   2.745  17.392  0.00  0.00    +0.000 N 
ATOM      2  C   UNL     1       4.554   4.027  16.881  0.00  0.00    +0.000 C 
ATOM      3  O   UNL     1       3.787   4.889  17.312  0.00  0.00    +0.000 OA
ATOM      4  H   UNL     1       5.259   2.112  17.017  0.00  0.00    +0.000 HD
ENDROOT
BRANCH   1   9
ATOM      5  C   UNL     1       1.043   2.513  21.989  0.00  0.00    +0.000 C 
ATOM      6  C   UNL     1       1.942   2.965  20.837  0.00  0.00    +0.000 C 
ATOM      7  C   UNL     1       3.375   2.446  21.019  0.00  0.00    +0.000 C 
ATOM      8  C   UNL     1       4.278   2.831  19.843  0.00  0.00    +0.000 C 
ATOM      9  C   UNL     1       3.696   2.370  18.507  0.00  0.00    +0.000 C 
ATOM     10  C   UNL     1       2.268   2.907  18.325  0.00  0.00    +0.000 C 
ATOM     11  C   UNL     1       1.365   2.504  19.492  0.00  0.00    +0.000 C 
ENDBRANCH   1   9
BRANCH   2  12
ATOM     12  C   UNL     1       5.508   4.280  15.783  0.00  0.00    +0.000 A 
ATOM     13  N   UNL     1       5.458   3.592  14.615  0.00  0.00    +0.000 NA
ATOM     14  N   UNL     1       6.420   4.161  13.854  0.00  0.00    +0.000 N 
ATOM     15  C   UNL     1       6.606   3.768  12.476  0.00  0.00    +0.000 C 
ATOM     16  C   UNL     1       7.120   5.141  14.490  0.00  0.00    +0.000 A 
ATOM     17  C   UNL     1       6.559   5.234  15.736  0.00  0.00    +0.000 A 
ATOM     18  I   UNL     1       7.167   6.551  17.149  0.00  0.00    +0.000 I 
ENDBRANCH   2  12
TORSDOF 2
ENDMDL
MODEL 4
REMARK VINA RESULT:      -5.8      3.635      7.475
REMARK  Name = 
REMARK  4 active torsions:
REMARK  status: ('A' for Active; 'I' for Inactive)
REMARK    1  A    between atoms: C_1  and  C_2
REMARK    2  A    between atoms: C_5  and  N_6
REMARK    3  A    between atoms: C_7  and  C_9
REMARK    4  A    between atoms: N_11  and  C_12
REMARK                            x       y       z     vdW  Elec       q    Type
REMARK                         _______ _______ _______ _____ _____    ______ ____
ROOT
ATOM      1  N   UNL     1       2.091   7.898  19.054  0.00  0.00    +0.000 N 
ATOM      2  C   UNL     1       1.530   9.097  18.663  0.00  0.00    +0.000 C 
ATOM      3  O   UNL     1       1.530   9.454  17.485  0.00  0.00    +0.000 OA
ATOM      4  H   UNL     1       2.000   7.657  20.037  0.00  0.00    +0.000 HD
ENDROOT
BRANCH   1   9
ATOM      5  C   UNL     1       5.152   3.954  16.119  0.00  0.00    +0.000 C 
ATOM      6  C   UNL     1       4.606   4.911  17.180  0.00  0.00    +0.000 C 
ATOM      7  C   UNL     1       4.697   6.369  16.706  0.00  0.00    +0.000 C 
ATOM      8  C   UNL     1       4.095   7.341  17.725  0.00  0.00    +0.000 C 
ATOM      9  C   UNL     1       2.655   6.972  18.079  0.00  0.00    +0.000 C 
ATOM     10  C   UNL     1       2.574   5.517  18.567  0.00  0.00    +0.000 C 
ATOM     11  C   UNL     1       3.159   4.548  17.539  0.00  0.00    +0.000 C 
ENDBRANCH   1   9
BRANCH   2  12
ATOM     12  C   UNL     1       0.957   9.918  19.749  0.00  0.00    +0.000 A 
ATOM     13  N   UNL     1       0.282   9.364  20.788  0.00  0.00    +0.000 NA
ATOM     14  N   UNL     1      -0.003  10.412  21.593  0.00  0.00    +0.000 N 
ATOM     15  C   UNL     1      -0.633  10.211  22.878  0.00  0.00    +0.000 C 
ATOM     16  C   UNL     1       0.407  11.614  21.102  0.00  0.00    +0.000 A 
ATOM     17  C   UNL     1       1.021  11.327  19.912  0.00  0.00    +0.000 A 
ATOM     18  I   UNL     1       1.867  12.724  18.715  0.00  0.00    +0.000 I 
ENDBRANCH   2  12
TORSDOF 2
ENDMDL
MODEL 5
REMARK VINA RESULT:      -5.7      3.054      6.813
REMARK  Name = 
REMARK  4 active torsions:
REMARK  status: ('A' for Active; 'I' for Inactive)
REMARK    1  A    between atoms: C_1  and  C_2
REMARK    2  A    between atoms: C_5  and  N_6
REMARK    3  A    between atoms: C_7  and  C_9
REMARK    4  A    between atoms: N_11  and  C_12
REMARK                            x       y       z     vdW  Elec       q    Type
REMARK                         _______ _______ _______ _____ _____    ______ ____
ROOT
ATOM      1  N   UNL     1       4.490   4.099  17.189  0.00  0.00    +0.000 N 
ATOM      2  C   UNL     1       4.732   4.057  18.548  0.00  0.00    +0.000 C 
ATOM      3  O   UNL     1       5.877   3.998  18.995  0.00  0.00    +0.000 OA
ATOM      4  H   UNL     1       3.519   4.201  16.907  0.00  0.00    +0.000 HD
ENDROOT
BRANCH   1   9
ATOM      5  C   UNL     1       8.154   5.184  12.838  0.00  0.00    +0.000 C 
ATOM      6  C   UNL     1       6.979   5.189  13.817  0.00  0.00    +0.000 C 
ATOM      7  C   UNL     1       6.235   3.846  13.794  0.00  0.00    +0.000 C 
ATOM      8  C   UNL     1       5.095   3.805  14.814  0.00  0.00    +0.000 C 
ATOM      9  C   UNL     1       5.583   4.134  16.225  0.00  0.00    +0.000 C 
ATOM     10  C   UNL     1       6.311   5.487  16.243  0.00  0.00    +0.000 C 
ATOM     11  C   UNL     1       7.462   5.517  15.236  0.00  0.00    +0.000 C 
ENDBRANCH   1   9
BRANCH   2  12
ATOM     12  C   UNL     1       3.534   4.070  19.410  0.00  0.00    +0.000 A 
ATOM     13  N   UNL     1       3.175   2.996  20.158  0.00  0.00    +0.000 NA
ATOM     14  N   UNL     1       2.099   3.422  20.856  0.00  0.00    +0.000 N 
ATOM     15  C   UNL     1       1.486   2.584  21.860  0.00  0.00    +0.000 C 
ATOM     16  C   UNL     1       1.716   4.696  20.558  0.00  0.00    +0.000 A 
ATOM     17  C   UNL     1       2.617   5.133  19.625  0.00  0.00    +0.000 A 
ATOM     18  I   UNL     1       2.580   6.985  18.805  0.00  0.00    +0.000 I 
ENDBRANCH   2  12
TORSDOF 2
ENDMDL
MODEL 6
REMARK VINA RESULT:      -5.7      3.147      3.981
REMARK  Name = 
REMARK  4 active torsions:
REMARK  status: ('A' for Active; 'I' for Inactive)
REMARK    1  A    between atoms: C_1  and  C_2
REMARK    2  A    between atoms: C_5  and  N_6
REMARK    3  A    between atoms: C_7  and  C_9
REMARK    4  A    between atoms: N_11  and  C_12
REMARK                            x       y       z     vdW  Elec       q    Type
REMARK                         _______ _______ _______ _____ _____    ______ ____
ROOT
ATOM      1  N   UNL     1       4.101   4.271  18.233  0.00  0.00    +0.000 N 
ATOM      2  C   UNL     1       5.474   4.387  18.147  0.00  0.00    +0.000 C 
ATOM      3  O   UNL     1       6.189   4.322  19.148  0.00  0.00    +0.000 OA
ATOM      4  H   UNL     1       3.592   4.283  17.354  0.00  0.00    +0.000 HD
ENDROOT
BRANCH   1   9
ATOM      5  C   UNL     1       0.863   2.324  22.622  0.00  0.00    +0.000 C 
ATOM      6  C   UNL     1       1.520   2.561  21.261  0.00  0.00    +0.000 C 
ATOM      7  C   UNL     1       1.233   3.979  20.749  0.00  0.00    +0.000 C 
ATOM      8  C   UNL     1       1.936   4.261  19.418  0.00  0.00    +0.000 C 
ATOM      9  C   UNL     1       3.441   4.006  19.506  0.00  0.00    +0.000 C 
ATOM     10  C   UNL     1       3.719   2.579  20.003  0.00  0.00    +0.000 C 
ATOM     11  C   UNL     1       3.031   2.308  21.341  0.00  0.00    +0.000 C 
ENDBRANCH   1   9
BRANCH   2  12
ATOM     12  C   UNL     1       6.012   4.611  16.791  0.00  0.00    +0.000 A 
ATOM     13  N   UNL     1       5.795   3.735  15.778  0.00  0.00    +0.000 NA
ATOM     14  N   UNL     1       6.364   4.324  14.703  0.00  0.00    +0.000 N 
ATOM     15  C   UNL     1       6.246   3.739  13.387  0.00  0.00    +0.000 C 
ATOM     16  C   UNL     1       6.981   5.506  14.982  0.00  0.00    +0.000 A 
ATOM     17  C   UNL     1       6.776   5.711  16.320  0.00  0.00    +0.000 A 
ATOM     18  I   UNL     1       7.447   7.337  17.325  0.00  0.00    +0.000 I 
ENDBRANCH   2  12
TORSDOF 2
ENDMDL
MODEL 7
REMARK VINA RESULT:      -5.7      3.014      3.701
REMARK  Name = 
REMARK  4 active torsions:
REMARK  status: ('A' for Active; 'I' for Inactive)
REMARK    1  A    between atoms: C_1  and  C_2
REMARK    2  A    between atoms: C_5  and  N_6
REMARK    3  A    between atoms: C_7  and  C_9
REMARK    4  A    between atoms: N_11  and  C_12
REMARK                            x       y       z     vdW  Elec       q    Type
REMARK                         _______ _______ _______ _____ _____    ______ ____
ROOT
ATOM      1  N   UNL     1       3.672   4.281  17.416  0.00  0.00    +0.000 N 
ATOM      2  C   UNL     1       5.033   4.085  17.529  0.00  0.00    +0.000 C 
ATOM      3  O   UNL     1       5.541   3.689  18.578  0.00  0.00    +0.000 OA
ATOM      4  H   UNL     1       3.330   4.558  16.499  0.00  0.00    +0.000 HD
ENDROOT
BRANCH   1   9
ATOM      5  C   UNL     1       1.119   2.541  22.314  0.00  0.00    +0.000 C 
ATOM      6  C   UNL     1       2.112   2.836  21.189  0.00  0.00    +0.000 C 
ATOM      7  C   UNL     1       1.700   2.129  19.890  0.00  0.00    +0.000 C 
ATOM      8  C   UNL     1       2.644   2.463  18.732  0.00  0.00    +0.000 C 
ATOM      9  C   UNL     1       2.767   3.972  18.517  0.00  0.00    +0.000 C 
ATOM     10  C   UNL     1       3.195   4.670  19.816  0.00  0.00    +0.000 C 
ATOM     11  C   UNL     1       2.239   4.349  20.966  0.00  0.00    +0.000 C 
ENDBRANCH   1   9
BRANCH   2  12
ATOM     12  C   UNL     1       5.825   4.398  16.323  0.00  0.00    +0.000 A 
ATOM     13  N   UNL     1       5.751   3.644  15.198  0.00  0.00    +0.000 NA
ATOM     14  N   UNL     1       6.542   4.289  14.312  0.00  0.00    +0.000 N 
ATOM     15  C   UNL     1       6.637   3.846  12.941  0.00  0.00    +0.000 C 
ATOM     16  C   UNL     1       7.162   5.389  14.824  0.00  0.00    +0.000 A 
ATOM     17  C   UNL     1       6.725   5.479  16.119  0.00  0.00    +0.000 A 
ATOM     18  I   UNL     1       7.288   6.943  17.399  0.00  0.00    +0.000 I 
ENDBRANCH   2  12
TORSDOF 2
ENDMDL
MODEL 8
REMARK VINA RESULT:      -5.6      2.488      3.427
REMARK  Name = 
REMARK  4 active torsions:
REMARK  status: ('A' for Active; 'I' for Inactive)
REMARK    1  A    between atoms: C_1  and  C_2
REMARK    2  A    between atoms: C_5  and  N_6
REMARK    3  A    between atoms: C_7  and  C_9
REMARK    4  A    between atoms: N_11  and  C_12
REMARK                            x       y       z     vdW  Elec       q    Type
REMARK                         _______ _______ _______ _____ _____    ______ ____
ROOT
ATOM      1  N   UNL     1       2.199   8.543  17.923  0.00  0.00    +0.000 N 
ATOM      2  C   UNL     1       2.618   7.428  18.621  0.00  0.00    +0.000 C 
ATOM      3  O   UNL     1       2.323   7.262  19.805  0.00  0.00    +0.000 OA
ATOM      4  H   UNL     1       2.441   8.574  16.937  0.00  0.00    +0.000 HD
ENDROOT
BRANCH   1   9
ATOM      5  C   UNL     1      -1.278  12.996  19.193  0.00  0.00    +0.000 C 
ATOM      6  C   UNL     1      -0.378  11.976  18.494  0.00  0.00    +0.000 C 
ATOM      7  C   UNL     1       1.042  12.003  19.076  0.00  0.00    +0.000 C 
ATOM      8  C   UNL     1       1.944  10.944  18.436  0.00  0.00    +0.000 C 
ATOM      9  C   UNL     1       1.337   9.544  18.540  0.00  0.00    +0.000 C 
ATOM     10  C   UNL     1      -0.077   9.522  17.941  0.00  0.00    +0.000 C 
ATOM     11  C   UNL     1      -0.979  10.568  18.596  0.00  0.00    +0.000 C 
ENDBRANCH   1   9
BRANCH   2  12
ATOM     12  C   UNL     1       3.450   6.474  17.862  0.00  0.00    +0.000 A 
ATOM     13  N   UNL     1       4.592   6.856  17.235  0.00  0.00    +0.000 NA
ATOM     14  N   UNL     1       5.096   5.706  16.735  0.00  0.00    +0.000 N 
ATOM     15  C   UNL     1       6.384   5.682  16.082  0.00  0.00    +0.000 C 
ATOM     16  C   UNL     1       4.313   4.614  16.963  0.00  0.00    +0.000 A 
ATOM     17  C   UNL     1       3.243   5.081  17.679  0.00  0.00    +0.000 A 
ATOM     18  I   UNL     1       1.731   3.907  18.338  0.00  0.00    +0.000 I 
ENDBRANCH   2  12
TORSDOF 2
ENDMDL
MODEL 9
REMARK VINA RESULT:      -5.6      1.646      2.079
REMARK  Name = 
REMARK  4 active torsions:
REMARK  status: ('A' for Active; 'I' for Inactive)
REMARK    1  A    between atoms: C_1  and  C_2
REMARK    2  A    between atoms: C_5  and  N_6
REMARK    3  A    between atoms: C_7  and  C_9
REMARK    4  A    between atoms: N_11  and  C_12
REMARK                            x       y       z     vdW  Elec       q    Type
REMARK                         _______ _______ _______ _____ _____    ______ ____
ROOT
ATOM      1  N   UNL     1       3.281   6.809  17.620  0.00  0.00    +0.000 N 
ATOM      2  C   UNL     1       4.618   6.748  17.285  0.00  0.00    +0.000 C 
ATOM      3  O   UNL     1       5.418   7.602  17.670  0.00  0.00    +0.000 OA
ATOM      4  H   UNL     1       2.701   6.036  17.305  0.00  0.00    +0.000 HD
ENDROOT
BRANCH   1   9
ATOM      5  C   UNL     1       0.110  10.417  20.855  0.00  0.00    +0.000 C 
ATOM      6  C   UNL     1       0.593   9.302  19.926  0.00  0.00    +0.000 C 
ATOM      7  C   UNL     1       1.253   9.881  18.667  0.00  0.00    +0.000 C 
ATOM      8  C   UNL     1       1.804   8.783  17.753  0.00  0.00    +0.000 C 
ATOM      9  C   UNL     1       2.765   7.855  18.496  0.00  0.00    +0.000 C 
ATOM     10  C   UNL     1       2.092   7.267  19.745  0.00  0.00    +0.000 C 
ATOM     11  C   UNL     1       1.560   8.367  20.665  0.00  0.00    +0.000 C 
ENDBRANCH   1   9
BRANCH   2  12
ATOM     12  C   UNL     1       5.011   5.612  16.427  0.00  0.00    +0.000 A 
ATOM     13  N   UNL     1       5.645   5.793  15.241  0.00  0.00    +0.000 NA
ATOM     14  N   UNL     1       5.903   4.538  14.809  0.00  0.00    +0.000 N 
ATOM     15  C   UNL     1       6.677   4.310  13.611  0.00  0.00    +0.000 C 
ATOM     16  C   UNL     1       5.421   3.562  15.628  0.00  0.00    +0.000 A 
ATOM     17  C   UNL     1       4.835   4.225  16.673  0.00  0.00    +0.000 A 
ATOM     18  I   UNL     1       3.953   3.297  18.243  0.00  0.00    +0.000 I 
ENDBRANCH   2  12
TORSDOF 2
ENDMDL
