MODEL 1
REMARK VINA RESULT:      -7.1      0.000      0.000
REMARK  Name = 
REMARK  9 active torsions:
REMARK  status: ('A' for Active; 'I' for Inactive)
REMARK    1  A    between atoms: C_1  and  C_2
REMARK    2  A    between atoms: C_2  and  C_3
REMARK    3  A    between atoms: C_2  and  N_15
REMARK    4  A    between atoms: N_18  and  S_19
REMARK    5  A    between atoms: S_19  and  C_22
REMARK    6  A    between atoms: C_25  and  C_26
REMARK    7  A    between atoms: C_26  and  C_27
REMARK    8  A    between atoms: C_26  and  C_28
REMARK    9  A    between atoms: C_26  and  C_29
REMARK                            x       y       z     vdW  Elec       q    Type
REMARK                         _______ _______ _______ _____ _____    ______ ____
ROOT
ATOM      1  N   UNL     1       1.473   9.333  19.878  0.00  0.00    +0.000 NA
ATOM      2  C   UNL     1       1.152  10.734  19.552  0.00  0.00    +0.000 C 
ATOM      3  C   UNL     1      -0.330  11.148  19.686  0.00  0.00    +0.000 C 
ATOM      4  N   UNL     1      -0.943  10.688  20.971  0.00  0.00    +0.000 NA
ATOM      5  C   UNL     1      -0.690   9.246  21.216  0.00  0.00    +0.000 C 
ATOM      6  C   UNL     1       0.805   8.911  21.119  0.00  0.00    +0.000 C 
ENDROOT
BRANCH   4   7
ATOM      7  S   UNL     1      -0.735  11.690  22.333  0.00  0.00    +0.000 S 
ATOM      8  O   UNL     1      -0.466  10.849  23.480  0.00  0.00    +0.000 OA
ATOM      9  O   UNL     1       0.157  12.770  21.970  0.00  0.00    +0.000 OA
BRANCH   7  10
ATOM     10  C   UNL     1      -2.364  12.346  22.545  0.00  0.00    +0.000 A 
ATOM     11  C   UNL     1      -2.967  12.229  23.795  0.00  0.00    +0.000 A 
ATOM     12  C   UNL     1      -4.263  12.707  23.979  0.00  0.00    +0.000 A 
ATOM     13  C   UNL     1      -4.979  13.308  22.927  0.00  0.00    +0.000 A 
ATOM     14  C   UNL     1      -4.327  13.432  21.680  0.00  0.00    +0.000 A 
ATOM     15  C   UNL     1      -3.029  12.955  21.486  0.00  0.00    +0.000 A 
BRANCH  13  16
ATOM     16  C   UNL     1      -6.423  13.809  23.103  0.00  0.00    +0.000 C 
ATOM     17  C   UNL     1      -6.509  15.184  23.804  0.00  0.00    +0.000 C 
ATOM     18  C   UNL     1      -7.105  13.945  21.726  0.00  0.00    +0.000 C 
ATOM     19  C   UNL     1      -7.222  12.808  23.964  0.00  0.00    +0.000 C 
ENDBRANCH  13  16
ENDBRANCH   7  10
ENDBRANCH   4   7
BRANCH   1  21
ATOM     20  C   UNL     1       1.138   8.907  17.362  0.00  0.00    +0.000 C 
ATOM     21  C   UNL     1       1.407   8.359  18.766  0.00  0.00    +0.000 C 
BRANCH  21  22
ATOM     22  C   UNL     1       2.717   7.515  18.755  0.00  0.00    +0.000 C 
ATOM     23  O   UNL     1       3.707   7.909  18.128  0.00  0.00    +0.000 OA
ATOM     24  N   UNL     1       2.745   6.332  19.476  0.00  0.00    +0.000 N 
ATOM     25  C   UNL     1       1.660   5.792  20.290  0.00  0.00    +0.000 C 
ATOM     26  C   UNL     1       1.242   4.430  19.739  0.00  0.00    +0.000 C 
ATOM     27  C   UNL     1       2.428   3.518  19.574  0.00  0.00    +0.000 A 
ATOM     28  C   UNL     1       2.254   2.132  19.500  0.00  0.00    +0.000 A 
ATOM     29  C   UNL     1       3.362   1.309  19.337  0.00  0.00    +0.000 A 
ATOM     30  C   UNL     1       4.607   1.904  19.248  0.00  0.00    +0.000 A 
ATOM     31  N   UNL     1       4.813   3.238  19.293  0.00  0.00    +0.000 NA
ATOM     32  C   UNL     1       3.723   4.035  19.442  0.00  0.00    +0.000 A 
ATOM     33  C   UNL     1       3.975   5.534  19.492  0.00  0.00    +0.000 C 
ENDBRANCH  21  22
ENDBRANCH   1  21
TORSDOF 5
ENDMDL
MODEL 2
REMARK VINA RESULT:      -7.0      1.834      2.128
REMARK  Name = 
REMARK  9 active torsions:
REMARK  status: ('A' for Active; 'I' for Inactive)
REMARK    1  A    between atoms: C_1  and  C_2
REMARK    2  A    between atoms: C_2  and  C_3
REMARK    3  A    between atoms: C_2  and  N_15
REMARK    4  A    between atoms: N_18  and  S_19
REMARK    5  A    between atoms: S_19  and  C_22
REMARK    6  A    between atoms: C_25  and  C_26
REMARK    7  A    between atoms: C_26  and  C_27
REMARK    8  A    between atoms: C_26  and  C_28
REMARK    9  A    between atoms: C_26  and  C_29
REMARK                            x       y       z     vdW  Elec       q    Type
REMARK                         _______ _______ _______ _____ _____    ______ ____
ROOT
ATOM      1  N   UNL     1       1.307   9.671  19.721  0.00  0.00    +0.000 NA
ATOM      2  C   UNL     1       0.999  11.092  19.485  0.00  0.00    +0.000 C 
ATOM      3  C   UNL     1      -0.475  11.516  19.676  0.00  0.00    +0.000 C 
ATOM      4  N   UNL     1      -1.067  10.988  20.945  0.00  0.00    +0.000 NA
ATOM      5  C   UNL     1      -0.828   9.530  21.098  0.00  0.00    +0.000 C 
ATOM      6  C   UNL     1       0.661   9.184  20.949  0.00  0.00    +0.000 C 
ENDROOT
BRANCH   4   7
ATOM      7  S   UNL     1      -0.816  11.905  22.358  0.00  0.00    +0.000 S 
ATOM      8  O   UNL     1      -0.573  10.993  23.455  0.00  0.00    +0.000 OA
ATOM      9  O   UNL     1       0.111  12.970  22.049  0.00  0.00    +0.000 OA
BRANCH   7  10
ATOM     10  C   UNL     1      -2.420  12.606  22.616  0.00  0.00    +0.000 A 
ATOM     11  C   UNL     1      -3.142  12.209  23.740  0.00  0.00    +0.000 A 
ATOM     12  C   UNL     1      -4.422  12.720  23.948  0.00  0.00    +0.000 A 
ATOM     13  C   UNL     1      -5.004  13.631  23.047  0.00  0.00    +0.000 A 
ATOM     14  C   UNL     1      -4.233  14.030  21.933  0.00  0.00    +0.000 A 
ATOM     15  C   UNL     1      -2.950  13.522  21.714  0.00  0.00    +0.000 A 
BRANCH  13  16
ATOM     16  C   UNL     1      -6.428  14.178  23.243  0.00  0.00    +0.000 C 
ATOM     17  C   UNL     1      -6.457  15.584  23.886  0.00  0.00    +0.000 C 
ATOM     18  C   UNL     1      -7.147  14.274  21.882  0.00  0.00    +0.000 C 
ATOM     19  C   UNL     1      -7.226  13.237  24.170  0.00  0.00    +0.000 C 
ENDBRANCH  13  16
ENDBRANCH   7  10
ENDBRANCH   4   7
BRANCH   1  21
ATOM     20  C   UNL     1       0.100   9.049  17.534  0.00  0.00    +0.000 C 
ATOM     21  C   UNL     1       1.205   8.765  18.554  0.00  0.00    +0.000 C 
BRANCH  21  22
ATOM     22  C   UNL     1       2.584   8.717  17.830  0.00  0.00    +0.000 C 
ATOM     23  O   UNL     1       2.966   9.676  17.153  0.00  0.00    +0.000 OA
ATOM     24  N   UNL     1       3.368   7.584  17.983  0.00  0.00    +0.000 N 
ATOM     25  C   UNL     1       3.045   6.414  18.794  0.00  0.00    +0.000 C 
ATOM     26  C   UNL     1       2.971   5.179  17.896  0.00  0.00    +0.000 C 
ATOM     27  C   UNL     1       4.207   5.044  17.048  0.00  0.00    +0.000 A 
ATOM     28  C   UNL     1       4.551   3.810  16.485  0.00  0.00    +0.000 A 
ATOM     29  C   UNL     1       5.691   3.710  15.696  0.00  0.00    +0.000 A 
ATOM     30  C   UNL     1       6.444   4.851  15.492  0.00  0.00    +0.000 A 
ATOM     31  N   UNL     1       6.132   6.064  16.000  0.00  0.00    +0.000 NA
ATOM     32  C   UNL     1       5.011   6.155  16.761  0.00  0.00    +0.000 A 
ATOM     33  C   UNL     1       4.677   7.527  17.324  0.00  0.00    +0.000 C 
ENDBRANCH  21  22
ENDBRANCH   1  21
TORSDOF 5
ENDMDL
MODEL 3
REMARK VINA RESULT:      -7.0      5.460     10.957
REMARK  Name = 
REMARK  9 active torsions:
REMARK  status: ('A' for Active; 'I' for Inactive)
REMARK    1  A    between atoms: C_1  and  C_2
REMARK    2  A    between atoms: C_2  and  C_3
REMARK    3  A    between atoms: C_2  and  N_15
REMARK    4  A    between atoms: N_18  and  S_19
REMARK    5  A    between atoms: S_19  and  C_22
REMARK    6  A    between atoms: C_25  and  C_26
REMARK    7  A    between atoms: C_26  and  C_27
REMARK    8  A    between atoms: C_26  and  C_28
REMARK    9  A    between atoms: C_26  and  C_29
REMARK                            x       y       z     vdW  Elec       q    Type
REMARK                         _______ _______ _______ _____ _____    ______ ____
ROOT
ATOM      1  N   UNL     1       0.787  13.738  21.057  0.00  0.00    +0.000 NA
ATOM      2  C   UNL     1       2.199  13.382  20.829  0.00  0.00    +0.000 C 
ATOM      3  C   UNL     1       2.729  13.566  19.390  0.00  0.00    +0.000 C 
ATOM      4  N   UNL     1       2.353  14.888  18.800  0.00  0.00    +0.000 NA
ATOM      5  C   UNL     1       0.902  15.167  18.955  0.00  0.00    +0.000 C 
ATOM      6  C   UNL     1       0.451  15.017  20.415  0.00  0.00    +0.000 C 
ENDROOT
BRANCH   4   7
ATOM      7  S   UNL     1       3.373  16.209  19.144  0.00  0.00    +0.000 S 
ATOM      8  O   UNL     1       3.246  17.173  18.072  0.00  0.00    +0.000 OA
ATOM      9  O   UNL     1       3.172  16.591  20.524  0.00  0.00    +0.000 OA
BRANCH   7  10
ATOM     10  C   UNL     1       4.974  15.472  18.986  0.00  0.00    +0.000 A 
ATOM     11  C   UNL     1       5.794  15.425  20.112  0.00  0.00    +0.000 A 
ATOM     12  C   UNL     1       7.073  14.880  20.007  0.00  0.00    +0.000 A 
ATOM     13  C   UNL     1       7.556  14.375  18.785  0.00  0.00    +0.000 A 
ATOM     14  C   UNL     1       6.688  14.417  17.672  0.00  0.00    +0.000 A 
ATOM     15  C   UNL     1       5.406  14.961  17.767  0.00  0.00    +0.000 A 
BRANCH  13  16
ATOM     16  C   UNL     1       8.977  13.803  18.643  0.00  0.00    +0.000 C 
ATOM     17  C   UNL     1       9.970  14.795  17.995  0.00  0.00    +0.000 C 
ATOM     18  C   UNL     1       9.535  13.426  20.031  0.00  0.00    +0.000 C 
ATOM     19  C   UNL     1       8.946  12.543  17.752  0.00  0.00    +0.000 C 
ENDBRANCH  13  16
ENDBRANCH   7  10
ENDBRANCH   4   7
BRANCH   1  21
ATOM     20  C   UNL     1       0.315  11.270  20.497  0.00  0.00    +0.000 C 
ATOM     21  C   UNL     1      -0.209  12.659  20.869  0.00  0.00    +0.000 C 
BRANCH  21  22
ATOM     22  C   UNL     1      -1.093  12.559  22.149  0.00  0.00    +0.000 C 
ATOM     23  O   UNL     1      -0.662  11.997  23.161  0.00  0.00    +0.000 OA
ATOM     24  N   UNL     1      -2.356  13.128  22.124  0.00  0.00    +0.000 N 
ATOM     25  C   UNL     1      -2.952  13.856  21.007  0.00  0.00    +0.000 C 
ATOM     26  C   UNL     1      -4.220  13.136  20.550  0.00  0.00    +0.000 C 
ATOM     27  C   UNL     1      -5.147  12.874  21.706  0.00  0.00    +0.000 A 
ATOM     28  C   UNL     1      -6.506  12.626  21.484  0.00  0.00    +0.000 A 
ATOM     29  C   UNL     1      -7.343  12.375  22.566  0.00  0.00    +0.000 A 
ATOM     30  C   UNL     1      -6.788  12.375  23.832  0.00  0.00    +0.000 A 
ATOM     31  N   UNL     1      -5.479  12.588  24.083  0.00  0.00    +0.000 NA
ATOM     32  C   UNL     1      -4.666  12.821  23.020  0.00  0.00    +0.000 A 
ATOM     33  C   UNL     1      -3.195  13.060  23.324  0.00  0.00    +0.000 C 
ENDBRANCH  21  22
ENDBRANCH   1  21
TORSDOF 5
ENDMDL
MODEL 4
REMARK VINA RESULT:      -6.9      5.445     10.954
REMARK  Name = 
REMARK  9 active torsions:
REMARK  status: ('A' for Active; 'I' for Inactive)
REMARK    1  A    between atoms: C_1  and  C_2
REMARK    2  A    between atoms: C_2  and  C_3
REMARK    3  A    between atoms: C_2  and  N_15
REMARK    4  A    between atoms: N_18  and  S_19
REMARK    5  A    between atoms: S_19  and  C_22
REMARK    6  A    between atoms: C_25  and  C_26
REMARK    7  A    between atoms: C_26  and  C_27
REMARK    8  A    between atoms: C_26  and  C_28
REMARK    9  A    between atoms: C_26  and  C_29
REMARK                            x       y       z     vdW  Elec       q    Type
REMARK                         _______ _______ _______ _____ _____    ______ ____
ROOT
ATOM      1  N   UNL     1       0.813  13.735  21.096  0.00  0.00    +0.000 NA
ATOM      2  C   UNL     1       2.231  13.406  20.866  0.00  0.00    +0.000 C 
ATOM      3  C   UNL     1       2.756  13.602  19.426  0.00  0.00    +0.000 C 
ATOM      4  N   UNL     1       2.355  14.919  18.840  0.00  0.00    +0.000 NA
ATOM      5  C   UNL     1       0.900  15.171  18.997  0.00  0.00    +0.000 C 
ATOM      6  C   UNL     1       0.453  15.010  20.457  0.00  0.00    +0.000 C 
ENDROOT
BRANCH   4   7
ATOM      7  S   UNL     1       3.352  16.257  19.185  0.00  0.00    +0.000 S 
ATOM      8  O   UNL     1       3.219  17.213  18.107  0.00  0.00    +0.000 OA
ATOM      9  O   UNL     1       3.132  16.643  20.562  0.00  0.00    +0.000 OA
BRANCH   7  10
ATOM     10  C   UNL     1       4.965  15.544  19.046  0.00  0.00    +0.000 A 
ATOM     11  C   UNL     1       5.356  15.029  17.812  0.00  0.00    +0.000 A 
ATOM     12  C   UNL     1       6.609  14.431  17.684  0.00  0.00    +0.000 A 
ATOM     13  C   UNL     1       7.491  14.336  18.777  0.00  0.00    +0.000 A 
ATOM     14  C   UNL     1       7.070  14.891  20.006  0.00  0.00    +0.000 A 
ATOM     15  C   UNL     1       5.817  15.491  20.144  0.00  0.00    +0.000 A 
BRANCH  13  16
ATOM     16  C   UNL     1       8.862  13.648  18.663  0.00  0.00    +0.000 C 
ATOM     17  C   UNL     1       9.402  13.139  20.019  0.00  0.00    +0.000 C 
ATOM     18  C   UNL     1       8.766  12.435  17.715  0.00  0.00    +0.000 C 
ATOM     19  C   UNL     1       9.901  14.644  18.104  0.00  0.00    +0.000 C 
ENDBRANCH  13  16
ENDBRANCH   7  10
ENDBRANCH   4   7
BRANCH   1  21
ATOM     20  C   UNL     1       0.386  11.259  20.541  0.00  0.00    +0.000 C 
ATOM     21  C   UNL     1      -0.164  12.639  20.907  0.00  0.00    +0.000 C 
BRANCH  21  22
ATOM     22  C   UNL     1      -1.051  12.527  22.184  0.00  0.00    +0.000 C 
ATOM     23  O   UNL     1      -0.629  11.941  23.186  0.00  0.00    +0.000 OA
ATOM     24  N   UNL     1      -2.306  13.114  22.167  0.00  0.00    +0.000 N 
ATOM     25  C   UNL     1      -2.891  13.871  21.064  0.00  0.00    +0.000 C 
ATOM     26  C   UNL     1      -4.167  13.177  20.592  0.00  0.00    +0.000 C 
ATOM     27  C   UNL     1      -5.100  12.906  21.741  0.00  0.00    +0.000 A 
ATOM     28  C   UNL     1      -6.462  12.681  21.513  0.00  0.00    +0.000 A 
ATOM     29  C   UNL     1      -7.304  12.421  22.589  0.00  0.00    +0.000 A 
ATOM     30  C   UNL     1      -6.751  12.390  23.855  0.00  0.00    +0.000 A 
ATOM     31  N   UNL     1      -5.439  12.580  24.113  0.00  0.00    +0.000 NA
ATOM     32  C   UNL     1      -4.621  12.822  23.055  0.00  0.00    +0.000 A 
ATOM     33  C   UNL     1      -3.148  13.034  23.365  0.00  0.00    +0.000 C 
ENDBRANCH  21  22
ENDBRANCH   1  21
TORSDOF 5
ENDMDL
MODEL 5
REMARK VINA RESULT:      -6.9      5.447      9.900
REMARK  Name = 
REMARK  9 active torsions:
REMARK  status: ('A' for Active; 'I' for Inactive)
REMARK    1  A    between atoms: C_1  and  C_2
REMARK    2  A    between atoms: C_2  and  C_3
REMARK    3  A    between atoms: C_2  and  N_15
REMARK    4  A    between atoms: N_18  and  S_19
REMARK    5  A    between atoms: S_19  and  C_22
REMARK    6  A    between atoms: C_25  and  C_26
REMARK    7  A    between atoms: C_26  and  C_27
REMARK    8  A    between atoms: C_26  and  C_28
REMARK    9  A    between atoms: C_26  and  C_29
REMARK                            x       y       z     vdW  Elec       q    Type
REMARK                         _______ _______ _______ _____ _____    ______ ____
ROOT
ATOM      1  N   UNL     1       1.973  14.782  20.482  0.00  0.00    +0.000 NA
ATOM      2  C   UNL     1       0.596  14.813  19.957  0.00  0.00    +0.000 C 
ATOM      3  C   UNL     1       0.319  13.949  18.707  0.00  0.00    +0.000 C 
ATOM      4  N   UNL     1       0.870  12.564  18.829  0.00  0.00    +0.000 NA
ATOM      5  C   UNL     1       2.292  12.574  19.258  0.00  0.00    +0.000 C 
ATOM      6  C   UNL     1       2.491  13.406  20.533  0.00  0.00    +0.000 C 
ENDROOT
BRANCH   4   7
ATOM      7  S   UNL     1      -0.103  11.407  19.613  0.00  0.00    +0.000 S 
ATOM      8  O   UNL     1      -0.050  11.658  21.038  0.00  0.00    +0.000 OA
ATOM      9  O   UNL     1      -1.366  11.327  18.913  0.00  0.00    +0.000 OA
BRANCH   7  10
ATOM     10  C   UNL     1       0.806   9.918  19.318  0.00  0.00    +0.000 A 
ATOM     11  C   UNL     1       1.190   9.626  18.011  0.00  0.00    +0.000 A 
ATOM     12  C   UNL     1       1.877   8.442  17.747  0.00  0.00    +0.000 A 
ATOM     13  C   UNL     1       2.193   7.533  18.773  0.00  0.00    +0.000 A 
ATOM     14  C   UNL     1       1.809   7.874  20.089  0.00  0.00    +0.000 A 
ATOM     15  C   UNL     1       1.120   9.057  20.364  0.00  0.00    +0.000 A 
BRANCH  13  16
ATOM     16  C   UNL     1       2.919   6.206  18.494  0.00  0.00    +0.000 C 
ATOM     17  C   UNL     1       2.015   5.147  17.821  0.00  0.00    +0.000 C 
ATOM     18  C   UNL     1       4.123   6.450  17.561  0.00  0.00    +0.000 C 
ATOM     19  C   UNL     1       3.424   5.598  19.820  0.00  0.00    +0.000 C 
ENDBRANCH  13  16
ENDBRANCH   7  10
ENDBRANCH   4   7
BRANCH   1  21
ATOM     20  C   UNL     1       2.460  17.250  19.939  0.00  0.00    +0.000 C 
ATOM     21  C   UNL     1       2.914  15.788  19.942  0.00  0.00    +0.000 C 
BRANCH  21  22
ATOM     22  C   UNL     1       4.273  15.665  20.695  0.00  0.00    +0.000 C 
ATOM     23  O   UNL     1       4.354  15.975  21.888  0.00  0.00    +0.000 OA
ATOM     24  N   UNL     1       5.371  15.186  19.999  0.00  0.00    +0.000 N 
ATOM     25  C   UNL     1       5.385  14.745  18.607  0.00  0.00    +0.000 C 
ATOM     26  C   UNL     1       6.354  15.616  17.808  0.00  0.00    +0.000 C 
ATOM     27  C   UNL     1       7.705  15.679  18.468  0.00  0.00    +0.000 A 
ATOM     28  C   UNL     1       8.838  16.044  17.734  0.00  0.00    +0.000 A 
ATOM     29  C   UNL     1      10.074  16.107  18.366  0.00  0.00    +0.000 A 
ATOM     30  C   UNL     1      10.132  15.808  19.715  0.00  0.00    +0.000 A 
ATOM     31  N   UNL     1       9.057  15.474  20.461  0.00  0.00    +0.000 NA
ATOM     32  C   UNL     1       7.851  15.425  19.838  0.00  0.00    +0.000 A 
ATOM     33  C   UNL     1       6.654  15.046  20.695  0.00  0.00    +0.000 C 
ENDBRANCH  21  22
ENDBRANCH   1  21
TORSDOF 5
ENDMDL
MODEL 6
REMARK VINA RESULT:      -6.8      2.250      3.182
REMARK  Name = 
REMARK  9 active torsions:
REMARK  status: ('A' for Active; 'I' for Inactive)
REMARK    1  A    between atoms: C_1  and  C_2
REMARK    2  A    between atoms: C_2  and  C_3
REMARK    3  A    between atoms: C_2  and  N_15
REMARK    4  A    between atoms: N_18  and  S_19
REMARK    5  A    between atoms: S_19  and  C_22
REMARK    6  A    between atoms: C_25  and  C_26
REMARK    7  A    between atoms: C_26  and  C_27
REMARK    8  A    between atoms: C_26  and  C_28
REMARK    9  A    between atoms: C_26  and  C_29
REMARK                            x       y       z     vdW  Elec       q    Type
REMARK                         _______ _______ _______ _____ _____    ______ ____
ROOT
ATOM      1  N   UNL     1       0.773   9.533  19.791  0.00  0.00    +0.000 NA
ATOM      2  C   UNL     1      -0.556   9.718  20.402  0.00  0.00    +0.000 C 
ATOM      3  C   UNL     1      -0.748  10.992  21.253  0.00  0.00    +0.000 C 
ATOM      4  N   UNL     1      -0.236  12.223  20.574  0.00  0.00    +0.000 NA
ATOM      5  C   UNL     1       1.146  12.035  20.063  0.00  0.00    +0.000 C 
ATOM      6  C   UNL     1       1.256  10.782  19.183  0.00  0.00    +0.000 C 
ENDROOT
BRANCH   4   7
ATOM      7  S   UNL     1      -1.294  13.011  19.497  0.00  0.00    +0.000 S 
ATOM      8  O   UNL     1      -0.860  14.385  19.356  0.00  0.00    +0.000 OA
ATOM      9  O   UNL     1      -1.481  12.162  18.341  0.00  0.00    +0.000 OA
BRANCH   7  10
ATOM     10  C   UNL     1      -2.797  13.038  20.430  0.00  0.00    +0.000 A 
ATOM     11  C   UNL     1      -3.928  12.438  19.880  0.00  0.00    +0.000 A 
ATOM     12  C   UNL     1      -5.133  12.475  20.580  0.00  0.00    +0.000 A 
ATOM     13  C   UNL     1      -5.234  13.107  21.833  0.00  0.00    +0.000 A 
ATOM     14  C   UNL     1      -4.061  13.684  22.370  0.00  0.00    +0.000 A 
ATOM     15  C   UNL     1      -2.850  13.653  21.676  0.00  0.00    +0.000 A 
BRANCH  13  16
ATOM     16  C   UNL     1      -6.563  13.189  22.602  0.00  0.00    +0.000 C 
ATOM     17  C   UNL     1      -7.672  12.297  21.998  0.00  0.00    +0.000 C 
ATOM     18  C   UNL     1      -6.354  12.743  24.064  0.00  0.00    +0.000 C 
ATOM     19  C   UNL     1      -7.088  14.640  22.587  0.00  0.00    +0.000 C 
ENDBRANCH  13  16
ENDBRANCH   7  10
ENDBRANCH   4   7
BRANCH   1  21
ATOM     20  C   UNL     1       1.649   8.854  22.114  0.00  0.00    +0.000 C 
ATOM     21  C   UNL     1       1.775   8.793  20.590  0.00  0.00    +0.000 C 
BRANCH  21  22
ATOM     22  C   UNL     1       1.791   7.305  20.126  0.00  0.00    +0.000 C 
ATOM     23  O   UNL     1       1.371   6.415  20.872  0.00  0.00    +0.000 OA
ATOM     24  N   UNL     1       2.269   7.015  18.858  0.00  0.00    +0.000 N 
ATOM     25  C   UNL     1       2.745   7.983  17.873  0.00  0.00    +0.000 C 
ATOM     26  C   UNL     1       4.208   7.694  17.542  0.00  0.00    +0.000 C 
ATOM     27  C   UNL     1       4.410   6.251  17.164  0.00  0.00    +0.000 A 
ATOM     28  C   UNL     1       5.535   5.859  16.432  0.00  0.00    +0.000 A 
ATOM     29  C   UNL     1       5.706   4.519  16.102  0.00  0.00    +0.000 A 
ATOM     30  C   UNL     1       4.748   3.617  16.525  0.00  0.00    +0.000 A 
ATOM     31  N   UNL     1       3.661   3.954  17.252  0.00  0.00    +0.000 NA
ATOM     32  C   UNL     1       3.506   5.264  17.579  0.00  0.00    +0.000 A 
ATOM     33  C   UNL     1       2.276   5.624  18.397  0.00  0.00    +0.000 C 
ENDBRANCH  21  22
ENDBRANCH   1  21
TORSDOF 5
ENDMDL
MODEL 7
REMARK VINA RESULT:      -6.8      6.436     11.679
REMARK  Name = 
REMARK  9 active torsions:
REMARK  status: ('A' for Active; 'I' for Inactive)
REMARK    1  A    between atoms: C_1  and  C_2
REMARK    2  A    between atoms: C_2  and  C_3
REMARK    3  A    between atoms: C_2  and  N_15
REMARK    4  A    between atoms: N_18  and  S_19
REMARK    5  A    between atoms: S_19  and  C_22
REMARK    6  A    between atoms: C_25  and  C_26
REMARK    7  A    between atoms: C_26  and  C_27
REMARK    8  A    between atoms: C_26  and  C_28
REMARK    9  A    between atoms: C_26  and  C_29
REMARK                            x       y       z     vdW  Elec       q    Type
REMARK                         _______ _______ _______ _____ _____    ______ ____
ROOT
ATOM      1  N   UNL     1       1.866  15.493  19.969  0.00  0.00    +0.000 NA
ATOM      2  C   UNL     1       2.518  16.814  19.949  0.00  0.00    +0.000 C 
ATOM      3  C   UNL     1       3.933  16.890  20.565  0.00  0.00    +0.000 C 
ATOM      4  N   UNL     1       4.827  15.785  20.095  0.00  0.00    +0.000 NA
ATOM      5  C   UNL     1       4.175  14.457  20.228  0.00  0.00    +0.000 C 
ATOM      6  C   UNL     1       2.797  14.434  19.552  0.00  0.00    +0.000 C 
ENDROOT
BRANCH   4   7
ATOM      7  S   UNL     1       5.656  16.029  18.628  0.00  0.00    +0.000 S 
ATOM      8  O   UNL     1       4.797  15.605  17.543  0.00  0.00    +0.000 OA
ATOM      9  O   UNL     1       6.237  17.353  18.649  0.00  0.00    +0.000 OA
BRANCH   7  10
ATOM     10  C   UNL     1       6.957  14.836  18.752  0.00  0.00    +0.000 A 
ATOM     11  C   UNL     1       7.192  13.998  17.665  0.00  0.00    +0.000 A 
ATOM     12  C   UNL     1       8.189  13.027  17.750  0.00  0.00    +0.000 A 
ATOM     13  C   UNL     1       8.965  12.874  18.913  0.00  0.00    +0.000 A 
ATOM     14  C   UNL     1       8.715  13.757  19.987  0.00  0.00    +0.000 A 
ATOM     15  C   UNL     1       7.718  14.732  19.912  0.00  0.00    +0.000 A 
BRANCH  13  16
ATOM     16  C   UNL     1      10.044  11.784  19.037  0.00  0.00    +0.000 C 
ATOM     17  C   UNL     1      11.036  11.772  17.851  0.00  0.00    +0.000 C 
ATOM     18  C   UNL     1      10.864  12.000  20.326  0.00  0.00    +0.000 C 
ATOM     19  C   UNL     1       9.379  10.393  19.089  0.00  0.00    +0.000 C 
ENDBRANCH  13  16
ENDBRANCH   7  10
ENDBRANCH   4   7
BRANCH   1  21
ATOM     20  C   UNL     1       1.125  16.132  22.350  0.00  0.00    +0.000 C 
ATOM     21  C   UNL     1       1.043  15.175  21.158  0.00  0.00    +0.000 C 
BRANCH  21  22
ATOM     22  C   UNL     1      -0.443  15.016  20.716  0.00  0.00    +0.000 C 
ATOM     23  O   UNL     1      -0.927  15.779  19.873  0.00  0.00    +0.000 OA
ATOM     24  N   UNL     1      -1.192  13.995  21.278  0.00  0.00    +0.000 N 
ATOM     25  C   UNL     1      -0.716  13.007  22.243  0.00  0.00    +0.000 C 
ATOM     26  C   UNL     1      -1.522  13.131  23.535  0.00  0.00    +0.000 C 
ATOM     27  C   UNL     1      -3.002  13.093  23.263  0.00  0.00    +0.000 A 
ATOM     28  C   UNL     1      -3.904  12.767  24.282  0.00  0.00    +0.000 A 
ATOM     29  C   UNL     1      -5.267  12.748  24.012  0.00  0.00    +0.000 A 
ATOM     30  C   UNL     1      -5.681  13.065  22.731  0.00  0.00    +0.000 A 
ATOM     31  N   UNL     1      -4.843  13.407  21.729  0.00  0.00    +0.000 NA
ATOM     32  C   UNL     1      -3.513  13.432  22.004  0.00  0.00    +0.000 A 
ATOM     33  C   UNL     1      -2.586  13.818  20.862  0.00  0.00    +0.000 C 
ENDBRANCH  21  22
ENDBRANCH   1  21
TORSDOF 5
ENDMDL
MODEL 8
REMARK VINA RESULT:      -6.8      5.238     10.555
REMARK  Name = 
REMARK  9 active torsions:
REMARK  status: ('A' for Active; 'I' for Inactive)
REMARK    1  A    between atoms: C_1  and  C_2
REMARK    2  A    between atoms: C_2  and  C_3
REMARK    3  A    between atoms: C_2  and  N_15
REMARK    4  A    between atoms: N_18  and  S_19
REMARK    5  A    between atoms: S_19  and  C_22
REMARK    6  A    between atoms: C_25  and  C_26
REMARK    7  A    between atoms: C_26  and  C_27
REMARK    8  A    between atoms: C_26  and  C_28
REMARK    9  A    between atoms: C_26  and  C_29
REMARK                            x       y       z     vdW  Elec       q    Type
REMARK                         _______ _______ _______ _____ _____    ______ ____
ROOT
ATOM      1  N   UNL     1       0.367  14.648  19.974  0.00  0.00    +0.000 NA
ATOM      2  C   UNL     1      -0.556  13.853  19.145  0.00  0.00    +0.000 C 
ATOM      3  C   UNL     1       0.067  12.675  18.362  0.00  0.00    +0.000 C 
ATOM      4  N   UNL     1       0.972  11.835  19.206  0.00  0.00    +0.000 NA
ATOM      5  C   UNL     1       1.958  12.663  19.947  0.00  0.00    +0.000 C 
ATOM      6  C   UNL     1       1.271  13.781  20.744  0.00  0.00    +0.000 C 
ENDROOT
BRANCH   4   7
ATOM      7  S   UNL     1       0.249  10.596  20.124  0.00  0.00    +0.000 S 
ATOM      8  O   UNL     1       0.550  10.829  21.520  0.00  0.00    +0.000 OA
ATOM      9  O   UNL     1      -1.114  10.430  19.668  0.00  0.00    +0.000 OA
BRANCH   7  10
ATOM     10  C   UNL     1       1.191   9.185  19.621  0.00  0.00    +0.000 A 
ATOM     11  C   UNL     1       1.683   9.149  18.319  0.00  0.00    +0.000 A 
ATOM     12  C   UNL     1       2.400   8.033  17.888  0.00  0.00    +0.000 A 
ATOM     13  C   UNL     1       2.637   6.940  18.741  0.00  0.00    +0.000 A 
ATOM     14  C   UNL     1       2.143   7.022  20.061  0.00  0.00    +0.000 A 
ATOM     15  C   UNL     1       1.424   8.135  20.503  0.00  0.00    +0.000 A 
BRANCH  13  16
ATOM     16  C   UNL     1       3.394   5.686  18.270  0.00  0.00    +0.000 C 
ATOM     17  C   UNL     1       4.357   5.962  17.093  0.00  0.00    +0.000 C 
ATOM     18  C   UNL     1       4.232   5.111  19.431  0.00  0.00    +0.000 C 
ATOM     19  C   UNL     1       2.389   4.616  17.795  0.00  0.00    +0.000 C 
ENDBRANCH  13  16
ENDBRANCH   7  10
ENDBRANCH   4   7
BRANCH   1  21
ATOM     20  C   UNL     1       0.104  16.820  18.618  0.00  0.00    +0.000 C 
ATOM     21  C   UNL     1       1.012  15.810  19.323  0.00  0.00    +0.000 C 
BRANCH  21  22
ATOM     22  C   UNL     1       1.899  16.548  20.371  0.00  0.00    +0.000 C 
ATOM     23  O   UNL     1       1.384  17.308  21.198  0.00  0.00    +0.000 OA
ATOM     24  N   UNL     1       3.265  16.315  20.360  0.00  0.00    +0.000 N 
ATOM     25  C   UNL     1       3.977  15.405  19.466  0.00  0.00    +0.000 C 
ATOM     26  C   UNL     1       4.986  16.197  18.636  0.00  0.00    +0.000 C 
ATOM     27  C   UNL     1       5.866  17.050  19.509  0.00  0.00    +0.000 A 
ATOM     28  C   UNL     1       7.099  17.514  19.038  0.00  0.00    +0.000 A 
ATOM     29  C   UNL     1       7.891  18.310  19.858  0.00  0.00    +0.000 A 
ATOM     30  C   UNL     1       7.418  18.618  21.120  0.00  0.00    +0.000 A 
ATOM     31  N   UNL     1       6.224  18.208  21.601  0.00  0.00    +0.000 NA
ATOM     32  C   UNL     1       5.452  17.440  20.789  0.00  0.00    +0.000 A 
ATOM     33  C   UNL     1       4.113  16.986  21.349  0.00  0.00    +0.000 C 
ENDBRANCH  21  22
ENDBRANCH   1  21
TORSDOF 5
ENDMDL
MODEL 9
REMARK VINA RESULT:      -6.8      2.487     10.616
REMARK  Name = 
REMARK  9 active torsions:
REMARK  status: ('A' for Active; 'I' for Inactive)
REMARK    1  A    between atoms: C_1  and  C_2
REMARK    2  A    between atoms: C_2  and  C_3
REMARK    3  A    between atoms: C_2  and  N_15
REMARK    4  A    between atoms: N_18  and  S_19
REMARK    5  A    between atoms: S_19  and  C_22
REMARK    6  A    between atoms: C_25  and  C_26
REMARK    7  A    between atoms: C_26  and  C_27
REMARK    8  A    between atoms: C_26  and  C_28
REMARK    9  A    between atoms: C_26  and  C_29
REMARK                            x       y       z     vdW  Elec       q    Type
REMARK                         _______ _______ _______ _____ _____    ______ ____
ROOT
ATOM      1  N   UNL     1       0.076  12.973  20.300  0.00  0.00    +0.000 NA
ATOM      2  C   UNL     1       1.389  12.366  20.580  0.00  0.00    +0.000 C 
ATOM      3  C   UNL     1       1.389  10.861  20.929  0.00  0.00    +0.000 C 
ATOM      4  N   UNL     1       0.554  10.050  19.988  0.00  0.00    +0.000 NA
ATOM      5  C   UNL     1      -0.800  10.634  19.812  0.00  0.00    +0.000 C 
ATOM      6  C   UNL     1      -0.728  12.116  19.416  0.00  0.00    +0.000 C 
ENDROOT
BRANCH   4   7
ATOM      7  S   UNL     1       1.297   9.524  18.549  0.00  0.00    +0.000 S 
ATOM      8  O   UNL     1       0.287   9.455  17.514  0.00  0.00    +0.000 OA
ATOM      9  O   UNL     1       2.512  10.285  18.360  0.00  0.00    +0.000 OA
BRANCH   7  10
ATOM     10  C   UNL     1       1.728   7.858  18.959  0.00  0.00    +0.000 A 
ATOM     11  C   UNL     1       2.134   7.007  17.933  0.00  0.00    +0.000 A 
ATOM     12  C   UNL     1       2.446   5.680  18.225  0.00  0.00    +0.000 A 
ATOM     13  C   UNL     1       2.361   5.179  19.537  0.00  0.00    +0.000 A 
ATOM     14  C   UNL     1       1.970   6.076  20.555  0.00  0.00    +0.000 A 
ATOM     15  C   UNL     1       1.654   7.407  20.273  0.00  0.00    +0.000 A 
BRANCH  13  16
ATOM     16  C   UNL     1       2.668   3.709  19.871  0.00  0.00    +0.000 C 
ATOM     17  C   UNL     1       1.879   2.708  18.996  0.00  0.00    +0.000 C 
ATOM     18  C   UNL     1       4.170   3.424  19.664  0.00  0.00    +0.000 C 
ATOM     19  C   UNL     1       2.298   3.419  21.341  0.00  0.00    +0.000 C 
ENDBRANCH  13  16
ENDBRANCH   7  10
ENDBRANCH   4   7
BRANCH   1  21
ATOM     20  C   UNL     1       0.086  14.569  22.319  0.00  0.00    +0.000 C 
ATOM     21  C   UNL     1      -0.653  13.544  21.455  0.00  0.00    +0.000 C 
BRANCH  21  22
ATOM     22  C   UNL     1      -1.996  14.154  20.954  0.00  0.00    +0.000 C 
ATOM     23  O   UNL     1      -1.993  15.133  20.200  0.00  0.00    +0.000 OA
ATOM     24  N   UNL     1      -3.181  13.561  21.360  0.00  0.00    +0.000 N 
ATOM     25  C   UNL     1      -3.308  12.378  22.206  0.00  0.00    +0.000 C 
ATOM     26  C   UNL     1      -4.070  12.743  23.479  0.00  0.00    +0.000 C 
ATOM     27  C   UNL     1      -5.365  13.440  23.161  0.00  0.00    +0.000 A 
ATOM     28  C   UNL     1      -6.398  13.484  24.104  0.00  0.00    +0.000 A 
ATOM     29  C   UNL     1      -7.583  14.142  23.794  0.00  0.00    +0.000 A 
ATOM     30  C   UNL     1      -7.689  14.740  22.552  0.00  0.00    +0.000 A 
ATOM     31  N   UNL     1      -6.706  14.739  21.625  0.00  0.00    +0.000 NA
ATOM     32  C   UNL     1      -5.548  14.102  21.941  0.00  0.00    +0.000 A 
ATOM     33  C   UNL     1      -4.455  14.110  20.884  0.00  0.00    +0.000 C 
ENDBRANCH  21  22
ENDBRANCH   1  21
TORSDOF 5
ENDMDL
