MODEL 1
REMARK VINA RESULT:      -8.1      0.000      0.000
REMARK  Name = 
REMARK  3 active torsions:
REMARK  status: ('A' for Active; 'I' for Inactive)
REMARK    1  A    between atoms: O_1  and  C_2
REMARK    2  A    between atoms: C_8  and  C_9
REMARK    3  A    between atoms: N_12  and  C_13
REMARK                            x       y       z     vdW  Elec       q    Type
REMARK                         _______ _______ _______ _____ _____    ______ ____
ROOT
ATOM      1  C   UNL     1       2.333   6.446  19.210  0.00  0.00    +0.000 A 
ATOM      2  N   UNL     1       3.524   6.409  18.592  0.00  0.00    +0.000 NA
ATOM      3  C   UNL     1       4.040   5.211  18.279  0.00  0.00    +0.000 A 
ATOM      4  N   UNL     1       5.337   5.187  17.696  0.00  0.00    +0.000 N 
ATOM      5  C   UNL     1       3.330   4.015  18.508  0.00  0.00    +0.000 A 
ATOM      6  C   UNL     1       3.779   2.702  18.198  0.00  0.00    +0.000 A 
ATOM      7  C   UNL     1       3.022   1.585  18.549  0.00  0.00    +0.000 A 
ATOM      8  C   UNL     1       1.806   1.757  19.192  0.00  0.00    +0.000 A 
ATOM      9  C   UNL     1       1.350   3.047  19.469  0.00  0.00    +0.000 A 
ATOM     10  C   UNL     1       2.090   4.176  19.140  0.00  0.00    +0.000 A 
ATOM     11  N   UNL     1       1.590   5.364  19.475  0.00  0.00    +0.000 NA
ATOM     12  H   UNL     1       5.811   4.352  18.025  0.00  0.00    +0.000 HD
ENDROOT
BRANCH   1  19
ATOM     13  C   UNL     1       1.760   8.873  18.741  0.00  0.00    +0.000 A 
ATOM     14  C   UNL     1       1.277  10.115  19.166  0.00  0.00    +0.000 A 
ATOM     15  C   UNL     1       0.855  10.283  20.484  0.00  0.00    +0.000 A 
ATOM     16  C   UNL     1       0.917   9.210  21.366  0.00  0.00    +0.000 A 
ATOM     17 CL   UNL     1       0.378   9.410  22.987  0.00  0.00    +0.000 Cl
ATOM     18  C   UNL     1       1.405   7.975  20.944  0.00  0.00    +0.000 A 
ATOM     19  C   UNL     1       1.848   7.775  19.620  0.00  0.00    +0.000 A 
BRANCH  13  20
ATOM     20  O   UNL     1       2.105   8.730  17.423  0.00  0.00    +0.000 OA
ATOM     21  H   UNL     1       2.743   8.006  17.328  0.00  0.00    +0.000 HD
ENDBRANCH  13  20
ENDBRANCH   1  19
BRANCH   4  22
ATOM     22  C   UNL     1       6.119   6.376  18.069  0.00  0.00    +0.000 C 
ATOM     23  C   UNL     1       7.496   5.990  18.585  0.00  0.00    +0.000 C 
ATOM     24  C   UNL     1       8.208   7.325  18.518  0.00  0.00    +0.000 C 
ATOM     25  N   UNL     1       7.806   7.899  17.228  0.00  0.00    +0.000 NA
ATOM     26  C   UNL     1       6.479   7.311  16.906  0.00  0.00    +0.000 C 
ATOM     27  H   UNL     1       8.464   7.597  16.510  0.00  0.00    +0.000 HD
ENDBRANCH   4  22
TORSDOF 3
ENDMDL
MODEL 2
REMARK VINA RESULT:      -8.1      1.181      1.234
REMARK  Name = 
REMARK  3 active torsions:
REMARK  status: ('A' for Active; 'I' for Inactive)
REMARK    1  A    between atoms: O_1  and  C_2
REMARK    2  A    between atoms: C_8  and  C_9
REMARK    3  A    between atoms: N_12  and  C_13
REMARK                            x       y       z     vdW  Elec       q    Type
REMARK                         _______ _______ _______ _____ _____    ______ ____
ROOT
ATOM      1  C   UNL     1       2.350   6.667  19.679  0.00  0.00    +0.000 A 
ATOM      2  N   UNL     1       3.437   6.370  18.951  0.00  0.00    +0.000 NA
ATOM      3  C   UNL     1       3.967   5.143  19.073  0.00  0.00    +0.000 A 
ATOM      4  N   UNL     1       5.163   4.871  18.354  0.00  0.00    +0.000 N 
ATOM      5  C   UNL     1       3.365   4.152  19.876  0.00  0.00    +0.000 A 
ATOM      6  C   UNL     1       3.836   2.823  20.058  0.00  0.00    +0.000 A 
ATOM      7  C   UNL     1       3.202   1.954  20.945  0.00  0.00    +0.000 A 
ATOM      8  C   UNL     1       2.086   2.386  21.645  0.00  0.00    +0.000 A 
ATOM      9  C   UNL     1       1.605   3.682  21.444  0.00  0.00    +0.000 A 
ATOM     10  C   UNL     1       2.225   4.570  20.574  0.00  0.00    +0.000 A 
ATOM     11  N   UNL     1       1.714   5.796  20.473  0.00  0.00    +0.000 NA
ATOM     12  H   UNL     1       5.726   4.238  18.914  0.00  0.00    +0.000 HD
ENDROOT
BRANCH   1  19
ATOM     13  C   UNL     1       1.948   8.831  18.415  0.00  0.00    +0.000 A 
ATOM     14  C   UNL     1       1.453  10.138  18.363  0.00  0.00    +0.000 A 
ATOM     15  C   UNL     1       0.837  10.693  19.484  0.00  0.00    +0.000 A 
ATOM     16  C   UNL     1       0.722   9.940  20.647  0.00  0.00    +0.000 A 
ATOM     17 CL   UNL     1      -0.054  10.617  22.024  0.00  0.00    +0.000 Cl
ATOM     18  C   UNL     1       1.222   8.641  20.701  0.00  0.00    +0.000 A 
ATOM     19  C   UNL     1       1.857   8.053  19.587  0.00  0.00    +0.000 A 
BRANCH  13  20
ATOM     20  O   UNL     1       2.488   8.298  17.275  0.00  0.00    +0.000 OA
ATOM     21  H   UNL     1       1.901   7.611  16.925  0.00  0.00    +0.000 HD
ENDBRANCH  13  20
ENDBRANCH   1  19
BRANCH   4  22
ATOM     22  C   UNL     1       5.924   6.101  18.085  0.00  0.00    +0.000 C 
ATOM     23  C   UNL     1       7.282   6.067  18.767  0.00  0.00    +0.000 C 
ATOM     24  C   UNL     1       7.989   7.194  18.044  0.00  0.00    +0.000 C 
ATOM     25  N   UNL     1       7.633   7.015  16.631  0.00  0.00    +0.000 NA
ATOM     26  C   UNL     1       6.323   6.314  16.618  0.00  0.00    +0.000 C 
ATOM     27  H   UNL     1       8.320   6.403  16.191  0.00  0.00    +0.000 HD
ENDBRANCH   4  22
TORSDOF 3
ENDMDL
MODEL 3
REMARK VINA RESULT:      -7.8      2.257      4.632
REMARK  Name = 
REMARK  3 active torsions:
REMARK  status: ('A' for Active; 'I' for Inactive)
REMARK    1  A    between atoms: O_1  and  C_2
REMARK    2  A    between atoms: C_8  and  C_9
REMARK    3  A    between atoms: N_12  and  C_13
REMARK                            x       y       z     vdW  Elec       q    Type
REMARK                         _______ _______ _______ _____ _____    ______ ____
ROOT
ATOM      1  C   UNL     1       3.217   6.240  18.407  0.00  0.00    +0.000 A 
ATOM      2  N   UNL     1       3.191   4.971  18.844  0.00  0.00    +0.000 NA
ATOM      3  C   UNL     1       3.875   4.047  18.152  0.00  0.00    +0.000 A 
ATOM      4  N   UNL     1       3.774   2.696  18.584  0.00  0.00    +0.000 N 
ATOM      5  C   UNL     1       4.672   4.392  17.042  0.00  0.00    +0.000 A 
ATOM      6  C   UNL     1       5.445   3.495  16.255  0.00  0.00    +0.000 A 
ATOM      7  C   UNL     1       6.131   3.941  15.126  0.00  0.00    +0.000 A 
ATOM      8  C   UNL     1       6.073   5.281  14.776  0.00  0.00    +0.000 A 
ATOM      9  C   UNL     1       5.338   6.169  15.565  0.00  0.00    +0.000 A 
ATOM     10  C   UNL     1       4.639   5.748  16.689  0.00  0.00    +0.000 A 
ATOM     11  N   UNL     1       3.938   6.660  17.361  0.00  0.00    +0.000 NA
ATOM     12  H   UNL     1       3.810   2.102  17.760  0.00  0.00    +0.000 HD
ENDROOT
BRANCH   1  19
ATOM     13  C   UNL     1       1.940   6.998  20.465  0.00  0.00    +0.000 A 
ATOM     14  C   UNL     1       1.157   7.947  21.133  0.00  0.00    +0.000 A 
ATOM     15  C   UNL     1       0.806   9.134  20.492  0.00  0.00    +0.000 A 
ATOM     16  C   UNL     1       1.239   9.365  19.191  0.00  0.00    +0.000 A 
ATOM     17 CL   UNL     1       0.823  10.838  18.406  0.00  0.00    +0.000 Cl
ATOM     18  C   UNL     1       2.012   8.417  18.523  0.00  0.00    +0.000 A 
ATOM     19  C   UNL     1       2.378   7.203  19.141  0.00  0.00    +0.000 A 
BRANCH  13  20
ATOM     20  O   UNL     1       2.318   5.874  21.149  0.00  0.00    +0.000 OA
ATOM     21  H   UNL     1       3.266   5.719  21.026  0.00  0.00    +0.000 HD
ENDBRANCH  13  20
ENDBRANCH   1  19
BRANCH   4  22
ATOM     22  C   UNL     1       2.517   2.453  19.311  0.00  0.00    +0.000 C 
ATOM     23  C   UNL     1       2.679   2.731  20.796  0.00  0.00    +0.000 C 
ATOM     24  C   UNL     1       1.230   2.800  21.230  0.00  0.00    +0.000 C 
ATOM     25  N   UNL     1       0.563   3.587  20.186  0.00  0.00    +0.000 NA
ATOM     26  C   UNL     1       1.361   3.395  18.947  0.00  0.00    +0.000 C 
ATOM     27  H   UNL     1       0.606   4.574  20.436  0.00  0.00    +0.000 HD
ENDBRANCH   4  22
TORSDOF 3
ENDMDL
MODEL 4
REMARK VINA RESULT:      -7.7      1.930      4.401
REMARK  Name = 
REMARK  3 active torsions:
REMARK  status: ('A' for Active; 'I' for Inactive)
REMARK    1  A    between atoms: O_1  and  C_2
REMARK    2  A    between atoms: C_8  and  C_9
REMARK    3  A    between atoms: N_12  and  C_13
REMARK                            x       y       z     vdW  Elec       q    Type
REMARK                         _______ _______ _______ _____ _____    ______ ____
ROOT
ATOM      1  C   UNL     1       2.921   7.311  18.646  0.00  0.00    +0.000 A 
ATOM      2  N   UNL     1       3.062   6.208  19.397  0.00  0.00    +0.000 NA
ATOM      3  C   UNL     1       3.828   5.212  18.924  0.00  0.00    +0.000 A 
ATOM      4  N   UNL     1       3.904   4.020  19.696  0.00  0.00    +0.000 N 
ATOM      5  C   UNL     1       4.541   5.335  17.714  0.00  0.00    +0.000 A 
ATOM      6  C   UNL     1       5.389   4.350  17.138  0.00  0.00    +0.000 A 
ATOM      7  C   UNL     1       5.977   4.552  15.891  0.00  0.00    +0.000 A 
ATOM      8  C   UNL     1       5.748   5.738  15.211  0.00  0.00    +0.000 A 
ATOM      9  C   UNL     1       4.939   6.719  15.789  0.00  0.00    +0.000 A 
ATOM     10  C   UNL     1       4.333   6.538  17.026  0.00  0.00    +0.000 A 
ATOM     11  N   UNL     1       3.551   7.515  17.482  0.00  0.00    +0.000 NA
ATOM     12  H   UNL     1       3.983   3.237  19.054  0.00  0.00    +0.000 HD
ENDROOT
BRANCH   1  19
ATOM     13  C   UNL     1       1.589   9.457  18.404  0.00  0.00    +0.000 A 
ATOM     14  C   UNL     1       0.696  10.402  18.921  0.00  0.00    +0.000 A 
ATOM     15  C   UNL     1       0.178  10.240  20.204  0.00  0.00    +0.000 A 
ATOM     16  C   UNL     1       0.554   9.136  20.961  0.00  0.00    +0.000 A 
ATOM     17 CL   UNL     1      -0.100   8.924  22.538  0.00  0.00    +0.000 Cl
ATOM     18  C   UNL     1       1.449   8.199  20.449  0.00  0.00    +0.000 A 
ATOM     19  C   UNL     1       1.998   8.339  19.157  0.00  0.00    +0.000 A 
BRANCH  13  20
ATOM     20  O   UNL     1       2.026   9.618  17.116  0.00  0.00    +0.000 OA
ATOM     21  H   UNL     1       2.934   9.959  17.118  0.00  0.00    +0.000 HD
ENDBRANCH  13  20
ENDBRANCH   1  19
BRANCH   4  22
ATOM     22  C   UNL     1       2.711   3.846  20.540  0.00  0.00    +0.000 C 
ATOM     23  C   UNL     1       1.551   3.274  19.740  0.00  0.00    +0.000 C 
ATOM     24  C   UNL     1       0.629   2.833  20.857  0.00  0.00    +0.000 C 
ATOM     25  N   UNL     1       1.511   2.190  21.839  0.00  0.00    +0.000 NA
ATOM     26  C   UNL     1       2.851   2.807  21.661  0.00  0.00    +0.000 C 
ATOM     27  H   UNL     1       1.591   1.198  21.615  0.00  0.00    +0.000 HD
ENDBRANCH   4  22
TORSDOF 3
ENDMDL
MODEL 5
REMARK VINA RESULT:      -7.3      4.557      6.431
REMARK  Name = 
REMARK  3 active torsions:
REMARK  status: ('A' for Active; 'I' for Inactive)
REMARK    1  A    between atoms: O_1  and  C_2
REMARK    2  A    between atoms: C_8  and  C_9
REMARK    3  A    between atoms: N_12  and  C_13
REMARK                            x       y       z     vdW  Elec       q    Type
REMARK                         _______ _______ _______ _____ _____    ______ ____
ROOT
ATOM      1  C   UNL     1       5.329   4.111  15.863  0.00  0.00    +0.000 A 
ATOM      2  N   UNL     1       6.130   4.586  16.828  0.00  0.00    +0.000 NA
ATOM      3  C   UNL     1       5.633   4.696  18.070  0.00  0.00    +0.000 A 
ATOM      4  N   UNL     1       6.470   5.274  19.064  0.00  0.00    +0.000 N 
ATOM      5  C   UNL     1       4.333   4.252  18.390  0.00  0.00    +0.000 A 
ATOM      6  C   UNL     1       3.722   4.307  19.671  0.00  0.00    +0.000 A 
ATOM      7  C   UNL     1       2.396   3.914  19.851  0.00  0.00    +0.000 A 
ATOM      8  C   UNL     1       1.671   3.444  18.767  0.00  0.00    +0.000 A 
ATOM      9  C   UNL     1       2.280   3.360  17.513  0.00  0.00    +0.000 A 
ATOM     10  C   UNL     1       3.595   3.756  17.307  0.00  0.00    +0.000 A 
ATOM     11  N   UNL     1       4.081   3.672  16.069  0.00  0.00    +0.000 NA
ATOM     12  H   UNL     1       5.879   5.800  19.701  0.00  0.00    +0.000 HD
ENDROOT
BRANCH   1  19
ATOM     13  C   UNL     1       7.030   4.824  14.120  0.00  0.00    +0.000 A 
ATOM     14  C   UNL     1       7.535   4.769  12.816  0.00  0.00    +0.000 A 
ATOM     15  C   UNL     1       6.911   3.969  11.861  0.00  0.00    +0.000 A 
ATOM     16  C   UNL     1       5.787   3.229  12.215  0.00  0.00    +0.000 A 
ATOM     17 CL   UNL     1       5.027   2.226  11.043  0.00  0.00    +0.000 Cl
ATOM     18  C   UNL     1       5.279   3.290  13.511  0.00  0.00    +0.000 A 
ATOM     19  C   UNL     1       5.884   4.096  14.498  0.00  0.00    +0.000 A 
BRANCH  13  20
ATOM     20  O   UNL     1       7.708   5.571  15.045  0.00  0.00    +0.000 OA
ATOM     21  H   UNL     1       7.223   6.391  15.224  0.00  0.00    +0.000 HD
ENDBRANCH  13  20
ENDBRANCH   1  19
BRANCH   4  22
ATOM     22  C   UNL     1       7.474   6.172  18.470  0.00  0.00    +0.000 C 
ATOM     23  C   UNL     1       6.816   7.375  17.815  0.00  0.00    +0.000 C 
ATOM     24  C   UNL     1       8.009   8.293  17.649  0.00  0.00    +0.000 C 
ATOM     25  N   UNL     1       8.743   8.187  18.916  0.00  0.00    +0.000 NA
ATOM     26  C   UNL     1       8.419   6.846  19.472  0.00  0.00    +0.000 C 
ATOM     27  H   UNL     1       8.388   8.888  19.565  0.00  0.00    +0.000 HD
ENDBRANCH   4  22
TORSDOF 3
ENDMDL
MODEL 6
REMARK VINA RESULT:      -6.9      2.348      4.748
REMARK  Name = 
REMARK  3 active torsions:
REMARK  status: ('A' for Active; 'I' for Inactive)
REMARK    1  A    between atoms: O_1  and  C_2
REMARK    2  A    between atoms: C_8  and  C_9
REMARK    3  A    between atoms: N_12  and  C_13
REMARK                            x       y       z     vdW  Elec       q    Type
REMARK                         _______ _______ _______ _____ _____    ______ ____
ROOT
ATOM      1  C   UNL     1       3.051   7.179  18.479  0.00  0.00    +0.000 A 
ATOM      2  N   UNL     1       3.089   6.033  19.175  0.00  0.00    +0.000 NA
ATOM      3  C   UNL     1       3.783   5.003  18.666  0.00  0.00    +0.000 A 
ATOM      4  N   UNL     1       3.749   3.772  19.378  0.00  0.00    +0.000 N 
ATOM      5  C   UNL     1       4.527   5.127  17.475  0.00  0.00    +0.000 A 
ATOM      6  C   UNL     1       5.306   4.107  16.864  0.00  0.00    +0.000 A 
ATOM      7  C   UNL     1       5.933   4.322  15.637  0.00  0.00    +0.000 A 
ATOM      8  C   UNL     1       5.812   5.555  15.014  0.00  0.00    +0.000 A 
ATOM      9  C   UNL     1       5.072   6.568  15.629  0.00  0.00    +0.000 A 
ATOM     10  C   UNL     1       4.429   6.375  16.845  0.00  0.00    +0.000 A 
ATOM     11  N   UNL     1       3.718   7.388  17.337  0.00  0.00    +0.000 NA
ATOM     12  H   UNL     1       3.779   3.018  18.698  0.00  0.00    +0.000 HD
ENDROOT
BRANCH   1  19
ATOM     13  C   UNL     1       1.527   8.150  20.260  0.00  0.00    +0.000 A 
ATOM     14  C   UNL     1       0.743   9.199  20.753  0.00  0.00    +0.000 A 
ATOM     15  C   UNL     1       0.628  10.383  20.027  0.00  0.00    +0.000 A 
ATOM     16  C   UNL     1       1.297  10.511  18.815  0.00  0.00    +0.000 A 
ATOM     17 CL   UNL     1       1.172  11.979  17.927  0.00  0.00    +0.000 Cl
ATOM     18  C   UNL     1       2.072   9.464  18.320  0.00  0.00    +0.000 A 
ATOM     19  C   UNL     1       2.202   8.251  19.027  0.00  0.00    +0.000 A 
BRANCH  13  20
ATOM     20  O   UNL     1       1.666   7.028  21.032  0.00  0.00    +0.000 OA
ATOM     21  H   UNL     1       1.382   6.249  20.532  0.00  0.00    +0.000 HD
ENDBRANCH  13  20
ENDBRANCH   1  19
BRANCH   4  22
ATOM     22  C   UNL     1       2.529   3.653  20.192  0.00  0.00    +0.000 C 
ATOM     23  C   UNL     1       1.596   2.591  19.633  0.00  0.00    +0.000 C 
ATOM     24  C   UNL     1       0.663   2.387  20.808  0.00  0.00    +0.000 C 
ATOM     25  N   UNL     1       1.543   2.352  21.983  0.00  0.00    +0.000 NA
ATOM     26  C   UNL     1       2.748   3.145  21.624  0.00  0.00    +0.000 C 
ATOM     27  H   UNL     1       1.839   1.390  22.148  0.00  0.00    +0.000 HD
ENDBRANCH   4  22
TORSDOF 3
ENDMDL
MODEL 7
REMARK VINA RESULT:      -6.8      4.179      8.244
REMARK  Name = 
REMARK  3 active torsions:
REMARK  status: ('A' for Active; 'I' for Inactive)
REMARK    1  A    between atoms: O_1  and  C_2
REMARK    2  A    between atoms: C_8  and  C_9
REMARK    3  A    between atoms: N_12  and  C_13
REMARK                            x       y       z     vdW  Elec       q    Type
REMARK                         _______ _______ _______ _____ _____    ______ ____
ROOT
ATOM      1  C   UNL     1       0.334   9.912  19.712  0.00  0.00    +0.000 A 
ATOM      2  N   UNL     1      -0.402  10.496  18.754  0.00  0.00    +0.000 NA
ATOM      3  C   UNL     1      -1.340  11.382  19.126  0.00  0.00    +0.000 A 
ATOM      4  N   UNL     1      -2.163  11.932  18.105  0.00  0.00    +0.000 N 
ATOM      5  C   UNL     1      -1.506  11.765  20.472  0.00  0.00    +0.000 A 
ATOM      6  C   UNL     1      -2.454  12.703  20.965  0.00  0.00    +0.000 A 
ATOM      7  C   UNL     1      -2.583  12.940  22.332  0.00  0.00    +0.000 A 
ATOM      8  C   UNL     1      -1.762  12.266  23.223  0.00  0.00    +0.000 A 
ATOM      9  C   UNL     1      -0.810  11.366  22.739  0.00  0.00    +0.000 A 
ATOM     10  C   UNL     1      -0.669  11.105  21.382  0.00  0.00    +0.000 A 
ATOM     11  N   UNL     1       0.243  10.206  21.016  0.00  0.00    +0.000 NA
ATOM     12  H   UNL     1      -3.089  12.080  18.497  0.00  0.00    +0.000 HD
ENDROOT
BRANCH   1  19
ATOM     13  C   UNL     1       2.069   8.995  18.104  0.00  0.00    +0.000 A 
ATOM     14  C   UNL     1       2.974   7.996  17.727  0.00  0.00    +0.000 A 
ATOM     15  C   UNL     1       3.126   6.860  18.520  0.00  0.00    +0.000 A 
ATOM     16  C   UNL     1       2.374   6.729  19.682  0.00  0.00    +0.000 A 
ATOM     17 CL   UNL     1       2.575   5.336  20.671  0.00  0.00    +0.000 Cl
ATOM     18  C   UNL     1       1.467   7.720  20.054  0.00  0.00    +0.000 A 
ATOM     19  C   UNL     1       1.285   8.878  19.269  0.00  0.00    +0.000 A 
BRANCH  13  20
ATOM     20  O   UNL     1       1.995  10.124  17.334  0.00  0.00    +0.000 OA
ATOM     21  H   UNL     1       2.459   9.980  16.495  0.00  0.00    +0.000 HD
ENDBRANCH  13  20
ENDBRANCH   1  19
BRANCH   4  22
ATOM     22  C   UNL     1      -2.258  11.034  16.943  0.00  0.00    +0.000 C 
ATOM     23  C   UNL     1      -3.086   9.801  17.268  0.00  0.00    +0.000 C 
ATOM     24  C   UNL     1      -3.358   9.270  15.876  0.00  0.00    +0.000 C 
ATOM     25  N   UNL     1      -3.697  10.458  15.081  0.00  0.00    +0.000 NA
ATOM     26  C   UNL     1      -3.016  11.605  15.738  0.00  0.00    +0.000 C 
ATOM     27  H   UNL     1      -4.702  10.617  15.135  0.00  0.00    +0.000 HD
ENDBRANCH   4  22
TORSDOF 3
ENDMDL
MODEL 8
REMARK VINA RESULT:      -6.8      1.574      1.845
REMARK  Name = 
REMARK  3 active torsions:
REMARK  status: ('A' for Active; 'I' for Inactive)
REMARK    1  A    between atoms: O_1  and  C_2
REMARK    2  A    between atoms: C_8  and  C_9
REMARK    3  A    between atoms: N_12  and  C_13
REMARK                            x       y       z     vdW  Elec       q    Type
REMARK                         _______ _______ _______ _____ _____    ______ ____
ROOT
ATOM      1  C   UNL     1       2.367   6.595  18.943  0.00  0.00    +0.000 A 
ATOM      2  N   UNL     1       3.596   6.500  18.414  0.00  0.00    +0.000 NA
ATOM      3  C   UNL     1       4.096   5.275  18.185  0.00  0.00    +0.000 A 
ATOM      4  N   UNL     1       5.429   5.192  17.696  0.00  0.00    +0.000 N 
ATOM      5  C   UNL     1       3.335   4.110  18.410  0.00  0.00    +0.000 A 
ATOM      6  C   UNL     1       3.763   2.774  18.184  0.00  0.00    +0.000 A 
ATOM      7  C   UNL     1       2.950   1.693  18.523  0.00  0.00    +0.000 A 
ATOM      8  C   UNL     1       1.698   1.926  19.071  0.00  0.00    +0.000 A 
ATOM      9  C   UNL     1       1.264   3.239  19.265  0.00  0.00    +0.000 A 
ATOM     10  C   UNL     1       2.059   4.332  18.945  0.00  0.00    +0.000 A 
ATOM     11  N   UNL     1       1.574   5.547  19.197  0.00  0.00    +0.000 NA
ATOM     12  H   UNL     1       5.853   4.357  18.091  0.00  0.00    +0.000 HD
ENDROOT
BRANCH   1  19
ATOM     13  C   UNL     1       1.194   8.270  20.446  0.00  0.00    +0.000 A 
ATOM     14  C   UNL     1       0.778   9.577  20.723  0.00  0.00    +0.000 A 
ATOM     15  C   UNL     1       1.070  10.604  19.827  0.00  0.00    +0.000 A 
ATOM     16  C   UNL     1       1.774  10.319  18.663  0.00  0.00    +0.000 A 
ATOM     17 CL   UNL     1       2.152  11.589  17.566  0.00  0.00    +0.000 Cl
ATOM     18  C   UNL     1       2.182   9.016  18.383  0.00  0.00    +0.000 A 
ATOM     19  C   UNL     1       1.895   7.953  19.265  0.00  0.00    +0.000 A 
BRANCH  13  20
ATOM     20  O   UNL     1       0.945   7.300  21.380  0.00  0.00    +0.000 OA
ATOM     21  H   UNL     1       0.770   6.456  20.938  0.00  0.00    +0.000 HD
ENDBRANCH  13  20
ENDBRANCH   1  19
BRANCH   4  22
ATOM     22  C   UNL     1       6.220   6.373  18.077  0.00  0.00    +0.000 C 
ATOM     23  C   UNL     1       7.592   5.973  18.593  0.00  0.00    +0.000 C 
ATOM     24  C   UNL     1       8.314   7.303  18.535  0.00  0.00    +0.000 C 
ATOM     25  N   UNL     1       7.918   7.888  17.248  0.00  0.00    +0.000 NA
ATOM     26  C   UNL     1       6.588   7.312  16.921  0.00  0.00    +0.000 C 
ATOM     27  H   UNL     1       8.576   7.585  16.529  0.00  0.00    +0.000 HD
ENDBRANCH   4  22
TORSDOF 3
ENDMDL
MODEL 9
REMARK VINA RESULT:      -6.8      6.428      8.789
REMARK  Name = 
REMARK  3 active torsions:
REMARK  status: ('A' for Active; 'I' for Inactive)
REMARK    1  A    between atoms: O_1  and  C_2
REMARK    2  A    between atoms: C_8  and  C_9
REMARK    3  A    between atoms: N_12  and  C_13
REMARK                            x       y       z     vdW  Elec       q    Type
REMARK                         _______ _______ _______ _____ _____    ______ ____
ROOT
ATOM      1  C   UNL     1      -3.642  12.373  19.860  0.00  0.00    +0.000 A 
ATOM      2  N   UNL     1      -2.397  11.911  20.054  0.00  0.00    +0.000 NA
ATOM      3  C   UNL     1      -1.831  11.181  19.080  0.00  0.00    +0.000 A 
ATOM      4  N   UNL     1      -0.543  10.634  19.333  0.00  0.00    +0.000 N 
ATOM      5  C   UNL     1      -2.477  10.965  17.846  0.00  0.00    +0.000 A 
ATOM      6  C   UNL     1      -1.960  10.224  16.748  0.00  0.00    +0.000 A 
ATOM      7  C   UNL     1      -2.727  10.006  15.605  0.00  0.00    +0.000 A 
ATOM      8  C   UNL     1      -4.006  10.535  15.530  0.00  0.00    +0.000 A 
ATOM      9  C   UNL     1      -4.505  11.288  16.595  0.00  0.00    +0.000 A 
ATOM     10  C   UNL     1      -3.764  11.510  17.749  0.00  0.00    +0.000 A 
ATOM     11  N   UNL     1      -4.336  12.212  18.726  0.00  0.00    +0.000 NA
ATOM     12  H   UNL     1      -0.489   9.734  18.865  0.00  0.00    +0.000 HD
ENDROOT
BRANCH   1  19
ATOM     13  C   UNL     1      -5.026  14.261  20.840  0.00  0.00    +0.000 A 
ATOM     14  C   UNL     1      -5.610  14.900  21.938  0.00  0.00    +0.000 A 
ATOM     15  C   UNL     1      -5.453  14.368  23.217  0.00  0.00    +0.000 A 
ATOM     16  C   UNL     1      -4.714  13.203  23.389  0.00  0.00    +0.000 A 
ATOM     17 CL   UNL     1      -4.535  12.535  24.964  0.00  0.00    +0.000 Cl
ATOM     18  C   UNL     1      -4.125  12.570  22.296  0.00  0.00    +0.000 A 
ATOM     19  C   UNL     1      -4.259  13.087  20.990  0.00  0.00    +0.000 A 
BRANCH  13  20
ATOM     20  O   UNL     1      -5.256  14.777  19.593  0.00  0.00    +0.000 OA
ATOM     21  H   UNL     1      -6.198  14.700  19.375  0.00  0.00    +0.000 HD
ENDBRANCH  13  20
ENDBRANCH   1  19
BRANCH   4  22
ATOM     22  C   UNL     1      -0.307  10.454  20.774  0.00  0.00    +0.000 C 
ATOM     23  C   UNL     1      -0.358   8.984  21.160  0.00  0.00    +0.000 C 
ATOM     24  C   UNL     1       0.283   9.030  22.532  0.00  0.00    +0.000 C 
ATOM     25  N   UNL     1       1.433   9.930  22.378  0.00  0.00    +0.000 NA
ATOM     26  C   UNL     1       1.094  10.849  21.260  0.00  0.00    +0.000 C 
ATOM     27  H   UNL     1       2.247   9.384  22.098  0.00  0.00    +0.000 HD
ENDBRANCH   4  22
TORSDOF 3
ENDMDL
