MODEL 1
REMARK VINA RESULT:      -8.2      0.000      0.000
REMARK  Name = 
REMARK  7 active torsions:
REMARK  status: ('A' for Active; 'I' for Inactive)
REMARK    1  A    between atoms: C_1  and  S_2
REMARK    2  A    between atoms: S_2  and  C_3
REMARK    3  A    between atoms: C_8  and  C_9
REMARK    4  A    between atoms: N_11  and  C_12
REMARK    5  A    between atoms: C_12  and  C_13
REMARK    6  A    between atoms: C_12  and  C_14
REMARK    7  A    between atoms: C_18  and  N_19
REMARK                            x       y       z     vdW  Elec       q    Type
REMARK                         _______ _______ _______ _____ _____    ______ ____
ROOT
ATOM      1  C   UNL     1       2.938   6.004  18.640  0.00  0.00    +0.000 C 
ATOM      2  C   UNL     1       3.585   5.587  19.962  0.00  0.00    +0.000 C 
ENDROOT
BRANCH   1   3
ATOM      3  C   UNL     1       2.333   7.398  18.723  0.00  0.00    +0.000 A 
ATOM      4  C   UNL     1       2.507   8.288  17.655  0.00  0.00    +0.000 A 
ATOM      5  C   UNL     1       1.940   9.559  17.693  0.00  0.00    +0.000 A 
ATOM      6  C   UNL     1       1.217   9.978  18.811  0.00  0.00    +0.000 A 
ATOM      7  C   UNL     1       1.068   9.143  19.921  0.00  0.00    +0.000 A 
ATOM      8  C   UNL     1       1.600   7.840  19.844  0.00  0.00    +0.000 A 
BRANCH   7   9
ATOM      9  N   UNL     1       0.468   9.609  21.119  0.00  0.00    +0.000 N 
ATOM     10  C   UNL     1      -0.333   8.779  21.962  0.00  0.00    +0.000 C 
ATOM     11  C   UNL     1      -0.360   9.532  23.264  0.00  0.00    +0.000 C 
ATOM     12  O   UNL     1      -0.008  10.872  22.929  0.00  0.00    +0.000 OA
ATOM     13  C   UNL     1       0.609  10.862  21.702  0.00  0.00    +0.000 C 
ATOM     14  O   UNL     1       1.161  11.855  21.261  0.00  0.00    +0.000 OA
ENDBRANCH   7   9
ENDBRANCH   1   3
BRANCH   1  17
ATOM     15  C   UNL     1       4.459   4.745  17.111  0.00  0.00    +0.000 C 
ATOM     16  O   UNL     1       4.189   3.649  17.585  0.00  0.00    +0.000 OA
ATOM     17  N   UNL     1       3.928   5.924  17.576  0.00  0.00    +0.000 N 
ATOM     18  H   UNL     1       4.164   6.783  17.099  0.00  0.00    +0.000 HD
BRANCH  15  24
ATOM     19  C   UNL     1       6.659   5.616  16.091  0.00  0.00    +0.000 A 
ATOM     20  N   UNL     1       7.588   5.595  15.098  0.00  0.00    +0.000 NA
ATOM     21  C   UNL     1       7.344   4.832  14.011  0.00  0.00    +0.000 A 
ATOM     22  C   UNL     1       6.197   4.085  13.846  0.00  0.00    +0.000 A 
ATOM     23  C   UNL     1       5.256   4.098  14.871  0.00  0.00    +0.000 A 
ATOM     24  C   UNL     1       5.487   4.851  16.033  0.00  0.00    +0.000 A 
BRANCH  19  26
ATOM     25  C   UNL     1       7.667   5.446  18.664  0.00  0.00    +0.000 C 
ATOM     26  S   UNL     1       7.088   6.676  17.470  0.00  0.00    +0.000 S 
ENDBRANCH  19  26
ENDBRANCH  15  24
ENDBRANCH   1  17
TORSDOF 5
ENDMDL
MODEL 2
REMARK VINA RESULT:      -7.9      4.019      8.382
REMARK  Name = 
REMARK  7 active torsions:
REMARK  status: ('A' for Active; 'I' for Inactive)
REMARK    1  A    between atoms: C_1  and  S_2
REMARK    2  A    between atoms: S_2  and  C_3
REMARK    3  A    between atoms: C_8  and  C_9
REMARK    4  A    between atoms: N_11  and  C_12
REMARK    5  A    between atoms: C_12  and  C_13
REMARK    6  A    between atoms: C_12  and  C_14
REMARK    7  A    between atoms: C_18  and  N_19
REMARK                            x       y       z     vdW  Elec       q    Type
REMARK                         _______ _______ _______ _____ _____    ______ ____
ROOT
ATOM      1  C   UNL     1       1.164   9.282  20.147  0.00  0.00    +0.000 C 
ATOM      2  C   UNL     1       0.943   9.095  21.648  0.00  0.00    +0.000 C 
ENDROOT
BRANCH   1   3
ATOM      3  C   UNL     1       1.841   8.071  19.520  0.00  0.00    +0.000 A 
ATOM      4  C   UNL     1       2.599   8.233  18.353  0.00  0.00    +0.000 A 
ATOM      5  C   UNL     1       3.251   7.148  17.776  0.00  0.00    +0.000 A 
ATOM      6  C   UNL     1       3.132   5.873  18.333  0.00  0.00    +0.000 A 
ATOM      7  C   UNL     1       2.340   5.657  19.463  0.00  0.00    +0.000 A 
ATOM      8  C   UNL     1       1.732   6.776  20.068  0.00  0.00    +0.000 A 
BRANCH   7   9
ATOM      9  N   UNL     1       2.090   4.348  19.949  0.00  0.00    +0.000 N 
ATOM     10  C   UNL     1       2.381   3.947  21.289  0.00  0.00    +0.000 C 
ATOM     11  C   UNL     1       1.566   2.694  21.460  0.00  0.00    +0.000 C 
ATOM     12  O   UNL     1       1.284   2.247  20.136  0.00  0.00    +0.000 OA
ATOM     13  C   UNL     1       1.474   3.301  19.275  0.00  0.00    +0.000 C 
ATOM     14  O   UNL     1       1.137   3.235  18.106  0.00  0.00    +0.000 OA
ENDBRANCH   7   9
ENDBRANCH   1   3
BRANCH   1  17
ATOM     15  C   UNL     1      -0.369  10.686  18.761  0.00  0.00    +0.000 C 
ATOM     16  O   UNL     1       0.439  11.593  18.611  0.00  0.00    +0.000 OA
ATOM     17  N   UNL     1      -0.113   9.559  19.506  0.00  0.00    +0.000 N 
ATOM     18  H   UNL     1      -0.816   8.833  19.540  0.00  0.00    +0.000 HD
BRANCH  15  24
ATOM     19  C   UNL     1      -2.763  11.637  18.713  0.00  0.00    +0.000 A 
ATOM     20  N   UNL     1      -3.968  11.769  18.096  0.00  0.00    +0.000 NA
ATOM     21  C   UNL     1      -4.188  11.059  16.968  0.00  0.00    +0.000 A 
ATOM     22  C   UNL     1      -3.263  10.196  16.417  0.00  0.00    +0.000 A 
ATOM     23  C   UNL     1      -2.028  10.075  17.045  0.00  0.00    +0.000 A 
ATOM     24  C   UNL     1      -1.746  10.822  18.200  0.00  0.00    +0.000 A 
BRANCH  19  26
ATOM     25  C   UNL     1      -4.337  12.819  20.660  0.00  0.00    +0.000 C 
ATOM     26  S   UNL     1      -2.597  12.613  20.206  0.00  0.00    +0.000 S 
ENDBRANCH  19  26
ENDBRANCH  15  24
ENDBRANCH   1  17
TORSDOF 5
ENDMDL
MODEL 3
REMARK VINA RESULT:      -7.9      3.719      8.381
REMARK  Name = 
REMARK  7 active torsions:
REMARK  status: ('A' for Active; 'I' for Inactive)
REMARK    1  A    between atoms: C_1  and  S_2
REMARK    2  A    between atoms: S_2  and  C_3
REMARK    3  A    between atoms: C_8  and  C_9
REMARK    4  A    between atoms: N_11  and  C_12
REMARK    5  A    between atoms: C_12  and  C_13
REMARK    6  A    between atoms: C_12  and  C_14
REMARK    7  A    between atoms: C_18  and  N_19
REMARK                            x       y       z     vdW  Elec       q    Type
REMARK                         _______ _______ _______ _____ _____    ______ ____
ROOT
ATOM      1  C   UNL     1       1.310   9.031  20.108  0.00  0.00    +0.000 C 
ATOM      2  C   UNL     1       1.044   8.529  21.528  0.00  0.00    +0.000 C 
ENDROOT
BRANCH   1   3
ATOM      3  C   UNL     1       2.103   8.020  19.291  0.00  0.00    +0.000 A 
ATOM      4  C   UNL     1       2.657   8.409  18.065  0.00  0.00    +0.000 A 
ATOM      5  C   UNL     1       3.410   7.513  17.312  0.00  0.00    +0.000 A 
ATOM      6  C   UNL     1       3.597   6.202  17.752  0.00  0.00    +0.000 A 
ATOM      7  C   UNL     1       3.014   5.756  18.940  0.00  0.00    +0.000 A 
ATOM      8  C   UNL     1       2.301   6.691  19.719  0.00  0.00    +0.000 A 
BRANCH   7   9
ATOM      9  N   UNL     1       3.069   4.391  19.322  0.00  0.00    +0.000 N 
ATOM     10  C   UNL     1       1.903   3.602  19.562  0.00  0.00    +0.000 C 
ATOM     11  C   UNL     1       2.418   2.191  19.487  0.00  0.00    +0.000 C 
ATOM     12  O   UNL     1       3.825   2.295  19.686  0.00  0.00    +0.000 OA
ATOM     13  C   UNL     1       4.200   3.593  19.443  0.00  0.00    +0.000 C 
ATOM     14  O   UNL     1       5.374   3.914  19.376  0.00  0.00    +0.000 OA
ENDBRANCH   7   9
ENDBRANCH   1   3
BRANCH   1  17
ATOM     15  C   UNL     1      -0.198  10.505  18.769  0.00  0.00    +0.000 C 
ATOM     16  O   UNL     1       0.619  11.412  18.667  0.00  0.00    +0.000 OA
ATOM     17  N   UNL     1       0.042   9.345  19.466  0.00  0.00    +0.000 N 
ATOM     18  H   UNL     1      -0.666   8.623  19.461  0.00  0.00    +0.000 HD
BRANCH  15  24
ATOM     19  C   UNL     1      -2.556  11.538  18.688  0.00  0.00    +0.000 A 
ATOM     20  N   UNL     1      -3.754  11.697  18.063  0.00  0.00    +0.000 NA
ATOM     21  C   UNL     1      -3.995  10.968  16.952  0.00  0.00    +0.000 A 
ATOM     22  C   UNL     1      -3.100  10.060  16.425  0.00  0.00    +0.000 A 
ATOM     23  C   UNL     1      -1.872   9.912  17.061  0.00  0.00    +0.000 A 
ATOM     24  C   UNL     1      -1.567  10.675  18.199  0.00  0.00    +0.000 A 
BRANCH  19  26
ATOM     25  C   UNL     1      -4.092  12.906  20.541  0.00  0.00    +0.000 C 
ATOM     26  S   UNL     1      -2.362  12.543  20.158  0.00  0.00    +0.000 S 
ENDBRANCH  19  26
ENDBRANCH  15  24
ENDBRANCH   1  17
TORSDOF 5
ENDMDL
MODEL 4
REMARK VINA RESULT:      -7.7      1.833      3.200
REMARK  Name = 
REMARK  7 active torsions:
REMARK  status: ('A' for Active; 'I' for Inactive)
REMARK    1  A    between atoms: C_1  and  S_2
REMARK    2  A    between atoms: S_2  and  C_3
REMARK    3  A    between atoms: C_8  and  C_9
REMARK    4  A    between atoms: N_11  and  C_12
REMARK    5  A    between atoms: C_12  and  C_13
REMARK    6  A    between atoms: C_12  and  C_14
REMARK    7  A    between atoms: C_18  and  N_19
REMARK                            x       y       z     vdW  Elec       q    Type
REMARK                         _______ _______ _______ _____ _____    ______ ____
ROOT
ATOM      1  C   UNL     1       2.518   3.080  17.697  0.00  0.00    +0.000 C 
ATOM      2  C   UNL     1       2.947   1.735  18.284  0.00  0.00    +0.000 C 
ENDROOT
BRANCH   1   3
ATOM      3  C   UNL     1       2.276   4.119  18.783  0.00  0.00    +0.000 A 
ATOM      4  C   UNL     1       1.978   3.697  20.085  0.00  0.00    +0.000 A 
ATOM      5  C   UNL     1       1.779   4.625  21.103  0.00  0.00    +0.000 A 
ATOM      6  C   UNL     1       1.841   5.993  20.833  0.00  0.00    +0.000 A 
ATOM      7  C   UNL     1       2.078   6.458  19.538  0.00  0.00    +0.000 A 
ATOM      8  C   UNL     1       2.332   5.505  18.530  0.00  0.00    +0.000 A 
BRANCH   7   9
ATOM      9  N   UNL     1       1.995   7.838  19.223  0.00  0.00    +0.000 N 
ATOM     10  C   UNL     1       2.543   8.399  18.029  0.00  0.00    +0.000 C 
ATOM     11  C   UNL     1       1.844   9.726  17.917  0.00  0.00    +0.000 C 
ATOM     12  O   UNL     1       1.356  10.004  19.227  0.00  0.00    +0.000 OA
ATOM     13  C   UNL     1       1.329   8.828  19.935  0.00  0.00    +0.000 C 
ATOM     14  O   UNL     1       0.792   8.757  21.027  0.00  0.00    +0.000 OA
ENDBRANCH   7   9
ENDBRANCH   1   3
BRANCH   1  17
ATOM     15  C   UNL     1       4.834   3.792  17.093  0.00  0.00    +0.000 C 
ATOM     16  O   UNL     1       5.262   3.714  18.238  0.00  0.00    +0.000 OA
ATOM     17  N   UNL     1       3.528   3.535  16.752  0.00  0.00    +0.000 N 
ATOM     18  H   UNL     1       3.266   3.573  15.777  0.00  0.00    +0.000 HD
BRANCH  15  24
ATOM     19  C   UNL     1       6.831   5.129  16.165  0.00  0.00    +0.000 A 
ATOM     20  N   UNL     1       7.648   5.464  15.129  0.00  0.00    +0.000 NA
ATOM     21  C   UNL     1       7.355   4.980  13.903  0.00  0.00    +0.000 A 
ATOM     22  C   UNL     1       6.265   4.176  13.641  0.00  0.00    +0.000 A 
ATOM     23  C   UNL     1       5.441   3.826  14.705  0.00  0.00    +0.000 A 
ATOM     24  C   UNL     1       5.729   4.280  16.002  0.00  0.00    +0.000 A 
BRANCH  19  26
ATOM     25  C   UNL     1       7.229   7.608  17.332  0.00  0.00    +0.000 C 
ATOM     26  S   UNL     1       7.312   5.846  17.734  0.00  0.00    +0.000 S 
ENDBRANCH  19  26
ENDBRANCH  15  24
ENDBRANCH   1  17
TORSDOF 5
ENDMDL
MODEL 5
REMARK VINA RESULT:      -7.7      2.672      8.734
REMARK  Name = 
REMARK  7 active torsions:
REMARK  status: ('A' for Active; 'I' for Inactive)
REMARK    1  A    between atoms: C_1  and  S_2
REMARK    2  A    between atoms: S_2  and  C_3
REMARK    3  A    between atoms: C_8  and  C_9
REMARK    4  A    between atoms: N_11  and  C_12
REMARK    5  A    between atoms: C_12  and  C_13
REMARK    6  A    between atoms: C_12  and  C_14
REMARK    7  A    between atoms: C_18  and  N_19
REMARK                            x       y       z     vdW  Elec       q    Type
REMARK                         _______ _______ _______ _____ _____    ______ ____
ROOT
ATOM      1  C   UNL     1       2.105   8.007  18.238  0.00  0.00    +0.000 C 
ATOM      2  C   UNL     1       3.005   9.006  17.510  0.00  0.00    +0.000 C 
ENDROOT
BRANCH   1   3
ATOM      3  C   UNL     1       2.845   6.720  18.572  0.00  0.00    +0.000 A 
ATOM      4  C   UNL     1       2.481   5.993  19.713  0.00  0.00    +0.000 A 
ATOM      5  C   UNL     1       3.123   4.798  20.026  0.00  0.00    +0.000 A 
ATOM      6  C   UNL     1       4.162   4.323  19.225  0.00  0.00    +0.000 A 
ATOM      7  C   UNL     1       4.595   5.045  18.111  0.00  0.00    +0.000 A 
ATOM      8  C   UNL     1       3.898   6.224  17.776  0.00  0.00    +0.000 A 
BRANCH   7   9
ATOM      9  N   UNL     1       5.745   4.652  17.378  0.00  0.00    +0.000 N 
ATOM     10  C   UNL     1       5.688   4.207  16.022  0.00  0.00    +0.000 C 
ATOM     11  C   UNL     1       7.112   4.340  15.555  0.00  0.00    +0.000 C 
ATOM     12  O   UNL     1       7.895   4.380  16.745  0.00  0.00    +0.000 OA
ATOM     13  C   UNL     1       7.069   4.706  17.793  0.00  0.00    +0.000 C 
ATOM     14  O   UNL     1       7.517   4.973  18.895  0.00  0.00    +0.000 OA
ENDBRANCH   7   9
ENDBRANCH   1   3
BRANCH   1  17
ATOM     15  C   UNL     1       0.514   9.511  19.441  0.00  0.00    +0.000 C 
ATOM     16  O   UNL     1      -0.046   9.895  18.422  0.00  0.00    +0.000 OA
ATOM     17  N   UNL     1       1.570   8.632  19.440  0.00  0.00    +0.000 N 
ATOM     18  H   UNL     1       1.946   8.325  20.327  0.00  0.00    +0.000 HD
BRANCH  15  24
ATOM     19  C   UNL     1       0.100  11.439  21.098  0.00  0.00    +0.000 A 
ATOM     20  N   UNL     1      -0.355  11.885  22.301  0.00  0.00    +0.000 NA
ATOM     21  C   UNL     1      -0.772  10.971  23.203  0.00  0.00    +0.000 A 
ATOM     22  C   UNL     1      -0.748   9.610  22.978  0.00  0.00    +0.000 A 
ATOM     23  C   UNL     1      -0.295   9.161  21.742  0.00  0.00    +0.000 A 
ATOM     24  C   UNL     1       0.116  10.079  20.763  0.00  0.00    +0.000 A 
BRANCH  19  26
ATOM     25  C   UNL     1      -0.944  13.248  19.280  0.00  0.00    +0.000 C 
ATOM     26  S   UNL     1       0.640  12.743  19.995  0.00  0.00    +0.000 S 
ENDBRANCH  19  26
ENDBRANCH  15  24
ENDBRANCH   1  17
TORSDOF 5
ENDMDL
MODEL 6
REMARK VINA RESULT:      -7.7      3.729      8.734
REMARK  Name = 
REMARK  7 active torsions:
REMARK  status: ('A' for Active; 'I' for Inactive)
REMARK    1  A    between atoms: C_1  and  S_2
REMARK    2  A    between atoms: S_2  and  C_3
REMARK    3  A    between atoms: C_8  and  C_9
REMARK    4  A    between atoms: N_11  and  C_12
REMARK    5  A    between atoms: C_12  and  C_13
REMARK    6  A    between atoms: C_12  and  C_14
REMARK    7  A    between atoms: C_18  and  N_19
REMARK                            x       y       z     vdW  Elec       q    Type
REMARK                         _______ _______ _______ _____ _____    ______ ____
ROOT
ATOM      1  C   UNL     1       0.707   9.889  20.921  0.00  0.00    +0.000 C 
ATOM      2  C   UNL     1       0.569   9.309  22.330  0.00  0.00    +0.000 C 
ENDROOT
BRANCH   1   3
ATOM      3  C   UNL     1       1.373   8.906  19.969  0.00  0.00    +0.000 A 
ATOM      4  C   UNL     1       1.527   9.252  18.620  0.00  0.00    +0.000 A 
ATOM      5  C   UNL     1       2.157   8.384  17.734  0.00  0.00    +0.000 A 
ATOM      6  C   UNL     1       2.616   7.139  18.169  0.00  0.00    +0.000 A 
ATOM      7  C   UNL     1       2.430   6.730  19.492  0.00  0.00    +0.000 A 
ATOM      8  C   UNL     1       1.840   7.644  20.389  0.00  0.00    +0.000 A 
BRANCH   7   9
ATOM      9  N   UNL     1       2.754   5.414  19.909  0.00  0.00    +0.000 N 
ATOM     10  C   UNL     1       1.877   4.611  20.701  0.00  0.00    +0.000 C 
ATOM     11  C   UNL     1       2.415   3.219  20.510  0.00  0.00    +0.000 C 
ATOM     12  O   UNL     1       3.753   3.394  20.054  0.00  0.00    +0.000 OA
ATOM     13  C   UNL     1       3.881   4.675  19.573  0.00  0.00    +0.000 C 
ATOM     14  O   UNL     1       4.877   5.029  18.967  0.00  0.00    +0.000 OA
ENDBRANCH   7   9
ENDBRANCH   1   3
BRANCH   1  17
ATOM     15  C   UNL     1      -0.868  11.479  19.812  0.00  0.00    +0.000 C 
ATOM     16  O   UNL     1      -0.026  12.355  19.654  0.00  0.00    +0.000 OA
ATOM     17  N   UNL     1      -0.608  10.282  20.435  0.00  0.00    +0.000 N 
ATOM     18  H   UNL     1      -1.344   9.591  20.481  0.00  0.00    +0.000 HD
BRANCH  15  24
ATOM     19  C   UNL     1      -2.903  11.230  18.252  0.00  0.00    +0.000 A 
ATOM     20  N   UNL     1      -4.222  11.437  17.992  0.00  0.00    +0.000 NA
ATOM     21  C   UNL     1      -4.936  12.181  18.864  0.00  0.00    +0.000 A 
ATOM     22  C   UNL     1      -4.397  12.753  19.998  0.00  0.00    +0.000 A 
ATOM     23  C   UNL     1      -3.051  12.526  20.267  0.00  0.00    +0.000 A 
ATOM     24  C   UNL     1      -2.282  11.731  19.403  0.00  0.00    +0.000 A 
BRANCH  19  26
ATOM     25  C   UNL     1      -2.896  10.816  15.515  0.00  0.00    +0.000 C 
ATOM     26  S   UNL     1      -2.061  10.245  17.015  0.00  0.00    +0.000 S 
ENDBRANCH  19  26
ENDBRANCH  15  24
ENDBRANCH   1  17
TORSDOF 5
ENDMDL
MODEL 7
REMARK VINA RESULT:      -7.7      0.789      1.217
REMARK  Name = 
REMARK  7 active torsions:
REMARK  status: ('A' for Active; 'I' for Inactive)
REMARK    1  A    between atoms: C_1  and  S_2
REMARK    2  A    between atoms: S_2  and  C_3
REMARK    3  A    between atoms: C_8  and  C_9
REMARK    4  A    between atoms: N_11  and  C_12
REMARK    5  A    between atoms: C_12  and  C_13
REMARK    6  A    between atoms: C_12  and  C_14
REMARK    7  A    between atoms: C_18  and  N_19
REMARK                            x       y       z     vdW  Elec       q    Type
REMARK                         _______ _______ _______ _____ _____    ______ ____
ROOT
ATOM      1  C   UNL     1       2.736   6.225  18.687  0.00  0.00    +0.000 C 
ATOM      2  C   UNL     1       3.271   5.767  20.045  0.00  0.00    +0.000 C 
ENDROOT
BRANCH   1   3
ATOM      3  C   UNL     1       2.186   7.643  18.747  0.00  0.00    +0.000 A 
ATOM      4  C   UNL     1       2.408   8.513  17.672  0.00  0.00    +0.000 A 
ATOM      5  C   UNL     1       1.893   9.806  17.688  0.00  0.00    +0.000 A 
ATOM      6  C   UNL     1       1.174  10.266  18.793  0.00  0.00    +0.000 A 
ATOM      7  C   UNL     1       0.979   9.452  19.910  0.00  0.00    +0.000 A 
ATOM      8  C   UNL     1       1.459   8.127  19.854  0.00  0.00    +0.000 A 
BRANCH   7   9
ATOM      9  N   UNL     1       0.384   9.955  21.095  0.00  0.00    +0.000 N 
ATOM     10  C   UNL     1       0.482  11.323  21.495  0.00  0.00    +0.000 C 
ATOM     11  C   UNL     1      -0.626  11.470  22.502  0.00  0.00    +0.000 C 
ATOM     12  O   UNL     1      -0.925  10.142  22.925  0.00  0.00    +0.000 OA
ATOM     13  C   UNL     1      -0.428   9.268  21.990  0.00  0.00    +0.000 C 
ATOM     14  O   UNL     1      -0.697   8.080  22.024  0.00  0.00    +0.000 OA
ENDBRANCH   7   9
ENDBRANCH   1   3
BRANCH   1  17
ATOM     15  C   UNL     1       4.185   4.927  17.121  0.00  0.00    +0.000 C 
ATOM     16  O   UNL     1       3.716   3.839  17.433  0.00  0.00    +0.000 OA
ATOM     17  N   UNL     1       3.793   6.113  17.693  0.00  0.00    +0.000 N 
ATOM     18  H   UNL     1       4.193   6.974  17.345  0.00  0.00    +0.000 HD
BRANCH  15  24
ATOM     19  C   UNL     1       6.494   5.720  16.300  0.00  0.00    +0.000 A 
ATOM     20  N   UNL     1       7.507   5.664  15.394  0.00  0.00    +0.000 NA
ATOM     21  C   UNL     1       7.336   4.903  14.291  0.00  0.00    +0.000 A 
ATOM     22  C   UNL     1       6.184   4.192  14.026  0.00  0.00    +0.000 A 
ATOM     23  C   UNL     1       5.156   4.242  14.963  0.00  0.00    +0.000 A 
ATOM     24  C   UNL     1       5.308   4.993  16.139  0.00  0.00    +0.000 A 
BRANCH  19  26
ATOM     25  C   UNL     1       7.670   5.601  18.804  0.00  0.00    +0.000 C 
ATOM     26  S   UNL     1       6.833   6.773  17.709  0.00  0.00    +0.000 S 
ENDBRANCH  19  26
ENDBRANCH  15  24
ENDBRANCH   1  17
TORSDOF 5
ENDMDL
MODEL 8
REMARK VINA RESULT:      -7.5      3.358      8.325
REMARK  Name = 
REMARK  7 active torsions:
REMARK  status: ('A' for Active; 'I' for Inactive)
REMARK    1  A    between atoms: C_1  and  S_2
REMARK    2  A    between atoms: S_2  and  C_3
REMARK    3  A    between atoms: C_8  and  C_9
REMARK    4  A    between atoms: N_11  and  C_12
REMARK    5  A    between atoms: C_12  and  C_13
REMARK    6  A    between atoms: C_12  and  C_14
REMARK    7  A    between atoms: C_18  and  N_19
REMARK                            x       y       z     vdW  Elec       q    Type
REMARK                         _______ _______ _______ _____ _____    ______ ____
ROOT
ATOM      1  C   UNL     1       1.438   8.851  20.630  0.00  0.00    +0.000 C 
ATOM      2  C   UNL     1       1.232   9.005  22.138  0.00  0.00    +0.000 C 
ENDROOT
BRANCH   1   3
ATOM      3  C   UNL     1       1.850   7.434  20.259  0.00  0.00    +0.000 A 
ATOM      4  C   UNL     1       1.227   6.349  20.888  0.00  0.00    +0.000 A 
ATOM      5  C   UNL     1       1.565   5.042  20.547  0.00  0.00    +0.000 A 
ATOM      6  C   UNL     1       2.555   4.794  19.595  0.00  0.00    +0.000 A 
ATOM      7  C   UNL     1       3.243   5.846  18.986  0.00  0.00    +0.000 A 
ATOM      8  C   UNL     1       2.850   7.163  19.301  0.00  0.00    +0.000 A 
BRANCH   7   9
ATOM      9  N   UNL     1       4.351   5.607  18.133  0.00  0.00    +0.000 N 
ATOM     10  C   UNL     1       4.537   6.287  16.891  0.00  0.00    +0.000 C 
ATOM     11  C   UNL     1       5.993   6.060  16.587  0.00  0.00    +0.000 C 
ATOM     12  O   UNL     1       6.369   4.935  17.377  0.00  0.00    +0.000 OA
ATOM     13  C   UNL     1       5.439   4.779  18.375  0.00  0.00    +0.000 C 
ATOM     14  O   UNL     1       5.617   3.995  19.292  0.00  0.00    +0.000 OA
ENDBRANCH   7   9
ENDBRANCH   1   3
BRANCH   1  17
ATOM     15  C   UNL     1       0.169  10.200  18.955  0.00  0.00    +0.000 C 
ATOM     16  O   UNL     1       1.140  10.858  18.604  0.00  0.00    +0.000 OA
ATOM     17  N   UNL     1       0.218   9.241  19.938  0.00  0.00    +0.000 N 
ATOM     18  H   UNL     1      -0.617   8.707  20.135  0.00  0.00    +0.000 HD
BRANCH  15  24
ATOM     19  C   UNL     1      -2.091  11.434  18.862  0.00  0.00    +0.000 A 
ATOM     20  N   UNL     1      -3.263  11.704  18.225  0.00  0.00    +0.000 NA
ATOM     21  C   UNL     1      -3.552  11.013  17.102  0.00  0.00    +0.000 A 
ATOM     22  C   UNL     1      -2.732  10.038  16.573  0.00  0.00    +0.000 A 
ATOM     23  C   UNL     1      -1.528   9.776  17.220  0.00  0.00    +0.000 A 
ATOM     24  C   UNL     1      -1.174  10.496  18.372  0.00  0.00    +0.000 A 
BRANCH  19  26
ATOM     25  C   UNL     1      -0.838  13.761  19.684  0.00  0.00    +0.000 C 
ATOM     26  S   UNL     1      -1.828  12.400  20.347  0.00  0.00    +0.000 S 
ENDBRANCH  19  26
ENDBRANCH  15  24
ENDBRANCH   1  17
TORSDOF 5
ENDMDL
MODEL 9
REMARK VINA RESULT:      -7.4      2.061      3.468
REMARK  Name = 
REMARK  7 active torsions:
REMARK  status: ('A' for Active; 'I' for Inactive)
REMARK    1  A    between atoms: C_1  and  S_2
REMARK    2  A    between atoms: S_2  and  C_3
REMARK    3  A    between atoms: C_8  and  C_9
REMARK    4  A    between atoms: N_11  and  C_12
REMARK    5  A    between atoms: C_12  and  C_13
REMARK    6  A    between atoms: C_12  and  C_14
REMARK    7  A    between atoms: C_18  and  N_19
REMARK                            x       y       z     vdW  Elec       q    Type
REMARK                         _______ _______ _______ _____ _____    ______ ____
ROOT
ATOM      1  C   UNL     1       4.145   2.496  19.147  0.00  0.00    +0.000 C 
ATOM      2  C   UNL     1       5.040   1.991  20.280  0.00  0.00    +0.000 C 
ENDROOT
BRANCH   1   3
ATOM      3  C   UNL     1       3.066   3.440  19.658  0.00  0.00    +0.000 A 
ATOM      4  C   UNL     1       1.969   2.918  20.356  0.00  0.00    +0.000 A 
ATOM      5  C   UNL     1       0.983   3.762  20.858  0.00  0.00    +0.000 A 
ATOM      6  C   UNL     1       1.055   5.139  20.645  0.00  0.00    +0.000 A 
ATOM      7  C   UNL     1       2.101   5.695  19.905  0.00  0.00    +0.000 A 
ATOM      8  C   UNL     1       3.120   4.834  19.451  0.00  0.00    +0.000 A 
BRANCH   7   9
ATOM      9  N   UNL     1       2.106   7.070  19.553  0.00  0.00    +0.000 N 
ATOM     10  C   UNL     1       2.549   7.546  18.281  0.00  0.00    +0.000 C 
ATOM     11  C   UNL     1       1.968   8.931  18.209  0.00  0.00    +0.000 C 
ATOM     12  O   UNL     1       1.677   9.287  19.558  0.00  0.00    +0.000 OA
ATOM     13  C   UNL     1       1.630   8.136  20.306  0.00  0.00    +0.000 C 
ATOM     14  O   UNL     1       1.230   8.143  21.458  0.00  0.00    +0.000 OA
ENDBRANCH   7   9
ENDBRANCH   1   3
BRANCH   1  17
ATOM     15  C   UNL     1       4.492   3.590  16.929  0.00  0.00    +0.000 C 
ATOM     16  O   UNL     1       3.332   3.442  16.565  0.00  0.00    +0.000 OA
ATOM     17  N   UNL     1       4.970   3.140  18.136  0.00  0.00    +0.000 N 
ATOM     18  H   UNL     1       5.929   3.345  18.383  0.00  0.00    +0.000 HD
BRANCH  15  24
ATOM     19  C   UNL     1       6.311   5.297  16.284  0.00  0.00    +0.000 A 
ATOM     20  N   UNL     1       7.251   5.744  15.409  0.00  0.00    +0.000 NA
ATOM     21  C   UNL     1       7.359   5.122  14.215  0.00  0.00    +0.000 A 
ATOM     22  C   UNL     1       6.559   4.068  13.829  0.00  0.00    +0.000 A 
ATOM     23  C   UNL     1       5.608   3.605  14.733  0.00  0.00    +0.000 A 
ATOM     24  C   UNL     1       5.486   4.201  15.998  0.00  0.00    +0.000 A 
BRANCH  19  26
ATOM     25  C   UNL     1       7.683   5.509  18.679  0.00  0.00    +0.000 C 
ATOM     26  S   UNL     1       6.252   6.211  17.823  0.00  0.00    +0.000 S 
ENDBRANCH  19  26
ENDBRANCH  15  24
ENDBRANCH   1  17
TORSDOF 5
ENDMDL
