MODEL 1
REMARK VINA RESULT:      -8.7      0.000      0.000
REMARK  Name = 
REMARK  7 active torsions:
REMARK  status: ('A' for Active; 'I' for Inactive)
REMARK    1  A    between atoms: C_1  and  C_2
REMARK    2  A    between atoms: C_5  and  N_6
REMARK    3  A    between atoms: C_7  and  C_9
REMARK    4  A    between atoms: C_17  and  C_18
REMARK    5  A    between atoms: C_21  and  C_22
REMARK    6  A    between atoms: N_24  and  C_25
REMARK    7  A    between atoms: C_25  and  C_26
REMARK                            x       y       z     vdW  Elec       q    Type
REMARK                         _______ _______ _______ _____ _____    ______ ____
ROOT
ATOM      1  C   UNL     1       1.990   4.905  21.169  0.00  0.00    +0.000 C 
ATOM      2  C   UNL     1       2.726   4.846  19.854  0.00  0.00    +0.000 A 
ATOM      3  C   UNL     1       3.352   3.619  19.568  0.00  0.00    +0.000 A 
ATOM      4  C   UNL     1       4.017   3.404  18.366  0.00  0.00    +0.000 A 
ATOM      5  C   UNL     1       4.090   4.408  17.410  0.00  0.00    +0.000 A 
ATOM      6  C   UNL     1       3.530   5.662  17.715  0.00  0.00    +0.000 A 
ATOM      7  C   UNL     1       2.824   5.919  18.928  0.00  0.00    +0.000 A 
ENDROOT
BRANCH   7   8
ATOM      8  C   UNL     1       2.214   7.272  19.146  0.00  0.00    +0.000 A 
ATOM      9  C   UNL     1       2.076   8.200  18.090  0.00  0.00    +0.000 A 
ATOM     10  C   UNL     1       1.522   9.477  18.285  0.00  0.00    +0.000 A 
ATOM     11  C   UNL     1       1.052   9.849  19.546  0.00  0.00    +0.000 A 
ATOM     12  C   UNL     1       1.150   8.946  20.600  0.00  0.00    +0.000 A 
ATOM     13  C   UNL     1       1.758   7.700  20.407  0.00  0.00    +0.000 A 
BRANCH  11  14
ATOM     14  C   UNL     1       0.443  11.176  19.812  0.00  0.00    +0.000 C 
ATOM     15  O   UNL     1       1.089  12.203  19.622  0.00  0.00    +0.000 OA
ATOM     16  N   UNL     1      -0.874  11.171  20.215  0.00  0.00    +0.000 N 
ATOM     17  H   UNL     1      -1.410  10.316  20.168  0.00  0.00    +0.000 HD
BRANCH  16  18
ATOM     18  C   UNL     1      -1.576  12.413  20.424  0.00  0.00    +0.000 C 
BRANCH  18  19
ATOM     19  C   UNL     1      -1.607  12.741  21.882  0.00  0.00    +0.000 C 
ATOM     20  C   UNL     1      -2.842  12.492  22.715  0.00  0.00    +0.000 C 
ATOM     21  C   UNL     1      -1.623  11.634  22.905  0.00  0.00    +0.000 C 
ENDBRANCH  18  19
ENDBRANCH  16  18
ENDBRANCH  11  14
ENDBRANCH   7   8
BRANCH   5  22
ATOM     22  N   UNL     1       4.707   4.213  16.144  0.00  0.00    +0.000 N 
ATOM     23  C   UNL     1       5.978   4.657  15.811  0.00  0.00    +0.000 C 
ATOM     24  O   UNL     1       6.781   5.203  16.561  0.00  0.00    +0.000 OA
ATOM     25  H   UNL     1       4.234   3.586  15.507  0.00  0.00    +0.000 HD
BRANCH  23  26
ATOM     26  C   UNL     1       6.444   4.401  14.423  0.00  0.00    +0.000 A 
ATOM     27  C   UNL     1       7.371   5.298  13.878  0.00  0.00    +0.000 A 
ATOM     28  C   UNL     1       7.746   5.135  12.559  0.00  0.00    +0.000 A 
ATOM     29  N   UNL     1       7.267   4.155  11.771  0.00  0.00    +0.000 NA
ATOM     30  C   UNL     1       6.364   3.318  12.323  0.00  0.00    +0.000 A 
ATOM     31 CL   UNL     1       5.752   2.129  11.251  0.00  0.00    +0.000 Cl
ATOM     32  C   UNL     1       5.921   3.384  13.633  0.00  0.00    +0.000 A 
ENDBRANCH  23  26
ENDBRANCH   5  22
TORSDOF 6
ENDMDL
MODEL 2
REMARK VINA RESULT:      -8.5      3.296     10.218
REMARK  Name = 
REMARK  7 active torsions:
REMARK  status: ('A' for Active; 'I' for Inactive)
REMARK    1  A    between atoms: C_1  and  C_2
REMARK    2  A    between atoms: C_5  and  N_6
REMARK    3  A    between atoms: C_7  and  C_9
REMARK    4  A    between atoms: C_17  and  C_18
REMARK    5  A    between atoms: C_21  and  C_22
REMARK    6  A    between atoms: N_24  and  C_25
REMARK    7  A    between atoms: C_25  and  C_26
REMARK                            x       y       z     vdW  Elec       q    Type
REMARK                         _______ _______ _______ _____ _____    ______ ____
ROOT
ATOM      1  C   UNL     1       4.365   1.931  19.824  0.00  0.00    +0.000 C 
ATOM      2  C   UNL     1       3.569   3.193  20.045  0.00  0.00    +0.000 A 
ATOM      3  C   UNL     1       2.730   3.187  21.174  0.00  0.00    +0.000 A 
ATOM      4  C   UNL     1       1.982   4.303  21.532  0.00  0.00    +0.000 A 
ATOM      5  C   UNL     1       2.038   5.463  20.770  0.00  0.00    +0.000 A 
ATOM      6  C   UNL     1       2.817   5.456  19.600  0.00  0.00    +0.000 A 
ATOM      7  C   UNL     1       3.612   4.339  19.206  0.00  0.00    +0.000 A 
ENDROOT
BRANCH   7   8
ATOM      8  C   UNL     1       4.454   4.439  17.969  0.00  0.00    +0.000 A 
ATOM      9  C   UNL     1       4.064   3.825  16.758  0.00  0.00    +0.000 A 
ATOM     10  C   UNL     1       4.853   3.896  15.596  0.00  0.00    +0.000 A 
ATOM     11  C   UNL     1       6.045   4.621  15.605  0.00  0.00    +0.000 A 
ATOM     12  C   UNL     1       6.442   5.260  16.776  0.00  0.00    +0.000 A 
ATOM     13  C   UNL     1       5.679   5.132  17.943  0.00  0.00    +0.000 A 
BRANCH  11  14
ATOM     14  C   UNL     1       6.913   4.748  14.408  0.00  0.00    +0.000 C 
ATOM     15  O   UNL     1       7.956   5.394  14.465  0.00  0.00    +0.000 OA
ATOM     16  N   UNL     1       6.509   4.059  13.286  0.00  0.00    +0.000 N 
ATOM     17  H   UNL     1       5.753   3.392  13.353  0.00  0.00    +0.000 HD
BRANCH  16  18
ATOM     18  C   UNL     1       7.325   4.057  12.098  0.00  0.00    +0.000 C 
BRANCH  18  19
ATOM     19  C   UNL     1       6.778   3.082  11.106  0.00  0.00    +0.000 C 
ATOM     20  C   UNL     1       7.250   1.648  11.075  0.00  0.00    +0.000 C 
ATOM     21  C   UNL     1       5.866   1.971  11.563  0.00  0.00    +0.000 C 
ENDBRANCH  18  19
ENDBRANCH  16  18
ENDBRANCH  11  14
ENDBRANCH   7   8
BRANCH   5  22
ATOM     22  N   UNL     1       1.338   6.647  21.132  0.00  0.00    +0.000 N 
ATOM     23  C   UNL     1       1.494   7.876  20.506  0.00  0.00    +0.000 C 
ATOM     24  O   UNL     1       2.181   8.111  19.517  0.00  0.00    +0.000 OA
ATOM     25  H   UNL     1       0.581   6.536  21.792  0.00  0.00    +0.000 HD
BRANCH  23  26
ATOM     26  C   UNL     1       0.710   9.017  21.048  0.00  0.00    +0.000 A 
ATOM     27  C   UNL     1       0.507   9.059  22.433  0.00  0.00    +0.000 A 
ATOM     28  C   UNL     1      -0.296  10.056  22.950  0.00  0.00    +0.000 A 
ATOM     29  N   UNL     1      -0.893  10.991  22.187  0.00  0.00    +0.000 NA
ATOM     30  C   UNL     1      -0.690  10.911  20.856  0.00  0.00    +0.000 A 
ATOM     31 CL   UNL     1      -1.523  12.096  19.939  0.00  0.00    +0.000 Cl
ATOM     32  C   UNL     1       0.099   9.960  20.232  0.00  0.00    +0.000 A 
ENDBRANCH  23  26
ENDBRANCH   5  22
TORSDOF 6
ENDMDL
MODEL 3
REMARK VINA RESULT:      -8.5      3.347     10.550
REMARK  Name = 
REMARK  7 active torsions:
REMARK  status: ('A' for Active; 'I' for Inactive)
REMARK    1  A    between atoms: C_1  and  C_2
REMARK    2  A    between atoms: C_5  and  N_6
REMARK    3  A    between atoms: C_7  and  C_9
REMARK    4  A    between atoms: C_17  and  C_18
REMARK    5  A    between atoms: C_21  and  C_22
REMARK    6  A    between atoms: N_24  and  C_25
REMARK    7  A    between atoms: C_25  and  C_26
REMARK                            x       y       z     vdW  Elec       q    Type
REMARK                         _______ _______ _______ _____ _____    ______ ____
ROOT
ATOM      1  C   UNL     1       2.807   2.945  19.290  0.00  0.00    +0.000 C 
ATOM      2  C   UNL     1       2.478   4.394  19.547  0.00  0.00    +0.000 A 
ATOM      3  C   UNL     1       1.574   4.629  20.599  0.00  0.00    +0.000 A 
ATOM      4  C   UNL     1       1.225   5.919  20.984  0.00  0.00    +0.000 A 
ATOM      5  C   UNL     1       1.759   7.020  20.327  0.00  0.00    +0.000 A 
ATOM      6  C   UNL     1       2.607   6.795  19.229  0.00  0.00    +0.000 A 
ATOM      7  C   UNL     1       3.003   5.490  18.812  0.00  0.00    +0.000 A 
ENDROOT
BRANCH   7   8
ATOM      8  C   UNL     1       3.954   5.346  17.660  0.00  0.00    +0.000 A 
ATOM      9  C   UNL     1       4.566   6.471  17.063  0.00  0.00    +0.000 A 
ATOM     10  C   UNL     1       5.445   6.352  15.972  0.00  0.00    +0.000 A 
ATOM     11  C   UNL     1       5.767   5.090  15.470  0.00  0.00    +0.000 A 
ATOM     12  C   UNL     1       5.201   3.962  16.056  0.00  0.00    +0.000 A 
ATOM     13  C   UNL     1       4.281   4.097  17.102  0.00  0.00    +0.000 A 
BRANCH  11  14
ATOM     14  C   UNL     1       6.699   4.897  14.331  0.00  0.00    +0.000 C 
ATOM     15  O   UNL     1       7.779   5.483  14.309  0.00  0.00    +0.000 OA
ATOM     16  N   UNL     1       6.306   3.995  13.367  0.00  0.00    +0.000 N 
ATOM     17  H   UNL     1       5.505   3.402  13.533  0.00  0.00    +0.000 HD
BRANCH  16  18
ATOM     18  C   UNL     1       7.177   3.682  12.263  0.00  0.00    +0.000 C 
BRANCH  18  19
ATOM     19  C   UNL     1       6.443   2.864  11.251  0.00  0.00    +0.000 C 
ATOM     20  C   UNL     1       6.984   1.537  10.775  0.00  0.00    +0.000 C 
ATOM     21  C   UNL     1       5.772   1.577  11.663  0.00  0.00    +0.000 C 
ENDBRANCH  18  19
ENDBRANCH  16  18
ENDBRANCH  11  14
ENDBRANCH   7   8
BRANCH   5  22
ATOM     22  N   UNL     1       1.477   8.356  20.726  0.00  0.00    +0.000 N 
ATOM     23  C   UNL     1       0.300   8.763  21.337  0.00  0.00    +0.000 C 
ATOM     24  O   UNL     1      -0.627   8.042  21.693  0.00  0.00    +0.000 OA
ATOM     25  H   UNL     1       2.248   9.008  20.686  0.00  0.00    +0.000 HD
BRANCH  23  26
ATOM     26  C   UNL     1       0.161  10.211  21.644  0.00  0.00    +0.000 A 
ATOM     27  C   UNL     1      -0.773  10.576  22.622  0.00  0.00    +0.000 A 
ATOM     28  C   UNL     1      -0.987  11.919  22.857  0.00  0.00    +0.000 A 
ATOM     29  N   UNL     1      -0.342  12.897  22.194  0.00  0.00    +0.000 NA
ATOM     30  C   UNL     1       0.538  12.510  21.247  0.00  0.00    +0.000 A 
ATOM     31 CL   UNL     1       1.283  13.803  20.402  0.00  0.00    +0.000 Cl
ATOM     32  C   UNL     1       0.836  11.196  20.932  0.00  0.00    +0.000 A 
ENDBRANCH  23  26
ENDBRANCH   5  22
TORSDOF 6
ENDMDL
MODEL 4
REMARK VINA RESULT:      -8.5      5.467     11.597
REMARK  Name = 
REMARK  7 active torsions:
REMARK  status: ('A' for Active; 'I' for Inactive)
REMARK    1  A    between atoms: C_1  and  C_2
REMARK    2  A    between atoms: C_5  and  N_6
REMARK    3  A    between atoms: C_7  and  C_9
REMARK    4  A    between atoms: C_17  and  C_18
REMARK    5  A    between atoms: C_21  and  C_22
REMARK    6  A    between atoms: N_24  and  C_25
REMARK    7  A    between atoms: C_25  and  C_26
REMARK                            x       y       z     vdW  Elec       q    Type
REMARK                         _______ _______ _______ _____ _____    ______ ____
ROOT
ATOM      1  C   UNL     1       2.534  12.496  18.180  0.00  0.00    +0.000 C 
ATOM      2  C   UNL     1       1.116  12.435  18.691  0.00  0.00    +0.000 A 
ATOM      3  C   UNL     1       0.446  13.670  18.756  0.00  0.00    +0.000 A 
ATOM      4  C   UNL     1      -0.883  13.757  19.154  0.00  0.00    +0.000 A 
ATOM      5  C   UNL     1      -1.589  12.615  19.510  0.00  0.00    +0.000 A 
ATOM      6  C   UNL     1      -0.908  11.385  19.518  0.00  0.00    +0.000 A 
ATOM      7  C   UNL     1       0.450  11.249  19.101  0.00  0.00    +0.000 A 
ENDROOT
BRANCH   7   8
ATOM      8  C   UNL     1       1.081   9.889  19.092  0.00  0.00    +0.000 A 
ATOM      9  C   UNL     1       1.633   9.338  17.914  0.00  0.00    +0.000 A 
ATOM     10  C   UNL     1       2.211   8.057  17.887  0.00  0.00    +0.000 A 
ATOM     11  C   UNL     1       2.286   7.301  19.058  0.00  0.00    +0.000 A 
ATOM     12  C   UNL     1       1.775   7.828  20.241  0.00  0.00    +0.000 A 
ATOM     13  C   UNL     1       1.148   9.080  20.241  0.00  0.00    +0.000 A 
BRANCH  11  14
ATOM     14  C   UNL     1       2.898   5.950  19.099  0.00  0.00    +0.000 C 
ATOM     15  O   UNL     1       4.012   5.789  19.593  0.00  0.00    +0.000 OA
ATOM     16  N   UNL     1       2.127   4.916  18.616  0.00  0.00    +0.000 N 
ATOM     17  H   UNL     1       1.152   5.075  18.403  0.00  0.00    +0.000 HD
BRANCH  16  18
ATOM     18  C   UNL     1       2.603   3.558  18.684  0.00  0.00    +0.000 C 
BRANCH  18  19
ATOM     19  C   UNL     1       1.837   2.801  19.721  0.00  0.00    +0.000 C 
ATOM     20  C   UNL     1       2.316   2.727  21.151  0.00  0.00    +0.000 C 
ATOM     21  C   UNL     1       1.102   3.543  20.809  0.00  0.00    +0.000 C 
ENDBRANCH  18  19
ENDBRANCH  16  18
ENDBRANCH  11  14
ENDBRANCH   7   8
BRANCH   5  22
ATOM     22  N   UNL     1      -2.965  12.649  19.865  0.00  0.00    +0.000 N 
ATOM     23  C   UNL     1      -3.442  12.703  21.167  0.00  0.00    +0.000 C 
ATOM     24  O   UNL     1      -2.769  12.808  22.188  0.00  0.00    +0.000 OA
ATOM     25  H   UNL     1      -3.621  12.787  19.108  0.00  0.00    +0.000 HD
BRANCH  23  26
ATOM     26  C   UNL     1      -4.917  12.687  21.351  0.00  0.00    +0.000 A 
ATOM     27  C   UNL     1      -5.706  12.480  20.213  0.00  0.00    +0.000 A 
ATOM     28  C   UNL     1      -7.078  12.556  20.343  0.00  0.00    +0.000 A 
ATOM     29  N   UNL     1      -7.696  12.818  21.509  0.00  0.00    +0.000 NA
ATOM     30  C   UNL     1      -6.905  13.029  22.582  0.00  0.00    +0.000 A 
ATOM     31 CL   UNL     1      -7.752  13.414  24.022  0.00  0.00    +0.000 Cl
ATOM     32  C   UNL     1      -5.523  12.973  22.569  0.00  0.00    +0.000 A 
ENDBRANCH  23  26
ENDBRANCH   5  22
TORSDOF 6
ENDMDL
MODEL 5
REMARK VINA RESULT:      -8.4      3.290     10.145
REMARK  Name = 
REMARK  7 active torsions:
REMARK  status: ('A' for Active; 'I' for Inactive)
REMARK    1  A    between atoms: C_1  and  C_2
REMARK    2  A    between atoms: C_5  and  N_6
REMARK    3  A    between atoms: C_7  and  C_9
REMARK    4  A    between atoms: C_17  and  C_18
REMARK    5  A    between atoms: C_21  and  C_22
REMARK    6  A    between atoms: N_24  and  C_25
REMARK    7  A    between atoms: C_25  and  C_26
REMARK                            x       y       z     vdW  Elec       q    Type
REMARK                         _______ _______ _______ _____ _____    ______ ____
ROOT
ATOM      1  C   UNL     1       2.780   4.068  20.084  0.00  0.00    +0.000 C 
ATOM      2  C   UNL     1       2.353   5.509  19.973  0.00  0.00    +0.000 A 
ATOM      3  C   UNL     1       1.427   5.940  20.941  0.00  0.00    +0.000 A 
ATOM      4  C   UNL     1       0.989   7.258  20.993  0.00  0.00    +0.000 A 
ATOM      5  C   UNL     1       1.452   8.193  20.076  0.00  0.00    +0.000 A 
ATOM      6  C   UNL     1       2.321   7.757  19.061  0.00  0.00    +0.000 A 
ATOM      7  C   UNL     1       2.808   6.419  18.980  0.00  0.00    +0.000 A 
ENDROOT
BRANCH   7   8
ATOM      8  C   UNL     1       3.774   6.055  17.893  0.00  0.00    +0.000 A 
ATOM      9  C   UNL     1       4.716   6.986  17.399  0.00  0.00    +0.000 A 
ATOM     10  C   UNL     1       5.615   6.664  16.368  0.00  0.00    +0.000 A 
ATOM     11  C   UNL     1       5.622   5.378  15.824  0.00  0.00    +0.000 A 
ATOM     12  C   UNL     1       4.725   4.431  16.309  0.00  0.00    +0.000 A 
ATOM     13  C   UNL     1       3.794   4.782  17.294  0.00  0.00    +0.000 A 
BRANCH  11  14
ATOM     14  C   UNL     1       6.557   4.971  14.746  0.00  0.00    +0.000 C 
ATOM     15  O   UNL     1       7.744   5.280  14.806  0.00  0.00    +0.000 OA
ATOM     16  N   UNL     1       6.026   4.196  13.739  0.00  0.00    +0.000 N 
ATOM     17  H   UNL     1       5.096   3.812  13.839  0.00  0.00    +0.000 HD
BRANCH  16  18
ATOM     18  C   UNL     1       6.870   3.687  12.688  0.00  0.00    +0.000 C 
BRANCH  18  19
ATOM     19  C   UNL     1       6.039   3.306  11.506  0.00  0.00    +0.000 C 
ATOM     20  C   UNL     1       5.438   1.925  11.384  0.00  0.00    +0.000 C 
ATOM     21  C   UNL     1       4.552   3.107  11.661  0.00  0.00    +0.000 C 
ENDBRANCH  18  19
ENDBRANCH  16  18
ENDBRANCH  11  14
ENDBRANCH   7   8
BRANCH   5  22
ATOM     22  N   UNL     1       1.078   9.564  20.130  0.00  0.00    +0.000 N 
ATOM     23  C   UNL     1       0.512  10.267  19.076  0.00  0.00    +0.000 C 
ATOM     24  O   UNL     1       0.180   9.810  17.986  0.00  0.00    +0.000 OA
ATOM     25  H   UNL     1       1.099   9.999  21.042  0.00  0.00    +0.000 HD
BRANCH  23  26
ATOM     26  C   UNL     1       0.226  11.709  19.299  0.00  0.00    +0.000 A 
ATOM     27  C   UNL     1      -1.034  12.044  19.810  0.00  0.00    +0.000 A 
ATOM     28  C   UNL     1      -1.357  13.380  19.936  0.00  0.00    +0.000 A 
ATOM     29  N   UNL     1      -0.521  14.378  19.593  0.00  0.00    +0.000 NA
ATOM     30  C   UNL     1       0.678  14.019  19.089  0.00  0.00    +0.000 A 
ATOM     31 CL   UNL     1       1.672  15.335  18.620  0.00  0.00    +0.000 Cl
ATOM     32  C   UNL     1       1.109  12.714  18.924  0.00  0.00    +0.000 A 
ENDBRANCH  23  26
ENDBRANCH   5  22
TORSDOF 6
ENDMDL
MODEL 6
REMARK VINA RESULT:      -8.4      1.528      2.244
REMARK  Name = 
REMARK  7 active torsions:
REMARK  status: ('A' for Active; 'I' for Inactive)
REMARK    1  A    between atoms: C_1  and  C_2
REMARK    2  A    between atoms: C_5  and  N_6
REMARK    3  A    between atoms: C_7  and  C_9
REMARK    4  A    between atoms: C_17  and  C_18
REMARK    5  A    between atoms: C_21  and  C_22
REMARK    6  A    between atoms: N_24  and  C_25
REMARK    7  A    between atoms: C_25  and  C_26
REMARK                            x       y       z     vdW  Elec       q    Type
REMARK                         _______ _______ _______ _____ _____    ______ ____
ROOT
ATOM      1  C   UNL     1       1.994   4.956  21.177  0.00  0.00    +0.000 C 
ATOM      2  C   UNL     1       2.760   4.851  19.882  0.00  0.00    +0.000 A 
ATOM      3  C   UNL     1       3.389   3.614  19.653  0.00  0.00    +0.000 A 
ATOM      4  C   UNL     1       4.081   3.357  18.475  0.00  0.00    +0.000 A 
ATOM      5  C   UNL     1       4.179   4.328  17.487  0.00  0.00    +0.000 A 
ATOM      6  C   UNL     1       3.615   5.592  17.736  0.00  0.00    +0.000 A 
ATOM      7  C   UNL     1       2.883   5.892  18.923  0.00  0.00    +0.000 A 
ENDROOT
BRANCH   7   8
ATOM      8  C   UNL     1       2.271   7.252  19.081  0.00  0.00    +0.000 A 
ATOM      9  C   UNL     1       1.719   7.676  20.310  0.00  0.00    +0.000 A 
ATOM     10  C   UNL     1       1.127   8.941  20.468  0.00  0.00    +0.000 A 
ATOM     11  C   UNL     1       1.103   9.838  19.399  0.00  0.00    +0.000 A 
ATOM     12  C   UNL     1       1.664   9.459  18.182  0.00  0.00    +0.000 A 
ATOM     13  C   UNL     1       2.196   8.175  18.021  0.00  0.00    +0.000 A 
BRANCH  11  14
ATOM     14  C   UNL     1       0.508  11.194  19.505  0.00  0.00    +0.000 C 
ATOM     15  O   UNL     1      -0.140  11.509  20.500  0.00  0.00    +0.000 OA
ATOM     16  N   UNL     1       0.778  12.061  18.470  0.00  0.00    +0.000 N 
ATOM     17  H   UNL     1       1.471  11.815  17.778  0.00  0.00    +0.000 HD
BRANCH  16  18
ATOM     18  C   UNL     1       0.308  13.423  18.519  0.00  0.00    +0.000 C 
BRANCH  18  19
ATOM     19  C   UNL     1       1.316  14.284  19.209  0.00  0.00    +0.000 C 
ATOM     20  C   UNL     1       2.305  15.114  18.426  0.00  0.00    +0.000 C 
ATOM     21  C   UNL     1       1.183  15.786  19.165  0.00  0.00    +0.000 C 
ENDBRANCH  18  19
ENDBRANCH  16  18
ENDBRANCH  11  14
ENDBRANCH   7   8
BRANCH   5  22
ATOM     22  N   UNL     1       4.824   4.088  16.243  0.00  0.00    +0.000 N 
ATOM     23  C   UNL     1       5.759   4.935  15.665  0.00  0.00    +0.000 C 
ATOM     24  O   UNL     1       6.224   5.957  16.160  0.00  0.00    +0.000 OA
ATOM     25  H   UNL     1       4.690   3.172  15.838  0.00  0.00    +0.000 HD
BRANCH  23  26
ATOM     26  C   UNL     1       6.298   4.544  14.336  0.00  0.00    +0.000 A 
ATOM     27  C   UNL     1       7.342   5.316  13.811  0.00  0.00    +0.000 A 
ATOM     28  C   UNL     1       7.795   5.031  12.539  0.00  0.00    +0.000 A 
ATOM     29  N   UNL     1       7.284   4.046  11.777  0.00  0.00    +0.000 NA
ATOM     30  C   UNL     1       6.268   3.333  12.307  0.00  0.00    +0.000 A 
ATOM     31 CL   UNL     1       5.626   2.133  11.264  0.00  0.00    +0.000 Cl
ATOM     32  C   UNL     1       5.740   3.527  13.571  0.00  0.00    +0.000 A 
ENDBRANCH  23  26
ENDBRANCH   5  22
TORSDOF 6
ENDMDL
MODEL 7
REMARK VINA RESULT:      -8.3      5.115     11.778
REMARK  Name = 
REMARK  7 active torsions:
REMARK  status: ('A' for Active; 'I' for Inactive)
REMARK    1  A    between atoms: C_1  and  C_2
REMARK    2  A    between atoms: C_5  and  N_6
REMARK    3  A    between atoms: C_7  and  C_9
REMARK    4  A    between atoms: C_17  and  C_18
REMARK    5  A    between atoms: C_21  and  C_22
REMARK    6  A    between atoms: N_24  and  C_25
REMARK    7  A    between atoms: C_25  and  C_26
REMARK                            x       y       z     vdW  Elec       q    Type
REMARK                         _______ _______ _______ _____ _____    ______ ____
ROOT
ATOM      1  C   UNL     1       2.429  12.162  18.074  0.00  0.00    +0.000 C 
ATOM      2  C   UNL     1       1.038  12.115  18.653  0.00  0.00    +0.000 A 
ATOM      3  C   UNL     1       0.335  13.334  18.633  0.00  0.00    +0.000 A 
ATOM      4  C   UNL     1      -0.978  13.425  19.082  0.00  0.00    +0.000 A 
ATOM      5  C   UNL     1      -1.634  12.305  19.576  0.00  0.00    +0.000 A 
ATOM      6  C   UNL     1      -0.918  11.098  19.668  0.00  0.00    +0.000 A 
ATOM      7  C   UNL     1       0.424  10.958  19.203  0.00  0.00    +0.000 A 
ENDROOT
BRANCH   7   8
ATOM      8  C   UNL     1       1.093   9.618  19.293  0.00  0.00    +0.000 A 
ATOM      9  C   UNL     1       1.695   9.016  18.165  0.00  0.00    +0.000 A 
ATOM     10  C   UNL     1       2.309   7.754  18.231  0.00  0.00    +0.000 A 
ATOM     11  C   UNL     1       2.372   7.070  19.446  0.00  0.00    +0.000 A 
ATOM     12  C   UNL     1       1.811   7.650  20.581  0.00  0.00    +0.000 A 
ATOM     13  C   UNL     1       1.149   8.880  20.489  0.00  0.00    +0.000 A 
BRANCH  11  14
ATOM     14  C   UNL     1       3.020   5.742  19.585  0.00  0.00    +0.000 C 
ATOM     15  O   UNL     1       2.708   4.994  20.508  0.00  0.00    +0.000 OA
ATOM     16  N   UNL     1       3.920   5.398  18.601  0.00  0.00    +0.000 N 
ATOM     17  H   UNL     1       3.993   5.965  17.768  0.00  0.00    +0.000 HD
BRANCH  16  18
ATOM     18  C   UNL     1       4.544   4.099  18.606  0.00  0.00    +0.000 C 
BRANCH  18  19
ATOM     19  C   UNL     1       3.947   3.243  17.536  0.00  0.00    +0.000 C 
ATOM     20  C   UNL     1       3.039   2.085  17.875  0.00  0.00    +0.000 C 
ATOM     21  C   UNL     1       2.470   3.323  17.242  0.00  0.00    +0.000 C 
ENDBRANCH  18  19
ENDBRANCH  16  18
ENDBRANCH  11  14
ENDBRANCH   7   8
BRANCH   5  22
ATOM     22  N   UNL     1      -2.994  12.339  19.989  0.00  0.00    +0.000 N 
ATOM     23  C   UNL     1      -3.430  12.788  21.227  0.00  0.00    +0.000 C 
ATOM     24  O   UNL     1      -2.738  13.289  22.108  0.00  0.00    +0.000 OA
ATOM     25  H   UNL     1      -3.685  12.155  19.274  0.00  0.00    +0.000 HD
BRANCH  23  26
ATOM     26  C   UNL     1      -4.889  12.709  21.502  0.00  0.00    +0.000 A 
ATOM     27  C   UNL     1      -5.732  12.397  20.428  0.00  0.00    +0.000 A 
ATOM     28  C   UNL     1      -7.096  12.411  20.637  0.00  0.00    +0.000 A 
ATOM     29  N   UNL     1      -7.657  12.709  21.824  0.00  0.00    +0.000 NA
ATOM     30  C   UNL     1      -6.817  13.021  22.832  0.00  0.00    +0.000 A 
ATOM     31 CL   UNL     1      -7.597  13.445  24.299  0.00  0.00    +0.000 Cl
ATOM     32  C   UNL     1      -5.437  13.033  22.737  0.00  0.00    +0.000 A 
ENDBRANCH  23  26
ENDBRANCH   5  22
TORSDOF 6
ENDMDL
MODEL 8
REMARK VINA RESULT:      -8.3      3.272     10.539
REMARK  Name = 
REMARK  7 active torsions:
REMARK  status: ('A' for Active; 'I' for Inactive)
REMARK    1  A    between atoms: C_1  and  C_2
REMARK    2  A    between atoms: C_5  and  N_6
REMARK    3  A    between atoms: C_7  and  C_9
REMARK    4  A    between atoms: C_17  and  C_18
REMARK    5  A    between atoms: C_21  and  C_22
REMARK    6  A    between atoms: N_24  and  C_25
REMARK    7  A    between atoms: C_25  and  C_26
REMARK                            x       y       z     vdW  Elec       q    Type
REMARK                         _______ _______ _______ _____ _____    ______ ____
ROOT
ATOM      1  C   UNL     1       3.328   3.109  19.820  0.00  0.00    +0.000 C 
ATOM      2  C   UNL     1       2.814   4.524  19.899  0.00  0.00    +0.000 A 
ATOM      3  C   UNL     1       1.939   4.789  20.969  0.00  0.00    +0.000 A 
ATOM      4  C   UNL     1       1.434   6.064  21.198  0.00  0.00    +0.000 A 
ATOM      5  C   UNL     1       1.776   7.118  20.362  0.00  0.00    +0.000 A 
ATOM      6  C   UNL     1       2.592   6.850  19.248  0.00  0.00    +0.000 A 
ATOM      7  C   UNL     1       3.145   5.562  18.987  0.00  0.00    +0.000 A 
ENDROOT
BRANCH   7   8
ATOM      8  C   UNL     1       4.048   5.379  17.803  0.00  0.00    +0.000 A 
ATOM      9  C   UNL     1       4.000   4.210  17.011  0.00  0.00    +0.000 A 
ATOM     10  C   UNL     1       4.853   4.018  15.910  0.00  0.00    +0.000 A 
ATOM     11  C   UNL     1       5.759   5.016  15.547  0.00  0.00    +0.000 A 
ATOM     12  C   UNL     1       5.810   6.190  16.292  0.00  0.00    +0.000 A 
ATOM     13  C   UNL     1       4.997   6.344  17.422  0.00  0.00    +0.000 A 
BRANCH  11  14
ATOM     14  C   UNL     1       6.674   4.880  14.386  0.00  0.00    +0.000 C 
ATOM     15  O   UNL     1       7.744   5.483  14.368  0.00  0.00    +0.000 OA
ATOM     16  N   UNL     1       6.277   4.011  13.395  0.00  0.00    +0.000 N 
ATOM     17  H   UNL     1       5.487   3.400  13.550  0.00  0.00    +0.000 HD
BRANCH  16  18
ATOM     18  C   UNL     1       7.133   3.754  12.265  0.00  0.00    +0.000 C 
BRANCH  18  19
ATOM     19  C   UNL     1       6.435   2.865  11.288  0.00  0.00    +0.000 C 
ATOM     20  C   UNL     1       7.098   1.620  10.748  0.00  0.00    +0.000 C 
ATOM     21  C   UNL     1       5.956   1.501  11.717  0.00  0.00    +0.000 C 
ENDBRANCH  18  19
ENDBRANCH  16  18
ENDBRANCH  11  14
ENDBRANCH   7   8
BRANCH   5  22
ATOM     22  N   UNL     1       1.332   8.450  20.593  0.00  0.00    +0.000 N 
ATOM     23  C   UNL     1       0.134   8.784  21.208  0.00  0.00    +0.000 C 
ATOM     24  O   UNL     1      -0.673   8.006  21.708  0.00  0.00    +0.000 OA
ATOM     25  H   UNL     1       2.006   9.183  20.423  0.00  0.00    +0.000 HD
BRANCH  23  26
ATOM     26  C   UNL     1      -0.188  10.230  21.326  0.00  0.00    +0.000 A 
ATOM     27  C   UNL     1      -0.580  10.703  22.584  0.00  0.00    +0.000 A 
ATOM     28  C   UNL     1      -0.974  12.021  22.698  0.00  0.00    +0.000 A 
ATOM     29  N   UNL     1      -1.000  12.876  21.658  0.00  0.00    +0.000 NA
ATOM     30  C   UNL     1      -0.631  12.383  20.457  0.00  0.00    +0.000 A 
ATOM     31 CL   UNL     1      -0.739  13.507  19.167  0.00  0.00    +0.000 Cl
ATOM     32  C   UNL     1      -0.214  11.084  20.230  0.00  0.00    +0.000 A 
ENDBRANCH  23  26
ENDBRANCH   5  22
TORSDOF 6
ENDMDL
MODEL 9
REMARK VINA RESULT:      -8.3      3.522     10.274
REMARK  Name = 
REMARK  7 active torsions:
REMARK  status: ('A' for Active; 'I' for Inactive)
REMARK    1  A    between atoms: C_1  and  C_2
REMARK    2  A    between atoms: C_5  and  N_6
REMARK    3  A    between atoms: C_7  and  C_9
REMARK    4  A    between atoms: C_17  and  C_18
REMARK    5  A    between atoms: C_21  and  C_22
REMARK    6  A    between atoms: N_24  and  C_25
REMARK    7  A    between atoms: C_25  and  C_26
REMARK                            x       y       z     vdW  Elec       q    Type
REMARK                         _______ _______ _______ _____ _____    ______ ____
ROOT
ATOM      1  C   UNL     1       3.138   3.069  19.434  0.00  0.00    +0.000 C 
ATOM      2  C   UNL     1       2.702   4.504  19.582  0.00  0.00    +0.000 A 
ATOM      3  C   UNL     1       1.795   4.754  20.628  0.00  0.00    +0.000 A 
ATOM      4  C   UNL     1       1.353   6.041  20.917  0.00  0.00    +0.000 A 
ATOM      5  C   UNL     1       1.792   7.122  20.165  0.00  0.00    +0.000 A 
ATOM      6  C   UNL     1       2.641   6.875  19.071  0.00  0.00    +0.000 A 
ATOM      7  C   UNL     1       3.131   5.574  18.752  0.00  0.00    +0.000 A 
ENDROOT
BRANCH   7   8
ATOM      8  C   UNL     1       4.075   5.411  17.598  0.00  0.00    +0.000 A 
ATOM      9  C   UNL     1       4.652   6.527  16.951  0.00  0.00    +0.000 A 
ATOM     10  C   UNL     1       5.524   6.389  15.857  0.00  0.00    +0.000 A 
ATOM     11  C   UNL     1       5.876   5.118  15.401  0.00  0.00    +0.000 A 
ATOM     12  C   UNL     1       5.345   3.998  16.036  0.00  0.00    +0.000 A 
ATOM     13  C   UNL     1       4.431   4.150  17.085  0.00  0.00    +0.000 A 
BRANCH  11  14
ATOM     14  C   UNL     1       6.804   4.905  14.263  0.00  0.00    +0.000 C 
ATOM     15  O   UNL     1       7.868   5.515  14.209  0.00  0.00    +0.000 OA
ATOM     16  N   UNL     1       6.424   3.960  13.336  0.00  0.00    +0.000 N 
ATOM     17  H   UNL     1       5.638   3.354  13.530  0.00  0.00    +0.000 HD
BRANCH  16  18
ATOM     18  C   UNL     1       7.294   3.627  12.236  0.00  0.00    +0.000 C 
BRANCH  18  19
ATOM     19  C   UNL     1       6.528   2.886  11.187  0.00  0.00    +0.000 C 
ATOM     20  C   UNL     1       6.516   1.377  11.147  0.00  0.00    +0.000 C 
ATOM     21  C   UNL     1       5.281   2.126  11.559  0.00  0.00    +0.000 C 
ENDBRANCH  18  19
ENDBRANCH  16  18
ENDBRANCH  11  14
ENDBRANCH   7   8
BRANCH   5  22
ATOM     22  N   UNL     1       1.413   8.461  20.461  0.00  0.00    +0.000 N 
ATOM     23  C   UNL     1       1.067   9.410  19.511  0.00  0.00    +0.000 C 
ATOM     24  O   UNL     1       0.957   9.228  18.302  0.00  0.00    +0.000 OA
ATOM     25  H   UNL     1       1.253   8.676  21.436  0.00  0.00    +0.000 HD
BRANCH  23  26
ATOM     26  C   UNL     1       0.740  10.775  20.002  0.00  0.00    +0.000 A 
ATOM     27  C   UNL     1       1.311  11.858  19.323  0.00  0.00    +0.000 A 
ATOM     28  C   UNL     1       1.100  13.129  19.818  0.00  0.00    +0.000 A 
ATOM     29  N   UNL     1       0.370  13.380  20.921  0.00  0.00    +0.000 NA
ATOM     30  C   UNL     1      -0.151  12.312  21.560  0.00  0.00    +0.000 A 
ATOM     31 CL   UNL     1      -1.021  12.695  22.987  0.00  0.00    +0.000 Cl
ATOM     32  C   UNL     1      -0.008  10.997  21.151  0.00  0.00    +0.000 A 
ENDBRANCH  23  26
ENDBRANCH   5  22
TORSDOF 6
ENDMDL
