MODEL 1
REMARK VINA RESULT:      -5.9      0.000      0.000
REMARK  Name = 
REMARK  3 active torsions:
REMARK  status: ('A' for Active; 'I' for Inactive)
REMARK    1  A    between atoms: N_1  and  C_2
REMARK    2  A    between atoms: C_2  and  C_3
REMARK    3  A    between atoms: C_4  and  O_5
REMARK                            x       y       z     vdW  Elec       q    Type
REMARK                         _______ _______ _______ _____ _____    ______ ____
ROOT
ATOM      1  C   UNL     1       6.492   5.672  17.188  0.00  0.00    +0.000 A 
ATOM      2  C   UNL     1       6.722   5.278  15.834  0.00  0.00    +0.000 A 
ATOM      3  C   UNL     1       5.856   4.381  15.200  0.00  0.00    +0.000 A 
ATOM      4 BR   UNL     1       6.177   3.825  13.396  0.00  0.00    +0.000 Br
ATOM      5  C   UNL     1       4.737   3.888  15.857  0.00  0.00    +0.000 A 
ATOM      6  C   UNL     1       4.453   4.287  17.161  0.00  0.00    +0.000 A 
ATOM      7  N   UNL     1       3.330   3.803  17.759  0.00  0.00    +0.000 NA
ATOM      8  C   UNL     1       2.975   4.150  19.016  0.00  0.00    +0.000 A 
ATOM      9  C   UNL     1       3.776   5.022  19.746  0.00  0.00    +0.000 A 
ATOM     10  C   UNL     1       4.942   5.530  19.173  0.00  0.00    +0.000 A 
ATOM     11  C   UNL     1       5.317   5.180  17.852  0.00  0.00    +0.000 A 
ENDROOT
BRANCH   2  12
ATOM     12  O   UNL     1       7.755   5.757  15.104  0.00  0.00    +0.000 OA
ATOM     13  H   UNL     1       8.687   5.653  15.330  0.00  0.00    +0.000 HD
ENDBRANCH   2  12
BRANCH   1  14
ATOM     14  C   UNL     1       7.506   6.587  17.873  0.00  0.00    +0.000 C 
BRANCH  14  15
ATOM     15  N   UNL     1       7.544   7.899  17.216  0.00  0.00    +0.000 NA
ATOM     16  H   UNL     1       8.257   7.890  16.456  0.00  0.00    +0.000 HD
ATOM     17  H   UNL     1       7.824   8.655  17.875  0.00  0.00    +0.000 HD
ENDBRANCH  14  15
ENDBRANCH   1  14
TORSDOF 3
ENDMDL
MODEL 2
REMARK VINA RESULT:      -5.8      2.617      3.968
REMARK  Name = 
REMARK  3 active torsions:
REMARK  status: ('A' for Active; 'I' for Inactive)
REMARK    1  A    between atoms: N_1  and  C_2
REMARK    2  A    between atoms: C_2  and  C_3
REMARK    3  A    between atoms: C_4  and  O_5
REMARK                            x       y       z     vdW  Elec       q    Type
REMARK                         _______ _______ _______ _____ _____    ______ ____
ROOT
ATOM      1  C   UNL     1       3.629   3.284  17.995  0.00  0.00    +0.000 A 
ATOM      2  C   UNL     1       4.724   3.809  17.243  0.00  0.00    +0.000 A 
ATOM      3  C   UNL     1       5.056   5.165  17.326  0.00  0.00    +0.000 A 
ATOM      4 BR   UNL     1       6.505   5.879  16.296  0.00  0.00    +0.000 Br
ATOM      5  C   UNL     1       4.356   6.018  18.167  0.00  0.00    +0.000 A 
ATOM      6  C   UNL     1       3.313   5.534  18.952  0.00  0.00    +0.000 A 
ATOM      7  N   UNL     1       2.671   6.398  19.785  0.00  0.00    +0.000 NA
ATOM      8  C   UNL     1       1.658   6.007  20.589  0.00  0.00    +0.000 A 
ATOM      9  C   UNL     1       1.233   4.683  20.573  0.00  0.00    +0.000 A 
ATOM     10  C   UNL     1       1.857   3.768  19.724  0.00  0.00    +0.000 A 
ATOM     11  C   UNL     1       2.927   4.167  18.884  0.00  0.00    +0.000 A 
ENDROOT
BRANCH   2  12
ATOM     12  O   UNL     1       5.494   3.034  16.445  0.00  0.00    +0.000 OA
ATOM     13  H   UNL     1       5.766   3.263  15.548  0.00  0.00    +0.000 HD
ENDBRANCH   2  12
BRANCH   1  14
ATOM     14  C   UNL     1       3.244   1.817  17.814  0.00  0.00    +0.000 C 
BRANCH  14  15
ATOM     15  N   UNL     1       4.228   0.942  18.464  0.00  0.00    +0.000 NA
ATOM     16  H   UNL     1       4.119  -0.032  18.109  0.00  0.00    +0.000 HD
ATOM     17  H   UNL     1       4.086   0.898  19.495  0.00  0.00    +0.000 HD
ENDBRANCH  14  15
ENDBRANCH   1  14
TORSDOF 3
ENDMDL
MODEL 3
REMARK VINA RESULT:      -5.8      2.554      3.291
REMARK  Name = 
REMARK  3 active torsions:
REMARK  status: ('A' for Active; 'I' for Inactive)
REMARK    1  A    between atoms: N_1  and  C_2
REMARK    2  A    between atoms: C_2  and  C_3
REMARK    3  A    between atoms: C_4  and  O_5
REMARK                            x       y       z     vdW  Elec       q    Type
REMARK                         _______ _______ _______ _____ _____    ______ ____
ROOT
ATOM      1  C   UNL     1       3.076   5.820  18.286  0.00  0.00    +0.000 A 
ATOM      2  C   UNL     1       4.117   5.857  17.309  0.00  0.00    +0.000 A 
ATOM      3  C   UNL     1       4.604   4.672  16.747  0.00  0.00    +0.000 A 
ATOM      4 BR   UNL     1       6.021   4.714  15.458  0.00  0.00    +0.000 Br
ATOM      5  C   UNL     1       4.063   3.444  17.098  0.00  0.00    +0.000 A 
ATOM      6  C   UNL     1       3.014   3.371  18.012  0.00  0.00    +0.000 A 
ATOM      7  N   UNL     1       2.492   2.150  18.306  0.00  0.00    +0.000 NA
ATOM      8  C   UNL     1       1.466   1.993  19.172  0.00  0.00    +0.000 A 
ATOM      9  C   UNL     1       0.917   3.104  19.803  0.00  0.00    +0.000 A 
ATOM     10  C   UNL     1       1.432   4.373  19.537  0.00  0.00    +0.000 A 
ATOM     11  C   UNL     1       2.501   4.548  18.623  0.00  0.00    +0.000 A 
ENDROOT
BRANCH   2  12
ATOM     12  O   UNL     1       4.659   7.015  16.868  0.00  0.00    +0.000 OA
ATOM     13  H   UNL     1       5.487   7.394  17.186  0.00  0.00    +0.000 HD
ENDBRANCH   2  12
BRANCH   1  14
ATOM     14  C   UNL     1       2.629   7.128  18.938  0.00  0.00    +0.000 C 
BRANCH  14  15
ATOM     15  N   UNL     1       2.138   8.068  17.923  0.00  0.00    +0.000 NA
ATOM     16  H   UNL     1       2.258   9.046  18.264  0.00  0.00    +0.000 HD
ATOM     17  H   UNL     1       1.121   7.942  17.737  0.00  0.00    +0.000 HD
ENDBRANCH  14  15
ENDBRANCH   1  14
TORSDOF 3
ENDMDL
MODEL 4
REMARK VINA RESULT:      -5.8      3.772      4.737
REMARK  Name = 
REMARK  3 active torsions:
REMARK  status: ('A' for Active; 'I' for Inactive)
REMARK    1  A    between atoms: N_1  and  C_2
REMARK    2  A    between atoms: C_2  and  C_3
REMARK    3  A    between atoms: C_4  and  O_5
REMARK                            x       y       z     vdW  Elec       q    Type
REMARK                         _______ _______ _______ _____ _____    ______ ____
ROOT
ATOM      1  C   UNL     1       4.293   4.706  18.426  0.00  0.00    +0.000 A 
ATOM      2  C   UNL     1       3.891   3.702  19.358  0.00  0.00    +0.000 A 
ATOM      3  C   UNL     1       2.893   3.969  20.302  0.00  0.00    +0.000 A 
ATOM      4 BR   UNL     1       2.372   2.636  21.574  0.00  0.00    +0.000 Br
ATOM      5  C   UNL     1       2.249   5.198  20.327  0.00  0.00    +0.000 A 
ATOM      6  C   UNL     1       2.580   6.186  19.403  0.00  0.00    +0.000 A 
ATOM      7  N   UNL     1       1.904   7.366  19.443  0.00  0.00    +0.000 NA
ATOM      8  C   UNL     1       2.154   8.371  18.574  0.00  0.00    +0.000 A 
ATOM      9  C   UNL     1       3.139   8.220  17.606  0.00  0.00    +0.000 A 
ATOM     10  C   UNL     1       3.864   7.029  17.539  0.00  0.00    +0.000 A 
ATOM     11  C   UNL     1       3.602   5.966  18.439  0.00  0.00    +0.000 A 
ENDROOT
BRANCH   2  12
ATOM     12  O   UNL     1       4.426   2.460  19.363  0.00  0.00    +0.000 OA
ATOM     13  H   UNL     1       5.142   2.164  18.788  0.00  0.00    +0.000 HD
ENDBRANCH   2  12
BRANCH   1  14
ATOM     14  C   UNL     1       5.443   4.406  17.466  0.00  0.00    +0.000 C 
BRANCH  14  15
ATOM     15  N   UNL     1       6.692   4.197  18.207  0.00  0.00    +0.000 NA
ATOM     16  H   UNL     1       6.639   3.303  18.740  0.00  0.00    +0.000 HD
ATOM     17  H   UNL     1       6.856   4.949  18.909  0.00  0.00    +0.000 HD
ENDBRANCH  14  15
ENDBRANCH   1  14
TORSDOF 3
ENDMDL
MODEL 5
REMARK VINA RESULT:      -5.8      2.432      3.250
REMARK  Name = 
REMARK  3 active torsions:
REMARK  status: ('A' for Active; 'I' for Inactive)
REMARK    1  A    between atoms: N_1  and  C_2
REMARK    2  A    between atoms: C_2  and  C_3
REMARK    3  A    between atoms: C_4  and  O_5
REMARK                            x       y       z     vdW  Elec       q    Type
REMARK                         _______ _______ _______ _____ _____    ______ ____
ROOT
ATOM      1  C   UNL     1       5.383   4.633  16.193  0.00  0.00    +0.000 A 
ATOM      2  C   UNL     1       6.474   5.438  16.643  0.00  0.00    +0.000 A 
ATOM      3  C   UNL     1       6.602   5.766  17.997  0.00  0.00    +0.000 A 
ATOM      4 BR   UNL     1       8.046   6.870  18.600  0.00  0.00    +0.000 Br
ATOM      5  C   UNL     1       5.696   5.288  18.933  0.00  0.00    +0.000 A 
ATOM      6  C   UNL     1       4.646   4.461  18.540  0.00  0.00    +0.000 A 
ATOM      7  N   UNL     1       3.798   3.990  19.493  0.00  0.00    +0.000 NA
ATOM      8  C   UNL     1       2.763   3.173  19.197  0.00  0.00    +0.000 A 
ATOM      9  C   UNL     1       2.532   2.797  17.879  0.00  0.00    +0.000 A 
ATOM     10  C   UNL     1       3.372   3.269  16.870  0.00  0.00    +0.000 A 
ATOM     11  C   UNL     1       4.466   4.118  17.172  0.00  0.00    +0.000 A 
ENDROOT
BRANCH   2  12
ATOM     12  O   UNL     1       7.433   5.896  15.806  0.00  0.00    +0.000 OA
ATOM     13  H   UNL     1       7.787   5.408  15.052  0.00  0.00    +0.000 HD
ENDBRANCH   2  12
BRANCH   1  14
ATOM     14  C   UNL     1       5.231   4.365  14.697  0.00  0.00    +0.000 C 
BRANCH  14  15
ATOM     15  N   UNL     1       6.368   3.585  14.194  0.00  0.00    +0.000 NA
ATOM     16  H   UNL     1       6.365   3.592  13.152  0.00  0.00    +0.000 HD
ATOM     17  H   UNL     1       6.310   2.586  14.483  0.00  0.00    +0.000 HD
ENDBRANCH  14  15
ENDBRANCH   1  14
TORSDOF 3
ENDMDL
MODEL 6
REMARK VINA RESULT:      -5.8      2.625      3.780
REMARK  Name = 
REMARK  3 active torsions:
REMARK  status: ('A' for Active; 'I' for Inactive)
REMARK    1  A    between atoms: N_1  and  C_2
REMARK    2  A    between atoms: C_2  and  C_3
REMARK    3  A    between atoms: C_4  and  O_5
REMARK                            x       y       z     vdW  Elec       q    Type
REMARK                         _______ _______ _______ _____ _____    ______ ____
ROOT
ATOM      1  C   UNL     1       3.707   3.840  18.572  0.00  0.00    +0.000 A 
ATOM      2  C   UNL     1       4.518   4.044  17.414  0.00  0.00    +0.000 A 
ATOM      3  C   UNL     1       4.609   5.310  16.826  0.00  0.00    +0.000 A 
ATOM      4 BR   UNL     1       5.672   5.583  15.257  0.00  0.00    +0.000 Br
ATOM      5  C   UNL     1       3.945   6.398  17.375  0.00  0.00    +0.000 A 
ATOM      6  C   UNL     1       3.182   6.249  18.531  0.00  0.00    +0.000 A 
ATOM      7  N   UNL     1       2.571   7.346  19.053  0.00  0.00    +0.000 NA
ATOM      8  C   UNL     1       1.824   7.290  20.178  0.00  0.00    +0.000 A 
ATOM      9  C   UNL     1       1.651   6.077  20.834  0.00  0.00    +0.000 A 
ATOM     10  C   UNL     1       2.251   4.925  20.324  0.00  0.00    +0.000 A 
ATOM     11  C   UNL     1       3.045   4.976  19.150  0.00  0.00    +0.000 A 
ENDROOT
BRANCH   2  12
ATOM     12  O   UNL     1       5.244   3.051  16.852  0.00  0.00    +0.000 OA
ATOM     13  H   UNL     1       5.789   2.421  17.338  0.00  0.00    +0.000 HD
ENDBRANCH   2  12
BRANCH   1  14
ATOM     14  C   UNL     1       3.566   2.427  19.136  0.00  0.00    +0.000 C 
BRANCH  14  15
ATOM     15  N   UNL     1       4.836   1.977  19.720  0.00  0.00    +0.000 NA
ATOM     16  H   UNL     1       5.057   1.017  19.381  0.00  0.00    +0.000 HD
ATOM     17  H   UNL     1       4.785   1.919  20.759  0.00  0.00    +0.000 HD
ENDBRANCH  14  15
ENDBRANCH   1  14
TORSDOF 3
ENDMDL
MODEL 7
REMARK VINA RESULT:      -5.7      3.288      5.137
REMARK  Name = 
REMARK  3 active torsions:
REMARK  status: ('A' for Active; 'I' for Inactive)
REMARK    1  A    between atoms: N_1  and  C_2
REMARK    2  A    between atoms: C_2  and  C_3
REMARK    3  A    between atoms: C_4  and  O_5
REMARK                            x       y       z     vdW  Elec       q    Type
REMARK                         _______ _______ _______ _____ _____    ______ ____
ROOT
ATOM      1  C   UNL     1       3.751   3.893  17.631  0.00  0.00    +0.000 A 
ATOM      2  C   UNL     1       3.001   4.901  18.311  0.00  0.00    +0.000 A 
ATOM      3  C   UNL     1       3.262   6.256  18.080  0.00  0.00    +0.000 A 
ATOM      4 BR   UNL     1       2.280   7.611  19.012  0.00  0.00    +0.000 Br
ATOM      5  C   UNL     1       4.224   6.648  17.161  0.00  0.00    +0.000 A 
ATOM      6  C   UNL     1       4.943   5.695  16.442  0.00  0.00    +0.000 A 
ATOM      7  N   UNL     1       5.856   6.121  15.529  0.00  0.00    +0.000 NA
ATOM      8  C   UNL     1       6.585   5.263  14.782  0.00  0.00    +0.000 A 
ATOM      9  C   UNL     1       6.420   3.892  14.943  0.00  0.00    +0.000 A 
ATOM     10  C   UNL     1       5.502   3.413  15.879  0.00  0.00    +0.000 A 
ATOM     11  C   UNL     1       4.725   4.306  16.660  0.00  0.00    +0.000 A 
ENDROOT
BRANCH   2  12
ATOM     12  O   UNL     1       2.006   4.605  19.179  0.00  0.00    +0.000 OA
ATOM     13  H   UNL     1       1.495   5.255  19.675  0.00  0.00    +0.000 HD
ENDBRANCH   2  12
BRANCH   1  14
ATOM     14  C   UNL     1       3.495   2.426  17.971  0.00  0.00    +0.000 C 
BRANCH  14  15
ATOM     15  N   UNL     1       2.133   2.037  17.585  0.00  0.00    +0.000 NA
ATOM     16  H   UNL     1       1.711   1.447  18.333  0.00  0.00    +0.000 HD
ATOM     17  H   UNL     1       2.125   1.463  16.717  0.00  0.00    +0.000 HD
ENDBRANCH  14  15
ENDBRANCH   1  14
TORSDOF 3
ENDMDL
MODEL 8
REMARK VINA RESULT:      -5.7      2.940      3.670
REMARK  Name = 
REMARK  3 active torsions:
REMARK  status: ('A' for Active; 'I' for Inactive)
REMARK    1  A    between atoms: N_1  and  C_2
REMARK    2  A    between atoms: C_2  and  C_3
REMARK    3  A    between atoms: C_4  and  O_5
REMARK                            x       y       z     vdW  Elec       q    Type
REMARK                         _______ _______ _______ _____ _____    ______ ____
ROOT
ATOM      1  C   UNL     1       4.596   4.787  17.477  0.00  0.00    +0.000 A 
ATOM      2  C   UNL     1       4.299   6.184  17.510  0.00  0.00    +0.000 A 
ATOM      3  C   UNL     1       3.022   6.629  17.867  0.00  0.00    +0.000 A 
ATOM      4 BR   UNL     1       2.610   8.500  17.883  0.00  0.00    +0.000 Br
ATOM      5  C   UNL     1       2.032   5.728  18.232  0.00  0.00    +0.000 A 
ATOM      6  C   UNL     1       2.297   4.361  18.259  0.00  0.00    +0.000 A 
ATOM      7  N   UNL     1       1.308   3.514  18.652  0.00  0.00    +0.000 NA
ATOM      8  C   UNL     1       1.486   2.176  18.718  0.00  0.00    +0.000 A 
ATOM      9  C   UNL     1       2.713   1.624  18.366  0.00  0.00    +0.000 A 
ATOM     10  C   UNL     1       3.750   2.457  17.946  0.00  0.00    +0.000 A 
ATOM     11  C   UNL     1       3.575   3.863  17.883  0.00  0.00    +0.000 A 
ENDROOT
BRANCH   2  12
ATOM     12  O   UNL     1       5.223   7.130  17.225  0.00  0.00    +0.000 OA
ATOM     13  H   UNL     1       5.283   7.609  16.390  0.00  0.00    +0.000 HD
ENDBRANCH   2  12
BRANCH   1  14
ATOM     14  C   UNL     1       5.976   4.336  17.001  0.00  0.00    +0.000 C 
BRANCH  14  15
ATOM     15  N   UNL     1       6.940   4.371  18.108  0.00  0.00    +0.000 NA
ATOM     16  H   UNL     1       7.845   3.958  17.798  0.00  0.00    +0.000 HD
ATOM     17  H   UNL     1       6.618   3.803  18.919  0.00  0.00    +0.000 HD
ENDBRANCH  14  15
ENDBRANCH   1  14
TORSDOF 3
ENDMDL
MODEL 9
REMARK VINA RESULT:      -5.6      2.833      4.372
REMARK  Name = 
REMARK  3 active torsions:
REMARK  status: ('A' for Active; 'I' for Inactive)
REMARK    1  A    between atoms: N_1  and  C_2
REMARK    2  A    between atoms: C_2  and  C_3
REMARK    3  A    between atoms: C_4  and  O_5
REMARK                            x       y       z     vdW  Elec       q    Type
REMARK                         _______ _______ _______ _____ _____    ______ ____
ROOT
ATOM      1  C   UNL     1       3.051   3.709  18.981  0.00  0.00    +0.000 A 
ATOM      2  C   UNL     1       3.918   3.538  17.859  0.00  0.00    +0.000 A 
ATOM      3  C   UNL     1       4.308   4.640  17.090  0.00  0.00    +0.000 A 
ATOM      4 BR   UNL     1       5.446   4.412  15.566  0.00  0.00    +0.000 Br
ATOM      5  C   UNL     1       3.893   5.921  17.423  0.00  0.00    +0.000 A 
ATOM      6  C   UNL     1       3.086   6.134  18.538  0.00  0.00    +0.000 A 
ATOM      7  N   UNL     1       2.726   7.409  18.847  0.00  0.00    +0.000 NA
ATOM      8  C   UNL     1       1.957   7.702  19.919  0.00  0.00    +0.000 A 
ATOM      9  C   UNL     1       1.497   6.681  20.741  0.00  0.00    +0.000 A 
ATOM     10  C   UNL     1       1.834   5.357  20.452  0.00  0.00    +0.000 A 
ATOM     11  C   UNL     1       2.649   5.041  19.336  0.00  0.00    +0.000 A 
ENDROOT
BRANCH   2  12
ATOM     12  O   UNL     1       4.414   2.331  17.501  0.00  0.00    +0.000 OA
ATOM     13  H   UNL     1       4.238   1.888  16.663  0.00  0.00    +0.000 HD
ENDBRANCH   2  12
BRANCH   1  14
ATOM     14  C   UNL     1       2.580   2.472  19.745  0.00  0.00    +0.000 C 
BRANCH  14  15
ATOM     15  N   UNL     1       1.783   1.600  18.874  0.00  0.00    +0.000 NA
ATOM     16  H   UNL     1       2.060   0.607  19.024  0.00  0.00    +0.000 HD
ATOM     17  H   UNL     1       1.948   1.804  17.866  0.00  0.00    +0.000 HD
ENDBRANCH  14  15
ENDBRANCH   1  14
TORSDOF 3
ENDMDL
