MODEL 1
REMARK VINA RESULT:      -8.1      0.000      0.000
REMARK  Name = 
REMARK  7 active torsions:
REMARK  status: ('A' for Active; 'I' for Inactive)
REMARK    1  A    between atoms: C_1  and  C_2
REMARK    2  A    between atoms: C_5  and  C_6
REMARK    3  A    between atoms: C_7  and  N_8
REMARK    4  A    between atoms: C_12  and  C_14
REMARK    5  A    between atoms: C_16  and  C_17
REMARK    6  A    between atoms: C_21  and  C_22
REMARK    7  A    between atoms: N_24  and  C_25
REMARK                            x       y       z     vdW  Elec       q    Type
REMARK                         _______ _______ _______ _____ _____    ______ ____
ROOT
ATOM      1  C   UNL     1       4.649   6.083  18.313  0.00  0.00    +0.000 A 
ATOM      2  C   UNL     1       5.646   7.064  18.335  0.00  0.00    +0.000 A 
ATOM      3  C   UNL     1       6.625   7.067  17.361  0.00  0.00    +0.000 A 
ATOM      4  C   UNL     1       7.784   8.013  17.448  0.00  0.00    +0.000 C 
ATOM      5  N   UNL     1       6.623   6.237  16.312  0.00  0.00    +0.000 NA
ATOM      6  C   UNL     1       5.587   5.372  16.236  0.00  0.00    +0.000 A 
ATOM      7  C   UNL     1       4.573   5.228  17.187  0.00  0.00    +0.000 A 
ATOM      8  C   UNL     1       3.754   4.187  16.660  0.00  0.00    +0.000 A 
ATOM      9  C   UNL     1       2.530   3.533  17.195  0.00  0.00    +0.000 C 
ATOM     10  N   UNL     1       4.193   3.752  15.471  0.00  0.00    +0.000 NA
ATOM     11  N   UNL     1       5.313   4.476  15.208  0.00  0.00    +0.000 N 
ENDROOT
BRANCH   1  16
ATOM     12  N   UNL     1       0.612   8.923  19.901  0.00  0.00    +0.000 N 
ATOM     13  C   UNL     1       1.179   8.168  21.041  0.00  0.00    +0.000 C 
ATOM     14  C   UNL     1       1.611   6.773  20.546  0.00  0.00    +0.000 C 
ATOM     15  N   UNL     1       2.548   6.864  19.411  0.00  0.00    +0.000 N 
ATOM     16  C   UNL     1       3.668   6.030  19.415  0.00  0.00    +0.000 C 
ATOM     17  O   UNL     1       3.892   5.233  20.322  0.00  0.00    +0.000 OA
ATOM     18  C   UNL     1       2.085   7.759  18.329  0.00  0.00    +0.000 C 
ATOM     19  C   UNL     1       1.622   9.131  18.847  0.00  0.00    +0.000 C 
BRANCH  12  26
ATOM     20  C   UNL     1      -1.106  12.336  23.070  0.00  0.00    +0.000 C 
ATOM     21  C   UNL     1      -1.074  11.745  21.693  0.00  0.00    +0.000 A 
ATOM     22  C   UNL     1      -1.863  12.266  20.670  0.00  0.00    +0.000 A 
ATOM     23  C   UNL     1      -1.839  11.684  19.406  0.00  0.00    +0.000 A 
ATOM     24  C   UNL     1      -1.034  10.561  19.141  0.00  0.00    +0.000 A 
ATOM     25  C   UNL     1      -1.133   9.936  17.772  0.00  0.00    +0.000 C 
ATOM     26  C   UNL     1      -0.198  10.037  20.156  0.00  0.00    +0.000 A 
ATOM     27  C   UNL     1      -0.245  10.645  21.424  0.00  0.00    +0.000 A 
ENDBRANCH  12  26
ENDBRANCH   1  16
BRANCH  11  28
ATOM     28  C   UNL     1       6.030   4.262  13.988  0.00  0.00    +0.000 A 
ATOM     29  C   UNL     1       5.573   3.297  13.076  0.00  0.00    +0.000 A 
ATOM     30  C   UNL     1       6.255   3.077  11.874  0.00  0.00    +0.000 A 
ATOM     31  C   UNL     1       7.400   3.810  11.575  0.00  0.00    +0.000 A 
ATOM     32  C   UNL     1       7.864   4.766  12.472  0.00  0.00    +0.000 A 
ATOM     33  C   UNL     1       7.182   4.995  13.670  0.00  0.00    +0.000 A 
ENDBRANCH  11  28
TORSDOF 3
ENDMDL
MODEL 2
REMARK VINA RESULT:      -8.1      7.207     11.739
REMARK  Name = 
REMARK  7 active torsions:
REMARK  status: ('A' for Active; 'I' for Inactive)
REMARK    1  A    between atoms: C_1  and  C_2
REMARK    2  A    between atoms: C_5  and  C_6
REMARK    3  A    between atoms: C_7  and  N_8
REMARK    4  A    between atoms: C_12  and  C_14
REMARK    5  A    between atoms: C_16  and  C_17
REMARK    6  A    between atoms: C_21  and  C_22
REMARK    7  A    between atoms: N_24  and  C_25
REMARK                            x       y       z     vdW  Elec       q    Type
REMARK                         _______ _______ _______ _____ _____    ______ ____
ROOT
ATOM      1  C   UNL     1       2.335  16.713  19.441  0.00  0.00    +0.000 A 
ATOM      2  C   UNL     1       1.537  17.627  18.745  0.00  0.00    +0.000 A 
ATOM      3  C   UNL     1       0.330  17.214  18.214  0.00  0.00    +0.000 A 
ATOM      4  C   UNL     1      -0.471  18.130  17.340  0.00  0.00    +0.000 C 
ATOM      5  N   UNL     1      -0.186  15.996  18.417  0.00  0.00    +0.000 NA
ATOM      6  C   UNL     1       0.539  15.162  19.194  0.00  0.00    +0.000 A 
ATOM      7  C   UNL     1       1.799  15.437  19.734  0.00  0.00    +0.000 A 
ATOM      8  C   UNL     1       2.137  14.246  20.440  0.00  0.00    +0.000 A 
ATOM      9  C   UNL     1       3.352  13.872  21.211  0.00  0.00    +0.000 C 
ATOM     10  N   UNL     1       1.161  13.330  20.382  0.00  0.00    +0.000 NA
ATOM     11  N   UNL     1       0.181  13.887  19.622  0.00  0.00    +0.000 N 
ENDROOT
BRANCH   1  16
ATOM     12  N   UNL     1       7.268  15.438  18.476  0.00  0.00    +0.000 N 
ATOM     13  C   UNL     1       7.153  16.024  19.830  0.00  0.00    +0.000 C 
ATOM     14  C   UNL     1       6.126  17.172  19.789  0.00  0.00    +0.000 C 
ATOM     15  N   UNL     1       4.825  16.721  19.259  0.00  0.00    +0.000 N 
ATOM     16  C   UNL     1       3.666  17.141  19.916  0.00  0.00    +0.000 C 
ATOM     17  O   UNL     1       3.698  17.866  20.907  0.00  0.00    +0.000 OA
ATOM     18  C   UNL     1       4.929  15.973  17.988  0.00  0.00    +0.000 C 
ATOM     19  C   UNL     1       5.986  14.857  18.037  0.00  0.00    +0.000 C 
BRANCH  12  26
ATOM     20  C   UNL     1       9.478  11.002  18.191  0.00  0.00    +0.000 C 
ATOM     21  C   UNL     1       9.525  12.489  18.004  0.00  0.00    +0.000 A 
ATOM     22  C   UNL     1      10.682  13.119  17.551  0.00  0.00    +0.000 A 
ATOM     23  C   UNL     1      10.713  14.504  17.411  0.00  0.00    +0.000 A 
ATOM     24  C   UNL     1       9.591  15.289  17.732  0.00  0.00    +0.000 A 
ATOM     25  C   UNL     1       9.734  16.787  17.638  0.00  0.00    +0.000 C 
ATOM     26  C   UNL     1       8.393  14.666  18.160  0.00  0.00    +0.000 A 
ATOM     27  C   UNL     1       8.393  13.266  18.293  0.00  0.00    +0.000 A 
ENDBRANCH  12  26
ENDBRANCH   1  16
BRANCH  11  28
ATOM     28  C   UNL     1      -1.027  13.162  19.370  0.00  0.00    +0.000 A 
ATOM     29  C   UNL     1      -1.126  12.359  18.222  0.00  0.00    +0.000 A 
ATOM     30  C   UNL     1      -2.295  11.635  17.962  0.00  0.00    +0.000 A 
ATOM     31  C   UNL     1      -3.375  11.710  18.837  0.00  0.00    +0.000 A 
ATOM     32  C   UNL     1      -3.289  12.505  19.975  0.00  0.00    +0.000 A 
ATOM     33  C   UNL     1      -2.121  13.224  20.244  0.00  0.00    +0.000 A 
ENDBRANCH  11  28
TORSDOF 3
ENDMDL
MODEL 3
REMARK VINA RESULT:      -7.7      7.395      9.075
REMARK  Name = 
REMARK  7 active torsions:
REMARK  status: ('A' for Active; 'I' for Inactive)
REMARK    1  A    between atoms: C_1  and  C_2
REMARK    2  A    between atoms: C_5  and  C_6
REMARK    3  A    between atoms: C_7  and  N_8
REMARK    4  A    between atoms: C_12  and  C_14
REMARK    5  A    between atoms: C_16  and  C_17
REMARK    6  A    between atoms: C_21  and  C_22
REMARK    7  A    between atoms: N_24  and  C_25
REMARK                            x       y       z     vdW  Elec       q    Type
REMARK                         _______ _______ _______ _____ _____    ______ ____
ROOT
ATOM      1  C   UNL     1       5.939  16.389  20.494  0.00  0.00    +0.000 A 
ATOM      2  C   UNL     1       6.854  16.779  21.477  0.00  0.00    +0.000 A 
ATOM      3  C   UNL     1       8.084  16.156  21.551  0.00  0.00    +0.000 A 
ATOM      4  C   UNL     1       9.021  16.450  22.683  0.00  0.00    +0.000 C 
ATOM      5  N   UNL     1       8.510  15.255  20.657  0.00  0.00    +0.000 NA
ATOM      6  C   UNL     1       7.663  14.977  19.641  0.00  0.00    +0.000 A 
ATOM      7  C   UNL     1       6.371  15.489  19.491  0.00  0.00    +0.000 A 
ATOM      8  C   UNL     1       5.897  14.877  18.294  0.00  0.00    +0.000 A 
ATOM      9  C   UNL     1       4.589  14.974  17.592  0.00  0.00    +0.000 C 
ATOM     10  N   UNL     1       6.822  14.090  17.728  0.00  0.00    +0.000 NA
ATOM     11  N   UNL     1       7.905  14.150  18.548  0.00  0.00    +0.000 N 
ENDROOT
BRANCH   1  16
ATOM     12  N   UNL     1       1.048  14.685  20.762  0.00  0.00    +0.000 N 
ATOM     13  C   UNL     1       1.090  15.999  20.082  0.00  0.00    +0.000 C 
ATOM     14  C   UNL     1       2.147  16.883  20.773  0.00  0.00    +0.000 C 
ATOM     15  N   UNL     1       3.467  16.226  20.807  0.00  0.00    +0.000 N 
ATOM     16  C   UNL     1       4.591  16.992  20.489  0.00  0.00    +0.000 C 
ATOM     17  O   UNL     1       4.513  18.180  20.187  0.00  0.00    +0.000 OA
ATOM     18  C   UNL     1       3.427  14.839  21.319  0.00  0.00    +0.000 C 
ATOM     19  C   UNL     1       2.340  13.985  20.645  0.00  0.00    +0.000 C 
BRANCH  12  26
ATOM     20  C   UNL     1      -1.788  11.859  17.827  0.00  0.00    +0.000 C 
ATOM     21  C   UNL     1      -1.506  12.456  19.173  0.00  0.00    +0.000 A 
ATOM     22  C   UNL     1      -2.361  12.234  20.250  0.00  0.00    +0.000 A 
ATOM     23  C   UNL     1      -2.095  12.822  21.484  0.00  0.00    +0.000 A 
ATOM     24  C   UNL     1      -0.975  13.653  21.664  0.00  0.00    +0.000 A 
ATOM     25  C   UNL     1      -0.808  14.322  23.004  0.00  0.00    +0.000 C 
ATOM     26  C   UNL     1      -0.074  13.865  20.592  0.00  0.00    +0.000 A 
ATOM     27  C   UNL     1      -0.369  13.259  19.357  0.00  0.00    +0.000 A 
ENDBRANCH  12  26
ENDBRANCH   1  16
BRANCH  11  28
ATOM     28  C   UNL     1       9.090  13.419  18.220  0.00  0.00    +0.000 A 
ATOM     29  C   UNL     1       9.146  12.039  18.474  0.00  0.00    +0.000 A 
ATOM     30  C   UNL     1      10.292  11.304  18.153  0.00  0.00    +0.000 A 
ATOM     31  C   UNL     1      11.393  11.937  17.583  0.00  0.00    +0.000 A 
ATOM     32  C   UNL     1      11.351  13.304  17.331  0.00  0.00    +0.000 A 
ATOM     33  C   UNL     1      10.205  14.041  17.643  0.00  0.00    +0.000 A 
ENDBRANCH  11  28
TORSDOF 3
ENDMDL
MODEL 4
REMARK VINA RESULT:      -7.6      3.696     10.109
REMARK  Name = 
REMARK  7 active torsions:
REMARK  status: ('A' for Active; 'I' for Inactive)
REMARK    1  A    between atoms: C_1  and  C_2
REMARK    2  A    between atoms: C_5  and  C_6
REMARK    3  A    between atoms: C_7  and  N_8
REMARK    4  A    between atoms: C_12  and  C_14
REMARK    5  A    between atoms: C_16  and  C_17
REMARK    6  A    between atoms: C_21  and  C_22
REMARK    7  A    between atoms: N_24  and  C_25
REMARK                            x       y       z     vdW  Elec       q    Type
REMARK                         _______ _______ _______ _____ _____    ______ ____
ROOT
ATOM      1  C   UNL     1       0.141  11.490  20.020  0.00  0.00    +0.000 A 
ATOM      2  C   UNL     1      -0.955  11.194  19.203  0.00  0.00    +0.000 A 
ATOM      3  C   UNL     1      -1.582  12.209  18.507  0.00  0.00    +0.000 A 
ATOM      4  C   UNL     1      -2.845  11.943  17.745  0.00  0.00    +0.000 C 
ATOM      5  N   UNL     1      -1.134  13.469  18.478  0.00  0.00    +0.000 NA
ATOM      6  C   UNL     1      -0.002  13.717  19.174  0.00  0.00    +0.000 A 
ATOM      7  C   UNL     1       0.686  12.795  19.968  0.00  0.00    +0.000 A 
ATOM      8  C   UNL     1       1.777  13.545  20.496  0.00  0.00    +0.000 A 
ATOM      9  C   UNL     1       2.868  13.166  21.433  0.00  0.00    +0.000 C 
ATOM     10  N   UNL     1       1.792  14.805  20.040  0.00  0.00    +0.000 NA
ATOM     11  N   UNL     1       0.705  14.913  19.229  0.00  0.00    +0.000 N 
ENDROOT
BRANCH   1  16
ATOM     12  N   UNL     1       2.293   6.852  19.151  0.00  0.00    +0.000 N 
ATOM     13  C   UNL     1       1.752   6.909  20.528  0.00  0.00    +0.000 C 
ATOM     14  C   UNL     1       2.003   8.318  21.102  0.00  0.00    +0.000 C 
ATOM     15  N   UNL     1       1.439   9.368  20.233  0.00  0.00    +0.000 N 
ATOM     16  C   UNL     1       0.738  10.415  20.837  0.00  0.00    +0.000 C 
ATOM     17  O   UNL     1       0.581  10.486  22.053  0.00  0.00    +0.000 OA
ATOM     18  C   UNL     1       1.822   9.231  18.812  0.00  0.00    +0.000 C 
ATOM     19  C   UNL     1       1.600   7.809  18.269  0.00  0.00    +0.000 C 
BRANCH  12  26
ATOM     20  C   UNL     1       1.170   2.041  18.674  0.00  0.00    +0.000 C 
ATOM     21  C   UNL     1       2.023   3.216  18.303  0.00  0.00    +0.000 A 
ATOM     22  C   UNL     1       3.085   3.079  17.412  0.00  0.00    +0.000 A 
ATOM     23  C   UNL     1       3.882   4.178  17.104  0.00  0.00    +0.000 A 
ATOM     24  C   UNL     1       3.641   5.434  17.688  0.00  0.00    +0.000 A 
ATOM     25  C   UNL     1       4.604   6.551  17.371  0.00  0.00    +0.000 C 
ATOM     26  C   UNL     1       2.545   5.604  18.569  0.00  0.00    +0.000 A 
ATOM     27  C   UNL     1       1.759   4.476  18.863  0.00  0.00    +0.000 A 
ENDBRANCH  12  26
ENDBRANCH   1  16
BRANCH  11  28
ATOM     28  C   UNL     1       0.433  16.150  18.563  0.00  0.00    +0.000 A 
ATOM     29  C   UNL     1       1.458  16.793  17.850  0.00  0.00    +0.000 A 
ATOM     30  C   UNL     1       1.211  18.000  17.186  0.00  0.00    +0.000 A 
ATOM     31  C   UNL     1      -0.055  18.578  17.232  0.00  0.00    +0.000 A 
ATOM     32  C   UNL     1      -1.076  17.952  17.938  0.00  0.00    +0.000 A 
ATOM     33  C   UNL     1      -0.836  16.742  18.597  0.00  0.00    +0.000 A 
ENDBRANCH  11  28
TORSDOF 3
ENDMDL
MODEL 5
REMARK VINA RESULT:      -7.5      0.712      1.475
REMARK  Name = 
REMARK  7 active torsions:
REMARK  status: ('A' for Active; 'I' for Inactive)
REMARK    1  A    between atoms: C_1  and  C_2
REMARK    2  A    between atoms: C_5  and  C_6
REMARK    3  A    between atoms: C_7  and  N_8
REMARK    4  A    between atoms: C_12  and  C_14
REMARK    5  A    between atoms: C_16  and  C_17
REMARK    6  A    between atoms: C_21  and  C_22
REMARK    7  A    between atoms: N_24  and  C_25
REMARK                            x       y       z     vdW  Elec       q    Type
REMARK                         _______ _______ _______ _____ _____    ______ ____
ROOT
ATOM      1  C   UNL     1       4.515   6.025  18.327  0.00  0.00    +0.000 A 
ATOM      2  C   UNL     1       5.488   7.031  18.328  0.00  0.00    +0.000 A 
ATOM      3  C   UNL     1       6.455   7.046  17.342  0.00  0.00    +0.000 A 
ATOM      4  C   UNL     1       7.592   8.020  17.405  0.00  0.00    +0.000 C 
ATOM      5  N   UNL     1       6.461   6.205  16.301  0.00  0.00    +0.000 NA
ATOM      6  C   UNL     1       5.444   5.316  16.246  0.00  0.00    +0.000 A 
ATOM      7  C   UNL     1       4.446   5.157  17.211  0.00  0.00    +0.000 A 
ATOM      8  C   UNL     1       3.646   4.092  16.705  0.00  0.00    +0.000 A 
ATOM      9  C   UNL     1       2.444   3.415  17.261  0.00  0.00    +0.000 C 
ATOM     10  N   UNL     1       4.080   3.656  15.515  0.00  0.00    +0.000 NA
ATOM     11  N   UNL     1       5.180   4.404  15.230  0.00  0.00    +0.000 N 
ENDROOT
BRANCH   1  16
ATOM     12  N   UNL     1       0.810   9.082  20.282  0.00  0.00    +0.000 N 
ATOM     13  C   UNL     1       1.312   8.163  21.328  0.00  0.00    +0.000 C 
ATOM     14  C   UNL     1       1.593   6.789  20.688  0.00  0.00    +0.000 C 
ATOM     15  N   UNL     1       2.519   6.899  19.546  0.00  0.00    +0.000 N 
ATOM     16  C   UNL     1       3.549   5.961  19.441  0.00  0.00    +0.000 C 
ATOM     17  O   UNL     1       3.703   5.059  20.261  0.00  0.00    +0.000 OA
ATOM     18  C   UNL     1       2.135   7.940  18.569  0.00  0.00    +0.000 C 
ATOM     19  C   UNL     1       1.821   9.292  19.230  0.00  0.00    +0.000 C 
BRANCH  12  26
ATOM     20  C   UNL     1      -0.792  13.660  19.226  0.00  0.00    +0.000 C 
ATOM     21  C   UNL     1      -0.692  12.510  20.182  0.00  0.00    +0.000 A 
ATOM     22  C   UNL     1      -1.244  12.587  21.459  0.00  0.00    +0.000 A 
ATOM     23  C   UNL     1      -1.115  11.518  22.340  0.00  0.00    +0.000 A 
ATOM     24  C   UNL     1      -0.419  10.353  21.969  0.00  0.00    +0.000 A 
ATOM     25  C   UNL     1      -0.246   9.277  23.011  0.00  0.00    +0.000 C 
ATOM     26  C   UNL     1       0.121  10.239  20.664  0.00  0.00    +0.000 A 
ATOM     27  C   UNL     1      -0.025  11.336  19.796  0.00  0.00    +0.000 A 
ENDBRANCH  12  26
ENDBRANCH   1  16
BRANCH  11  28
ATOM     28  C   UNL     1       5.887   4.194  14.004  0.00  0.00    +0.000 A 
ATOM     29  C   UNL     1       5.382   3.286  13.059  0.00  0.00    +0.000 A 
ATOM     30  C   UNL     1       6.054   3.072  11.851  0.00  0.00    +0.000 A 
ATOM     31  C   UNL     1       7.236   3.754  11.577  0.00  0.00    +0.000 A 
ATOM     32  C   UNL     1       7.749   4.652  12.507  0.00  0.00    +0.000 A 
ATOM     33  C   UNL     1       7.076   4.875  13.712  0.00  0.00    +0.000 A 
ENDBRANCH  11  28
TORSDOF 3
ENDMDL
MODEL 6
REMARK VINA RESULT:      -7.4      7.077      8.840
REMARK  Name = 
REMARK  7 active torsions:
REMARK  status: ('A' for Active; 'I' for Inactive)
REMARK    1  A    between atoms: C_1  and  C_2
REMARK    2  A    between atoms: C_5  and  C_6
REMARK    3  A    between atoms: C_7  and  N_8
REMARK    4  A    between atoms: C_12  and  C_14
REMARK    5  A    between atoms: C_16  and  C_17
REMARK    6  A    between atoms: C_21  and  C_22
REMARK    7  A    between atoms: N_24  and  C_25
REMARK                            x       y       z     vdW  Elec       q    Type
REMARK                         _______ _______ _______ _____ _____    ______ ____
ROOT
ATOM      1  C   UNL     1       5.679  15.706  20.972  0.00  0.00    +0.000 A 
ATOM      2  C   UNL     1       6.489  15.751  22.111  0.00  0.00    +0.000 A 
ATOM      3  C   UNL     1       7.702  15.090  22.114  0.00  0.00    +0.000 A 
ATOM      4  C   UNL     1       8.517  14.998  23.368  0.00  0.00    +0.000 C 
ATOM      5  N   UNL     1       8.213  14.484  21.036  0.00  0.00    +0.000 NA
ATOM      6  C   UNL     1       7.476  14.553  19.906  0.00  0.00    +0.000 A 
ATOM      7  C   UNL     1       6.209  15.133  19.791  0.00  0.00    +0.000 A 
ATOM      8  C   UNL     1       5.859  14.925  18.425  0.00  0.00    +0.000 A 
ATOM      9  C   UNL     1       4.632  15.275  17.661  0.00  0.00    +0.000 C 
ATOM     10  N   UNL     1       6.834  14.311  17.741  0.00  0.00    +0.000 NA
ATOM     11  N   UNL     1       7.826  14.084  18.644  0.00  0.00    +0.000 N 
ENDROOT
BRANCH   1  16
ATOM     12  N   UNL     1       0.759  14.109  20.604  0.00  0.00    +0.000 N 
ATOM     13  C   UNL     1       0.859  15.534  20.216  0.00  0.00    +0.000 C 
ATOM     14  C   UNL     1       1.884  16.228  21.135  0.00  0.00    +0.000 C 
ATOM     15  N   UNL     1       3.191  15.545  21.105  0.00  0.00    +0.000 N 
ATOM     16  C   UNL     1       4.342  16.331  21.017  0.00  0.00    +0.000 C 
ATOM     17  O   UNL     1       4.298  17.558  20.966  0.00  0.00    +0.000 OA
ATOM     18  C   UNL     1       3.102  14.084  21.313  0.00  0.00    +0.000 C 
ATOM     19  C   UNL     1       2.046  13.416  20.416  0.00  0.00    +0.000 C 
BRANCH  12  26
ATOM     20  C   UNL     1      -1.208  10.424  17.921  0.00  0.00    +0.000 C 
ATOM     21  C   UNL     1      -1.376  11.555  18.891  0.00  0.00    +0.000 A 
ATOM     22  C   UNL     1      -2.635  11.905  19.375  0.00  0.00    +0.000 A 
ATOM     23  C   UNL     1      -2.772  12.976  20.252  0.00  0.00    +0.000 A 
ATOM     24  C   UNL     1      -1.655  13.729  20.655  0.00  0.00    +0.000 A 
ATOM     25  C   UNL     1      -1.899  14.929  21.536  0.00  0.00    +0.000 C 
ATOM     26  C   UNL     1      -0.361  13.370  20.203  0.00  0.00    +0.000 A 
ATOM     27  C   UNL     1      -0.255  12.284  19.316  0.00  0.00    +0.000 A 
ENDBRANCH  12  26
ENDBRANCH   1  16
BRANCH  11  28
ATOM     28  C   UNL     1       9.035  13.442  18.227  0.00  0.00    +0.000 A 
ATOM     29  C   UNL     1      10.111  14.221  17.770  0.00  0.00    +0.000 A 
ATOM     30  C   UNL     1      11.305  13.615  17.365  0.00  0.00    +0.000 A 
ATOM     31  C   UNL     1      11.435  12.229  17.406  0.00  0.00    +0.000 A 
ATOM     32  C   UNL     1      10.376  11.447  17.853  0.00  0.00    +0.000 A 
ATOM     33  C   UNL     1       9.183  12.049  18.266  0.00  0.00    +0.000 A 
ENDBRANCH  11  28
TORSDOF 3
ENDMDL
MODEL 7
REMARK VINA RESULT:      -7.3      3.384      9.981
REMARK  Name = 
REMARK  7 active torsions:
REMARK  status: ('A' for Active; 'I' for Inactive)
REMARK    1  A    between atoms: C_1  and  C_2
REMARK    2  A    between atoms: C_5  and  C_6
REMARK    3  A    between atoms: C_7  and  N_8
REMARK    4  A    between atoms: C_12  and  C_14
REMARK    5  A    between atoms: C_16  and  C_17
REMARK    6  A    between atoms: C_21  and  C_22
REMARK    7  A    between atoms: N_24  and  C_25
REMARK                            x       y       z     vdW  Elec       q    Type
REMARK                         _______ _______ _______ _____ _____    ______ ____
ROOT
ATOM      1  C   UNL     1      -0.112  10.820  19.568  0.00  0.00    +0.000 A 
ATOM      2  C   UNL     1      -1.084  10.642  18.579  0.00  0.00    +0.000 A 
ATOM      3  C   UNL     1      -1.588  11.741  17.911  0.00  0.00    +0.000 A 
ATOM      4  C   UNL     1      -2.733  11.593  16.956  0.00  0.00    +0.000 C 
ATOM      5  N   UNL     1      -1.120  12.983  18.078  0.00  0.00    +0.000 NA
ATOM      6  C   UNL     1      -0.096  13.124  18.948  0.00  0.00    +0.000 A 
ATOM      7  C   UNL     1       0.456  12.106  19.730  0.00  0.00    +0.000 A 
ATOM      8  C   UNL     1       1.472  12.764  20.483  0.00  0.00    +0.000 A 
ATOM      9  C   UNL     1       2.412  12.258  21.519  0.00  0.00    +0.000 C 
ATOM     10  N   UNL     1       1.573  14.063  20.168  0.00  0.00    +0.000 NA
ATOM     11  N   UNL     1       0.616  14.286  19.228  0.00  0.00    +0.000 N 
ENDROOT
BRANCH   1  16
ATOM     12  N   UNL     1       3.012   6.758  18.771  0.00  0.00    +0.000 N 
ATOM     13  C   UNL     1       2.021   6.435  19.822  0.00  0.00    +0.000 C 
ATOM     14  C   UNL     1       1.794   7.688  20.691  0.00  0.00    +0.000 C 
ATOM     15  N   UNL     1       1.391   8.850  19.877  0.00  0.00    +0.000 N 
ATOM     16  C   UNL     1       0.345   9.649  20.344  0.00  0.00    +0.000 C 
ATOM     17  O   UNL     1      -0.240   9.417  21.399  0.00  0.00    +0.000 OA
ATOM     18  C   UNL     1       2.267   9.089  18.710  0.00  0.00    +0.000 C 
ATOM     19  C   UNL     1       2.513   7.819  17.878  0.00  0.00    +0.000 C 
BRANCH  12  26
ATOM     20  C   UNL     1       7.208   4.807  16.974  0.00  0.00    +0.000 C 
ATOM     21  C   UNL     1       5.731   4.711  17.212  0.00  0.00    +0.000 A 
ATOM     22  C   UNL     1       5.002   3.613  16.761  0.00  0.00    +0.000 A 
ATOM     23  C   UNL     1       3.626   3.557  16.968  0.00  0.00    +0.000 A 
ATOM     24  C   UNL     1       2.949   4.603  17.619  0.00  0.00    +0.000 A 
ATOM     25  C   UNL     1       1.448   4.508  17.724  0.00  0.00    +0.000 C 
ATOM     26  C   UNL     1       3.676   5.713  18.116  0.00  0.00    +0.000 A 
ATOM     27  C   UNL     1       5.064   5.742  17.891  0.00  0.00    +0.000 A 
ENDBRANCH  12  26
ENDBRANCH   1  16
BRANCH  11  28
ATOM     28  C   UNL     1       0.462  15.592  18.663  0.00  0.00    +0.000 A 
ATOM     29  C   UNL     1       1.572  16.237  18.095  0.00  0.00    +0.000 A 
ATOM     30  C   UNL     1       1.442  17.511  17.531  0.00  0.00    +0.000 A 
ATOM     31  C   UNL     1       0.208  18.155  17.534  0.00  0.00    +0.000 A 
ATOM     32  C   UNL     1      -0.898  17.528  18.098  0.00  0.00    +0.000 A 
ATOM     33  C   UNL     1      -0.775  16.252  18.656  0.00  0.00    +0.000 A 
ENDBRANCH  11  28
TORSDOF 3
ENDMDL
MODEL 8
REMARK VINA RESULT:      -7.3      8.410      9.923
REMARK  Name = 
REMARK  7 active torsions:
REMARK  status: ('A' for Active; 'I' for Inactive)
REMARK    1  A    between atoms: C_1  and  C_2
REMARK    2  A    between atoms: C_5  and  C_6
REMARK    3  A    between atoms: C_7  and  N_8
REMARK    4  A    between atoms: C_12  and  C_14
REMARK    5  A    between atoms: C_16  and  C_17
REMARK    6  A    between atoms: C_21  and  C_22
REMARK    7  A    between atoms: N_24  and  C_25
REMARK                            x       y       z     vdW  Elec       q    Type
REMARK                         _______ _______ _______ _____ _____    ______ ____
ROOT
ATOM      1  C   UNL     1       6.500  15.000  22.907  0.00  0.00    +0.000 A 
ATOM      2  C   UNL     1       6.739  14.031  23.887  0.00  0.00    +0.000 A 
ATOM      3  C   UNL     1       7.587  12.976  23.612  0.00  0.00    +0.000 A 
ATOM      4  C   UNL     1       7.743  11.850  24.587  0.00  0.00    +0.000 C 
ATOM      5  N   UNL     1       8.293  12.874  22.480  0.00  0.00    +0.000 NA
ATOM      6  C   UNL     1       8.146  13.881  21.591  0.00  0.00    +0.000 A 
ATOM      7  C   UNL     1       7.274  14.966  21.723  0.00  0.00    +0.000 A 
ATOM      8  C   UNL     1       7.476  15.715  20.527  0.00  0.00    +0.000 A 
ATOM      9  C   UNL     1       6.838  16.964  20.032  0.00  0.00    +0.000 C 
ATOM     10  N   UNL     1       8.416  15.172  19.743  0.00  0.00    +0.000 NA
ATOM     11  N   UNL     1       8.829  14.050  20.391  0.00  0.00    +0.000 N 
ENDROOT
BRANCH   1  16
ATOM     12  N   UNL     1       2.060  16.654  20.798  0.00  0.00    +0.000 N 
ATOM     13  C   UNL     1       2.708  17.757  21.543  0.00  0.00    +0.000 C 
ATOM     14  C   UNL     1       3.349  17.183  22.822  0.00  0.00    +0.000 C 
ATOM     15  N   UNL     1       4.285  16.085  22.517  0.00  0.00    +0.000 N 
ATOM     16  C   UNL     1       5.515  16.067  23.178  0.00  0.00    +0.000 C 
ATOM     17  O   UNL     1       5.834  16.925  23.997  0.00  0.00    +0.000 OA
ATOM     18  C   UNL     1       3.718  15.052  21.624  0.00  0.00    +0.000 C 
ATOM     19  C   UNL     1       3.049  15.647  20.373  0.00  0.00    +0.000 C 
BRANCH  12  26
ATOM     20  C   UNL     1       0.872  18.553  16.369  0.00  0.00    +0.000 C 
ATOM     21  C   UNL     1       0.459  17.890  17.647  0.00  0.00    +0.000 A 
ATOM     22  C   UNL     1      -0.878  17.601  17.907  0.00  0.00    +0.000 A 
ATOM     23  C   UNL     1      -1.243  17.010  19.114  0.00  0.00    +0.000 A 
ATOM     24  C   UNL     1      -0.279  16.706  20.091  0.00  0.00    +0.000 A 
ATOM     25  C   UNL     1      -0.765  16.150  21.406  0.00  0.00    +0.000 C 
ATOM     26  C   UNL     1       1.091  16.959  19.835  0.00  0.00    +0.000 A 
ATOM     27  C   UNL     1       1.429  17.558  18.607  0.00  0.00    +0.000 A 
ENDBRANCH  12  26
ENDBRANCH   1  16
BRANCH  11  28
ATOM     28  C   UNL     1       9.853  13.231  19.817  0.00  0.00    +0.000 A 
ATOM     29  C   UNL     1       9.495  12.139  19.010  0.00  0.00    +0.000 A 
ATOM     30  C   UNL     1      10.480  11.330  18.433  0.00  0.00    +0.000 A 
ATOM     31  C   UNL     1      11.827  11.597  18.660  0.00  0.00    +0.000 A 
ATOM     32  C   UNL     1      12.193  12.673  19.461  0.00  0.00    +0.000 A 
ATOM     33  C   UNL     1      11.213  13.489  20.034  0.00  0.00    +0.000 A 
ENDBRANCH  11  28
TORSDOF 3
ENDMDL
MODEL 9
REMARK VINA RESULT:      -7.2      3.704     10.483
REMARK  Name = 
REMARK  7 active torsions:
REMARK  status: ('A' for Active; 'I' for Inactive)
REMARK    1  A    between atoms: C_1  and  C_2
REMARK    2  A    between atoms: C_5  and  C_6
REMARK    3  A    between atoms: C_7  and  N_8
REMARK    4  A    between atoms: C_12  and  C_14
REMARK    5  A    between atoms: C_16  and  C_17
REMARK    6  A    between atoms: C_21  and  C_22
REMARK    7  A    between atoms: N_24  and  C_25
REMARK                            x       y       z     vdW  Elec       q    Type
REMARK                         _______ _______ _______ _____ _____    ______ ____
ROOT
ATOM      1  C   UNL     1      -0.666  11.935  21.142  0.00  0.00    +0.000 A 
ATOM      2  C   UNL     1      -2.015  11.726  20.836  0.00  0.00    +0.000 A 
ATOM      3  C   UNL     1      -2.751  12.745  20.264  0.00  0.00    +0.000 A 
ATOM      4  C   UNL     1      -4.229  12.598  20.064  0.00  0.00    +0.000 C 
ATOM      5  N   UNL     1      -2.221  13.911  19.877  0.00  0.00    +0.000 NA
ATOM      6  C   UNL     1      -0.890  14.054  20.067  0.00  0.00    +0.000 A 
ATOM      7  C   UNL     1      -0.051  13.127  20.692  0.00  0.00    +0.000 A 
ATOM      8  C   UNL     1       1.230  13.752  20.664  0.00  0.00    +0.000 A 
ATOM      9  C   UNL     1       2.550  13.311  21.188  0.00  0.00    +0.000 C 
ATOM     10  N   UNL     1       1.201  14.938  20.042  0.00  0.00    +0.000 NA
ATOM     11  N   UNL     1      -0.096  15.126  19.674  0.00  0.00    +0.000 N 
ENDROOT
BRANCH   1  16
ATOM     12  N   UNL     1       1.907   7.632  19.818  0.00  0.00    +0.000 N 
ATOM     13  C   UNL     1       1.438   7.530  21.218  0.00  0.00    +0.000 C 
ATOM     14  C   UNL     1       1.571   8.912  21.888  0.00  0.00    +0.000 C 
ATOM     15  N   UNL     1       0.856   9.956  21.130  0.00  0.00    +0.000 N 
ATOM     16  C   UNL     1       0.083  10.874  21.845  0.00  0.00    +0.000 C 
ATOM     17  O   UNL     1      -0.016  10.839  23.068  0.00  0.00    +0.000 OA
ATOM     18  C   UNL     1       1.174   9.964  19.686  0.00  0.00    +0.000 C 
ATOM     19  C   UNL     1       1.073   8.570  19.045  0.00  0.00    +0.000 C 
BRANCH  12  26
ATOM     20  C   UNL     1       1.402   2.740  19.145  0.00  0.00    +0.000 C 
ATOM     21  C   UNL     1       2.037   4.042  18.763  0.00  0.00    +0.000 A 
ATOM     22  C   UNL     1       2.996   4.105  17.754  0.00  0.00    +0.000 A 
ATOM     23  C   UNL     1       3.594   5.320  17.434  0.00  0.00    +0.000 A 
ATOM     24  C   UNL     1       3.254   6.498  18.124  0.00  0.00    +0.000 A 
ATOM     25  C   UNL     1       4.012   7.755  17.779  0.00  0.00    +0.000 C 
ATOM     26  C   UNL     1       2.257   6.464  19.129  0.00  0.00    +0.000 A 
ATOM     27  C   UNL     1       1.672   5.221  19.431  0.00  0.00    +0.000 A 
ENDBRANCH  12  26
ENDBRANCH   1  16
BRANCH  11  28
ATOM     28  C   UNL     1      -0.472  16.311  18.967  0.00  0.00    +0.000 A 
ATOM     29  C   UNL     1       0.299  16.741  17.874  0.00  0.00    +0.000 A 
ATOM     30  C   UNL     1      -0.055  17.893  17.165  0.00  0.00    +0.000 A 
ATOM     31  C   UNL     1      -1.175  18.630  17.540  0.00  0.00    +0.000 A 
ATOM     32  C   UNL     1      -1.944  18.217  18.623  0.00  0.00    +0.000 A 
ATOM     33  C   UNL     1      -1.598  17.062  19.330  0.00  0.00    +0.000 A 
ENDBRANCH  11  28
TORSDOF 3
ENDMDL
