MODEL 1
REMARK VINA RESULT:      -7.4      0.000      0.000
REMARK  Name = 
REMARK  11 active torsions:
REMARK  status: ('A' for Active; 'I' for Inactive)
REMARK    1  A    between atoms: C_1  and  O_2
REMARK    2  A    between atoms: O_2  and  C_3
REMARK    3  A    between atoms: C_3  and  C_4
REMARK    4  A    between atoms: C_4  and  N_5
REMARK    5  A    between atoms: N_5  and  C_6
REMARK    6  A    between atoms: N_5  and  S_23
REMARK    7  A    between atoms: C_6  and  C_7
REMARK    8  A    between atoms: C_7  and  O_8
REMARK    9  A    between atoms: C_7  and  C_9
REMARK   10  A    between atoms: C_9  and  N_10
REMARK   11  A    between atoms: S_23  and  C_24
REMARK                            x       y       z     vdW  Elec       q    Type
REMARK                         _______ _______ _______ _____ _____    ______ ____
ROOT
ATOM      1  C   UNL     1       2.503   7.671  18.998  0.00  0.00    +0.000 C 
ENDROOT
BRANCH   1   2
ATOM      2  N   UNL     1       2.763   6.305  18.570  0.00  0.00    +0.000 N 
ATOM      3  C   UNL     1       2.249   5.175  19.170  0.00  0.00    +0.000 A 
ATOM      4  C   UNL     1       1.350   5.024  20.240  0.00  0.00    +0.000 A 
ATOM      5  C   UNL     1       1.026   3.726  20.648  0.00  0.00    +0.000 A 
ATOM      6  C   UNL     1       1.573   2.619  20.009  0.00  0.00    +0.000 A 
ATOM      7  C   UNL     1       2.465   2.781  18.944  0.00  0.00    +0.000 A 
ATOM      8  C   UNL     1       2.816   4.078  18.517  0.00  0.00    +0.000 A 
ATOM      9  C   UNL     1       3.710   4.581  17.516  0.00  0.00    +0.000 A 
ATOM     10  C   UNL     1       4.563   3.970  16.571  0.00  0.00    +0.000 A 
ATOM     11  C   UNL     1       5.375   4.764  15.751  0.00  0.00    +0.000 A 
ATOM     12  C   UNL     1       5.362   6.147  15.873  0.00  0.00    +0.000 A 
ATOM     13  C   UNL     1       4.529   6.775  16.799  0.00  0.00    +0.000 A 
ATOM     14  C   UNL     1       3.692   5.972  17.598  0.00  0.00    +0.000 A 
ENDBRANCH   1   2
BRANCH   1  15
ATOM     15  C   UNL     1       1.744   8.540  17.989  0.00  0.00    +0.000 C 
BRANCH  15  16
ATOM     16  O   UNL     1       2.576   9.447  17.257  0.00  0.00    +0.000 OA
ATOM     17  H   UNL     1       3.376   8.978  16.967  0.00  0.00    +0.000 HD
ENDBRANCH  15  16
BRANCH  15  18
ATOM     18  C   UNL     1       0.566   9.331  18.609  0.00  0.00    +0.000 C 
BRANCH  18  19
ATOM     19  N   UNL     1       0.817  10.063  19.909  0.00  0.00    +0.000 NA
BRANCH  19  20
ATOM     20  S   UNL     1       1.063  11.745  19.807  0.00  0.00    +0.000 S 
ATOM     21  C   UNL     1      -0.538  12.393  19.399  0.00  0.00    +0.000 C 
ATOM     22  O   UNL     1       1.422  12.214  21.125  0.00  0.00    +0.000 OA
ATOM     23  O   UNL     1       1.912  12.003  18.661  0.00  0.00    +0.000 OA
ENDBRANCH  19  20
BRANCH  19  24
ATOM     24  C   UNL     1       0.067   9.599  21.111  0.00  0.00    +0.000 C 
BRANCH  24  25
ATOM     25  C   UNL     1       0.922   9.161  22.302  0.00  0.00    +0.000 C 
BRANCH  25  27
ATOM     26  C   UNL     1      -0.889  10.396  23.217  0.00  0.00    +0.000 C 
ATOM     27  O   UNL     1       0.368   9.783  23.471  0.00  0.00    +0.000 OA
ENDBRANCH  25  27
ENDBRANCH  24  25
ENDBRANCH  19  24
ENDBRANCH  18  19
ENDBRANCH  15  18
ENDBRANCH   1  15
TORSDOF 9
ENDMDL
MODEL 2
REMARK VINA RESULT:      -7.2      0.126      3.144
REMARK  Name = 
REMARK  11 active torsions:
REMARK  status: ('A' for Active; 'I' for Inactive)
REMARK    1  A    between atoms: C_1  and  O_2
REMARK    2  A    between atoms: O_2  and  C_3
REMARK    3  A    between atoms: C_3  and  C_4
REMARK    4  A    between atoms: C_4  and  N_5
REMARK    5  A    between atoms: N_5  and  C_6
REMARK    6  A    between atoms: N_5  and  S_23
REMARK    7  A    between atoms: C_6  and  C_7
REMARK    8  A    between atoms: C_7  and  O_8
REMARK    9  A    between atoms: C_7  and  C_9
REMARK   10  A    between atoms: C_9  and  N_10
REMARK   11  A    between atoms: S_23  and  C_24
REMARK                            x       y       z     vdW  Elec       q    Type
REMARK                         _______ _______ _______ _____ _____    ______ ____
ROOT
ATOM      1  C   UNL     1       2.557   7.585  19.137  0.00  0.00    +0.000 C 
ENDROOT
BRANCH   1   2
ATOM      2  N   UNL     1       2.923   6.239  18.722  0.00  0.00    +0.000 N 
ATOM      3  C   UNL     1       3.784   5.933  17.690  0.00  0.00    +0.000 A 
ATOM      4  C   UNL     1       4.546   6.760  16.846  0.00  0.00    +0.000 A 
ATOM      5  C   UNL     1       5.323   6.151  15.856  0.00  0.00    +0.000 A 
ATOM      6  C   UNL     1       5.346   4.768  15.716  0.00  0.00    +0.000 A 
ATOM      7  C   UNL     1       4.586   3.954  16.562  0.00  0.00    +0.000 A 
ATOM      8  C   UNL     1       3.786   4.543  17.564  0.00  0.00    +0.000 A 
ATOM      9  C   UNL     1       2.879   4.015  18.540  0.00  0.00    +0.000 A 
ATOM     10  C   UNL     1       2.455   2.711  18.877  0.00  0.00    +0.000 A 
ATOM     11  C   UNL     1       1.483   2.531  19.870  0.00  0.00    +0.000 A 
ATOM     12  C   UNL     1       0.919   3.624  20.513  0.00  0.00    +0.000 A 
ATOM     13  C   UNL     1       1.321   4.922  20.197  0.00  0.00    +0.000 A 
ATOM     14  C   UNL     1       2.321   5.096  19.220  0.00  0.00    +0.000 A 
ENDBRANCH   1   2
BRANCH   1  15
ATOM     15  C   UNL     1       1.796   8.408  18.092  0.00  0.00    +0.000 C 
BRANCH  15  16
ATOM     16  O   UNL     1       2.622   9.299  17.335  0.00  0.00    +0.000 OA
ATOM     17  H   UNL     1       3.048   9.926  17.942  0.00  0.00    +0.000 HD
ENDBRANCH  15  16
BRANCH  15  18
ATOM     18  C   UNL     1       0.604   9.206  18.674  0.00  0.00    +0.000 C 
BRANCH  18  19
ATOM     19  N   UNL     1       0.832   9.976  19.956  0.00  0.00    +0.000 NA
BRANCH  19  20
ATOM     20  S   UNL     1       1.092  11.653  19.807  0.00  0.00    +0.000 S 
ATOM     21  C   UNL     1      -0.513  12.309  19.429  0.00  0.00    +0.000 C 
ATOM     22  O   UNL     1       1.494  12.148  21.103  0.00  0.00    +0.000 OA
ATOM     23  O   UNL     1       1.910  11.875  18.632  0.00  0.00    +0.000 OA
ENDBRANCH  19  20
BRANCH  19  24
ATOM     24  C   UNL     1       0.053   9.555  21.155  0.00  0.00    +0.000 C 
BRANCH  24  25
ATOM     25  C   UNL     1       0.877   9.184  22.389  0.00  0.00    +0.000 C 
BRANCH  25  27
ATOM     26  C   UNL     1      -0.962  10.454  23.193  0.00  0.00    +0.000 C 
ATOM     27  O   UNL     1       0.293   9.866  23.509  0.00  0.00    +0.000 OA
ENDBRANCH  25  27
ENDBRANCH  24  25
ENDBRANCH  19  24
ENDBRANCH  18  19
ENDBRANCH  15  18
ENDBRANCH   1  15
TORSDOF 9
ENDMDL
MODEL 3
REMARK VINA RESULT:      -7.0      1.507      2.567
REMARK  Name = 
REMARK  11 active torsions:
REMARK  status: ('A' for Active; 'I' for Inactive)
REMARK    1  A    between atoms: C_1  and  O_2
REMARK    2  A    between atoms: O_2  and  C_3
REMARK    3  A    between atoms: C_3  and  C_4
REMARK    4  A    between atoms: C_4  and  N_5
REMARK    5  A    between atoms: N_5  and  C_6
REMARK    6  A    between atoms: N_5  and  S_23
REMARK    7  A    between atoms: C_6  and  C_7
REMARK    8  A    between atoms: C_7  and  O_8
REMARK    9  A    between atoms: C_7  and  C_9
REMARK   10  A    between atoms: C_9  and  N_10
REMARK   11  A    between atoms: S_23  and  C_24
REMARK                            x       y       z     vdW  Elec       q    Type
REMARK                         _______ _______ _______ _____ _____    ______ ____
ROOT
ATOM      1  C   UNL     1       2.592   7.310  19.550  0.00  0.00    +0.000 C 
ENDROOT
BRANCH   1   2
ATOM      2  N   UNL     1       2.791   6.084  18.793  0.00  0.00    +0.000 N 
ATOM      3  C   UNL     1       2.182   4.877  19.063  0.00  0.00    +0.000 A 
ATOM      4  C   UNL     1       1.223   4.521  20.027  0.00  0.00    +0.000 A 
ATOM      5  C   UNL     1       0.803   3.188  20.075  0.00  0.00    +0.000 A 
ATOM      6  C   UNL     1       1.314   2.245  19.190  0.00  0.00    +0.000 A 
ATOM      7  C   UNL     1       2.266   2.611  18.233  0.00  0.00    +0.000 A 
ATOM      8  C   UNL     1       2.714   3.947  18.168  0.00  0.00    +0.000 A 
ATOM      9  C   UNL     1       3.685   4.624  17.361  0.00  0.00    +0.000 A 
ATOM     10  C   UNL     1       4.547   4.217  16.319  0.00  0.00    +0.000 A 
ATOM     11  C   UNL     1       5.444   5.136  15.760  0.00  0.00    +0.000 A 
ATOM     12  C   UNL     1       5.508   6.439  16.234  0.00  0.00    +0.000 A 
ATOM     13  C   UNL     1       4.668   6.865  17.263  0.00  0.00    +0.000 A 
ATOM     14  C   UNL     1       3.746   5.946  17.799  0.00  0.00    +0.000 A 
ENDBRANCH   1   2
BRANCH   1  15
ATOM     15  C   UNL     1       1.535   8.265  18.984  0.00  0.00    +0.000 C 
BRANCH  15  16
ATOM     16  O   UNL     1       1.665   8.513  17.580  0.00  0.00    +0.000 OA
ATOM     17  H   UNL     1       2.550   8.235  17.291  0.00  0.00    +0.000 HD
ENDBRANCH  15  16
BRANCH  15  18
ATOM     18  C   UNL     1       1.459   9.622  19.726  0.00  0.00    +0.000 C 
BRANCH  18  19
ATOM     19  N   UNL     1       0.170   9.963  20.439  0.00  0.00    +0.000 NA
BRANCH  19  20
ATOM     20  S   UNL     1       0.024   9.440  22.053  0.00  0.00    +0.000 S 
ATOM     21  C   UNL     1      -0.903  10.731  22.844  0.00  0.00    +0.000 C 
ATOM     22  O   UNL     1      -0.778   8.239  22.051  0.00  0.00    +0.000 OA
ATOM     23  O   UNL     1       1.344   9.461  22.650  0.00  0.00    +0.000 OA
ENDBRANCH  19  20
BRANCH  19  24
ATOM     24  C   UNL     1      -0.449  11.286  20.138  0.00  0.00    +0.000 C 
BRANCH  24  25
ATOM     25  C   UNL     1      -1.660  11.258  19.204  0.00  0.00    +0.000 C 
BRANCH  25  27
ATOM     26  C   UNL     1      -1.935  10.092  17.153  0.00  0.00    +0.000 C 
ATOM     27  O   UNL     1      -1.654   9.985  18.542  0.00  0.00    +0.000 OA
ENDBRANCH  25  27
ENDBRANCH  24  25
ENDBRANCH  19  24
ENDBRANCH  18  19
ENDBRANCH  15  18
ENDBRANCH   1  15
TORSDOF 9
ENDMDL
MODEL 4
REMARK VINA RESULT:      -6.9      1.820      2.585
REMARK  Name = 
REMARK  11 active torsions:
REMARK  status: ('A' for Active; 'I' for Inactive)
REMARK    1  A    between atoms: C_1  and  O_2
REMARK    2  A    between atoms: O_2  and  C_3
REMARK    3  A    between atoms: C_3  and  C_4
REMARK    4  A    between atoms: C_4  and  N_5
REMARK    5  A    between atoms: N_5  and  C_6
REMARK    6  A    between atoms: N_5  and  S_23
REMARK    7  A    between atoms: C_6  and  C_7
REMARK    8  A    between atoms: C_7  and  O_8
REMARK    9  A    between atoms: C_7  and  C_9
REMARK   10  A    between atoms: C_9  and  N_10
REMARK   11  A    between atoms: S_23  and  C_24
REMARK                            x       y       z     vdW  Elec       q    Type
REMARK                         _______ _______ _______ _____ _____    ______ ____
ROOT
ATOM      1  C   UNL     1       2.650   7.285  19.325  0.00  0.00    +0.000 C 
ENDROOT
BRANCH   1   2
ATOM      2  N   UNL     1       2.836   6.029  18.615  0.00  0.00    +0.000 N 
ATOM      3  C   UNL     1       2.210   4.841  18.927  0.00  0.00    +0.000 A 
ATOM      4  C   UNL     1       1.244   4.533  19.901  0.00  0.00    +0.000 A 
ATOM      5  C   UNL     1       0.807   3.209  19.997  0.00  0.00    +0.000 A 
ATOM      6  C   UNL     1       1.308   2.227  19.150  0.00  0.00    +0.000 A 
ATOM      7  C   UNL     1       2.268   2.545  18.183  0.00  0.00    +0.000 A 
ATOM      8  C   UNL     1       2.734   3.871  18.070  0.00  0.00    +0.000 A 
ATOM      9  C   UNL     1       3.715   4.506  17.241  0.00  0.00    +0.000 A 
ATOM     10  C   UNL     1       4.575   4.048  16.218  0.00  0.00    +0.000 A 
ATOM     11  C   UNL     1       5.486   4.934  15.628  0.00  0.00    +0.000 A 
ATOM     12  C   UNL     1       5.565   6.253  16.053  0.00  0.00    +0.000 A 
ATOM     13  C   UNL     1       4.727   6.729  17.062  0.00  0.00    +0.000 A 
ATOM     14  C   UNL     1       3.792   5.842  17.630  0.00  0.00    +0.000 A 
ENDBRANCH   1   2
BRANCH   1  15
ATOM     15  C   UNL     1       1.731   8.299  18.633  0.00  0.00    +0.000 C 
BRANCH  15  16
ATOM     16  O   UNL     1       2.339   8.980  17.530  0.00  0.00    +0.000 OA
ATOM     17  H   UNL     1       3.208   9.316  17.807  0.00  0.00    +0.000 HD
ENDBRANCH  15  16
BRANCH  15  18
ATOM     18  C   UNL     1       1.124   9.348  19.595  0.00  0.00    +0.000 C 
BRANCH  18  19
ATOM     19  N   UNL     1       0.293  10.459  18.992  0.00  0.00    +0.000 NA
BRANCH  19  20
ATOM     20  S   UNL     1       1.032  11.989  18.866  0.00  0.00    +0.000 S 
ATOM     21  C   UNL     1       1.353  12.455  20.548  0.00  0.00    +0.000 C 
ATOM     22  O   UNL     1       2.297  11.807  18.193  0.00  0.00    +0.000 OA
ATOM     23  O   UNL     1       0.043  12.921  18.366  0.00  0.00    +0.000 OA
ENDBRANCH  19  20
BRANCH  19  24
ATOM     24  C   UNL     1      -0.622  10.098  17.872  0.00  0.00    +0.000 C 
BRANCH  24  25
ATOM     25  C   UNL     1      -2.118  10.156  18.188  0.00  0.00    +0.000 C 
BRANCH  25  27
ATOM     26  C   UNL     1      -2.598  10.406  15.875  0.00  0.00    +0.000 C 
ATOM     27  O   UNL     1      -2.811   9.631  17.046  0.00  0.00    +0.000 OA
ENDBRANCH  25  27
ENDBRANCH  24  25
ENDBRANCH  19  24
ENDBRANCH  18  19
ENDBRANCH  15  18
ENDBRANCH   1  15
TORSDOF 9
ENDMDL
MODEL 5
REMARK VINA RESULT:      -6.9      1.567      4.081
REMARK  Name = 
REMARK  11 active torsions:
REMARK  status: ('A' for Active; 'I' for Inactive)
REMARK    1  A    between atoms: C_1  and  O_2
REMARK    2  A    between atoms: O_2  and  C_3
REMARK    3  A    between atoms: C_3  and  C_4
REMARK    4  A    between atoms: C_4  and  N_5
REMARK    5  A    between atoms: N_5  and  C_6
REMARK    6  A    between atoms: N_5  and  S_23
REMARK    7  A    between atoms: C_6  and  C_7
REMARK    8  A    between atoms: C_7  and  O_8
REMARK    9  A    between atoms: C_7  and  C_9
REMARK   10  A    between atoms: C_9  and  N_10
REMARK   11  A    between atoms: S_23  and  C_24
REMARK                            x       y       z     vdW  Elec       q    Type
REMARK                         _______ _______ _______ _____ _____    ______ ____
ROOT
ATOM      1  C   UNL     1       2.608   7.398  19.646  0.00  0.00    +0.000 C 
ENDROOT
BRANCH   1   2
ATOM      2  N   UNL     1       2.902   6.137  18.982  0.00  0.00    +0.000 N 
ATOM      3  C   UNL     1       3.759   5.984  17.914  0.00  0.00    +0.000 A 
ATOM      4  C   UNL     1       4.580   6.910  17.247  0.00  0.00    +0.000 A 
ATOM      5  C   UNL     1       5.335   6.456  16.161  0.00  0.00    +0.000 A 
ATOM      6  C   UNL     1       5.281   5.127  15.759  0.00  0.00    +0.000 A 
ATOM      7  C   UNL     1       4.463   4.213  16.431  0.00  0.00    +0.000 A 
ATOM      8  C   UNL     1       3.684   4.645  17.524  0.00  0.00    +0.000 A 
ATOM      9  C   UNL     1       2.733   3.995  18.378  0.00  0.00    +0.000 A 
ATOM     10  C   UNL     1       2.231   2.678  18.457  0.00  0.00    +0.000 A 
ATOM     11  C   UNL     1       1.236   2.370  19.394  0.00  0.00    +0.000 A 
ATOM     12  C   UNL     1       0.726   3.352  20.232  0.00  0.00    +0.000 A 
ATOM     13  C   UNL     1       1.206   4.660  20.173  0.00  0.00    +0.000 A 
ATOM     14  C   UNL     1       2.228   4.957  19.250  0.00  0.00    +0.000 A 
ENDBRANCH   1   2
BRANCH   1  15
ATOM     15  C   UNL     1       1.513   8.245  18.987  0.00  0.00    +0.000 C 
BRANCH  15  16
ATOM     16  O   UNL     1       1.694   8.443  17.581  0.00  0.00    +0.000 OA
ATOM     17  H   UNL     1       2.108   7.650  17.201  0.00  0.00    +0.000 HD
ENDBRANCH  15  16
BRANCH  15  18
ATOM     18  C   UNL     1       1.299   9.621  19.663  0.00  0.00    +0.000 C 
BRANCH  18  19
ATOM     19  N   UNL     1       0.003   9.845  20.410  0.00  0.00    +0.000 NA
BRANCH  19  20
ATOM     20  S   UNL     1      -0.018   9.412  22.057  0.00  0.00    +0.000 S 
ATOM     21  C   UNL     1      -0.919  10.727  22.839  0.00  0.00    +0.000 C 
ATOM     22  O   UNL     1      -0.788   8.196  22.178  0.00  0.00    +0.000 OA
ATOM     23  O   UNL     1       1.340   9.494  22.557  0.00  0.00    +0.000 OA
ENDBRANCH  19  20
BRANCH  19  24
ATOM     24  C   UNL     1      -0.789  11.058  20.059  0.00  0.00    +0.000 C 
BRANCH  24  25
ATOM     25  C   UNL     1      -1.236  11.164  18.599  0.00  0.00    +0.000 C 
BRANCH  25  27
ATOM     26  C   UNL     1      -2.488   9.947  16.988  0.00  0.00    +0.000 C 
ATOM     27  O   UNL     1      -1.831   9.906  18.248  0.00  0.00    +0.000 OA
ENDBRANCH  25  27
ENDBRANCH  24  25
ENDBRANCH  19  24
ENDBRANCH  18  19
ENDBRANCH  15  18
ENDBRANCH   1  15
TORSDOF 9
ENDMDL
MODEL 6
REMARK VINA RESULT:      -6.9      1.320      3.223
REMARK  Name = 
REMARK  11 active torsions:
REMARK  status: ('A' for Active; 'I' for Inactive)
REMARK    1  A    between atoms: C_1  and  O_2
REMARK    2  A    between atoms: O_2  and  C_3
REMARK    3  A    between atoms: C_3  and  C_4
REMARK    4  A    between atoms: C_4  and  N_5
REMARK    5  A    between atoms: N_5  and  C_6
REMARK    6  A    between atoms: N_5  and  S_23
REMARK    7  A    between atoms: C_6  and  C_7
REMARK    8  A    between atoms: C_7  and  O_8
REMARK    9  A    between atoms: C_7  and  C_9
REMARK   10  A    between atoms: C_9  and  N_10
REMARK   11  A    between atoms: S_23  and  C_24
REMARK                            x       y       z     vdW  Elec       q    Type
REMARK                         _______ _______ _______ _____ _____    ______ ____
ROOT
ATOM      1  C   UNL     1       2.345   7.156  17.790  0.00  0.00    +0.000 C 
ENDROOT
BRANCH   1   2
ATOM      2  N   UNL     1       3.232   6.008  17.893  0.00  0.00    +0.000 N 
ATOM      3  C   UNL     1       4.595   6.038  17.691  0.00  0.00    +0.000 A 
ATOM      4  C   UNL     1       5.465   7.106  17.410  0.00  0.00    +0.000 A 
ATOM      5  C   UNL     1       6.821   6.820  17.230  0.00  0.00    +0.000 A 
ATOM      6  C   UNL     1       7.296   5.517  17.332  0.00  0.00    +0.000 A 
ATOM      7  C   UNL     1       6.423   4.461  17.614  0.00  0.00    +0.000 A 
ATOM      8  C   UNL     1       5.048   4.721  17.792  0.00  0.00    +0.000 A 
ATOM      9  C   UNL     1       3.910   3.886  18.040  0.00  0.00    +0.000 A 
ATOM     10  C   UNL     1       3.736   2.496  18.215  0.00  0.00    +0.000 A 
ATOM     11  C   UNL     1       2.448   1.973  18.386  0.00  0.00    +0.000 A 
ATOM     12  C   UNL     1       1.338   2.807  18.368  0.00  0.00    +0.000 A 
ATOM     13  C   UNL     1       1.484   4.184  18.197  0.00  0.00    +0.000 A 
ATOM     14  C   UNL     1       2.784   4.708  18.056  0.00  0.00    +0.000 A 
ENDBRANCH   1   2
BRANCH   1  15
ATOM     15  C   UNL     1       2.304   8.065  19.023  0.00  0.00    +0.000 C 
BRANCH  15  16
ATOM     16  O   UNL     1       2.282   7.359  20.269  0.00  0.00    +0.000 OA
ATOM     17  H   UNL     1       2.723   7.900  20.945  0.00  0.00    +0.000 HD
ENDBRANCH  15  16
BRANCH  15  18
ATOM     18  C   UNL     1       1.139   9.085  19.007  0.00  0.00    +0.000 C 
BRANCH  18  19
ATOM     19  N   UNL     1       1.003  10.017  20.191  0.00  0.00    +0.000 NA
BRANCH  19  20
ATOM     20  S   UNL     1       1.089  11.687  19.867  0.00  0.00    +0.000 S 
ATOM     21  C   UNL     1      -0.598  12.162  19.586  0.00  0.00    +0.000 C 
ATOM     22  O   UNL     1       1.553  12.340  21.069  0.00  0.00    +0.000 OA
ATOM     23  O   UNL     1       1.778  11.861  18.605  0.00  0.00    +0.000 OA
ENDBRANCH  19  20
BRANCH  19  24
ATOM     24  C   UNL     1       0.046   9.624  21.264  0.00  0.00    +0.000 C 
BRANCH  24  25
ATOM     25  C   UNL     1       0.667   9.296  22.624  0.00  0.00    +0.000 C 
BRANCH  25  27
ATOM     26  C   UNL     1      -1.086  10.844  23.041  0.00  0.00    +0.000 C 
ATOM     27  O   UNL     1      -0.055  10.048  23.610  0.00  0.00    +0.000 OA
ENDBRANCH  25  27
ENDBRANCH  24  25
ENDBRANCH  19  24
ENDBRANCH  18  19
ENDBRANCH  15  18
ENDBRANCH   1  15
TORSDOF 9
ENDMDL
MODEL 7
REMARK VINA RESULT:      -6.8      1.399      1.594
REMARK  Name = 
REMARK  11 active torsions:
REMARK  status: ('A' for Active; 'I' for Inactive)
REMARK    1  A    between atoms: C_1  and  O_2
REMARK    2  A    between atoms: O_2  and  C_3
REMARK    3  A    between atoms: C_3  and  C_4
REMARK    4  A    between atoms: C_4  and  N_5
REMARK    5  A    between atoms: N_5  and  C_6
REMARK    6  A    between atoms: N_5  and  S_23
REMARK    7  A    between atoms: C_6  and  C_7
REMARK    8  A    between atoms: C_7  and  O_8
REMARK    9  A    between atoms: C_7  and  C_9
REMARK   10  A    between atoms: C_9  and  N_10
REMARK   11  A    between atoms: S_23  and  C_24
REMARK                            x       y       z     vdW  Elec       q    Type
REMARK                         _______ _______ _______ _____ _____    ______ ____
ROOT
ATOM      1  C   UNL     1       2.578   7.359  17.596  0.00  0.00    +0.000 C 
ENDROOT
BRANCH   1   2
ATOM      2  N   UNL     1       3.378   6.146  17.656  0.00  0.00    +0.000 N 
ATOM      3  C   UNL     1       2.883   4.880  17.885  0.00  0.00    +0.000 A 
ATOM      4  C   UNL     1       1.566   4.419  18.051  0.00  0.00    +0.000 A 
ATOM      5  C   UNL     1       1.373   3.056  18.297  0.00  0.00    +0.000 A 
ATOM      6  C   UNL     1       2.452   2.182  18.367  0.00  0.00    +0.000 A 
ATOM      7  C   UNL     1       3.759   2.651  18.198  0.00  0.00    +0.000 A 
ATOM      8  C   UNL     1       3.983   4.023  17.958  0.00  0.00    +0.000 A 
ATOM      9  C   UNL     1       5.165   4.815  17.789  0.00  0.00    +0.000 A 
ATOM     10  C   UNL     1       6.547   4.522  17.784  0.00  0.00    +0.000 A 
ATOM     11  C   UNL     1       7.477   5.561  17.649  0.00  0.00    +0.000 A 
ATOM     12  C   UNL     1       7.053   6.879  17.538  0.00  0.00    +0.000 A 
ATOM     13  C   UNL     1       5.695   7.194  17.541  0.00  0.00    +0.000 A 
ATOM     14  C   UNL     1       4.763   6.142  17.646  0.00  0.00    +0.000 A 
ENDBRANCH   1   2
BRANCH   1  15
ATOM     15  C   UNL     1       2.401   8.094  18.929  0.00  0.00    +0.000 C 
BRANCH  15  16
ATOM     16  O   UNL     1       2.373   7.231  20.072  0.00  0.00    +0.000 OA
ATOM     17  H   UNL     1       3.283   7.083  20.378  0.00  0.00    +0.000 HD
ENDBRANCH  15  16
BRANCH  15  18
ATOM     18  C   UNL     1       1.161   9.019  18.971  0.00  0.00    +0.000 C 
BRANCH  18  19
ATOM     19  N   UNL     1       1.020   9.955  20.151  0.00  0.00    +0.000 NA
BRANCH  19  20
ATOM     20  S   UNL     1       1.108  11.624  19.822  0.00  0.00    +0.000 S 
ATOM     21  C   UNL     1      -0.562  12.076  19.426  0.00  0.00    +0.000 C 
ATOM     22  O   UNL     1       1.483  12.291  21.047  0.00  0.00    +0.000 OA
ATOM     23  O   UNL     1       1.877  11.799  18.606  0.00  0.00    +0.000 OA
ENDBRANCH  19  20
BRANCH  19  24
ATOM     24  C   UNL     1       0.060   9.566  21.223  0.00  0.00    +0.000 C 
BRANCH  24  25
ATOM     25  C   UNL     1       0.682   9.179  22.567  0.00  0.00    +0.000 C 
BRANCH  25  27
ATOM     26  C   UNL     1      -1.071  10.689  23.107  0.00  0.00    +0.000 C 
ATOM     27  O   UNL     1       0.112  10.044  23.560  0.00  0.00    +0.000 OA
ENDBRANCH  25  27
ENDBRANCH  24  25
ENDBRANCH  19  24
ENDBRANCH  18  19
ENDBRANCH  15  18
ENDBRANCH   1  15
TORSDOF 9
ENDMDL
MODEL 8
REMARK VINA RESULT:      -6.7      1.191      1.360
REMARK  Name = 
REMARK  11 active torsions:
REMARK  status: ('A' for Active; 'I' for Inactive)
REMARK    1  A    between atoms: C_1  and  O_2
REMARK    2  A    between atoms: O_2  and  C_3
REMARK    3  A    between atoms: C_3  and  C_4
REMARK    4  A    between atoms: C_4  and  N_5
REMARK    5  A    between atoms: N_5  and  C_6
REMARK    6  A    between atoms: N_5  and  S_23
REMARK    7  A    between atoms: C_6  and  C_7
REMARK    8  A    between atoms: C_7  and  O_8
REMARK    9  A    between atoms: C_7  and  C_9
REMARK   10  A    between atoms: C_9  and  N_10
REMARK   11  A    between atoms: S_23  and  C_24
REMARK                            x       y       z     vdW  Elec       q    Type
REMARK                         _______ _______ _______ _____ _____    ______ ____
ROOT
ATOM      1  C   UNL     1       2.688   7.573  19.430  0.00  0.00    +0.000 C 
ENDROOT
BRANCH   1   2
ATOM      2  N   UNL     1       2.844   6.263  18.816  0.00  0.00    +0.000 N 
ATOM      3  C   UNL     1       2.263   5.099  19.272  0.00  0.00    +0.000 A 
ATOM      4  C   UNL     1       1.376   4.865  20.337  0.00  0.00    +0.000 A 
ATOM      5  C   UNL     1       0.970   3.549  20.577  0.00  0.00    +0.000 A 
ATOM      6  C   UNL     1       1.425   2.504  19.780  0.00  0.00    +0.000 A 
ATOM      7  C   UNL     1       2.306   2.749  18.721  0.00  0.00    +0.000 A 
ATOM      8  C   UNL     1       2.739   4.066  18.463  0.00  0.00    +0.000 A 
ATOM      9  C   UNL     1       3.647   4.639  17.513  0.00  0.00    +0.000 A 
ATOM     10  C   UNL     1       4.437   4.106  16.471  0.00  0.00    +0.000 A 
ATOM     11  C   UNL     1       5.287   4.948  15.743  0.00  0.00    +0.000 A 
ATOM     12  C   UNL     1       5.374   6.300  16.049  0.00  0.00    +0.000 A 
ATOM     13  C   UNL     1       4.604   6.850  17.074  0.00  0.00    +0.000 A 
ATOM     14  C   UNL     1       3.728   6.004  17.782  0.00  0.00    +0.000 A 
ENDBRANCH   1   2
BRANCH   1  15
ATOM     15  C   UNL     1       1.646   8.485  18.773  0.00  0.00    +0.000 C 
BRANCH  15  16
ATOM     16  O   UNL     1       1.757   8.567  17.348  0.00  0.00    +0.000 OA
ATOM     17  H   UNL     1       1.901   7.675  16.991  0.00  0.00    +0.000 HD
ENDBRANCH  15  16
BRANCH  15  18
ATOM     18  C   UNL     1       1.617   9.919  19.355  0.00  0.00    +0.000 C 
BRANCH  18  19
ATOM     19  N   UNL     1       0.339  10.385  20.017  0.00  0.00    +0.000 NA
BRANCH  19  20
ATOM     20  S   UNL     1      -0.825  11.114  19.010  0.00  0.00    +0.000 S 
ATOM     21  C   UNL     1      -0.062  12.632  18.495  0.00  0.00    +0.000 C 
ATOM     22  O   UNL     1      -0.989  10.269  17.850  0.00  0.00    +0.000 OA
ATOM     23  O   UNL     1      -1.957  11.485  19.834  0.00  0.00    +0.000 OA
ENDBRANCH  19  20
BRANCH  19  24
ATOM     24  C   UNL     1      -0.208   9.541  21.118  0.00  0.00    +0.000 C 
BRANCH  24  25
ATOM     25  C   UNL     1       0.745   9.265  22.283  0.00  0.00    +0.000 C 
BRANCH  25  27
ATOM     26  C   UNL     1      -1.038  10.561  23.169  0.00  0.00    +0.000 C 
ATOM     27  O   UNL     1       0.215   9.943  23.431  0.00  0.00    +0.000 OA
ENDBRANCH  25  27
ENDBRANCH  24  25
ENDBRANCH  19  24
ENDBRANCH  18  19
ENDBRANCH  15  18
ENDBRANCH   1  15
TORSDOF 9
ENDMDL
MODEL 9
REMARK VINA RESULT:      -6.7      1.854      4.223
REMARK  Name = 
REMARK  11 active torsions:
REMARK  status: ('A' for Active; 'I' for Inactive)
REMARK    1  A    between atoms: C_1  and  O_2
REMARK    2  A    between atoms: O_2  and  C_3
REMARK    3  A    between atoms: C_3  and  C_4
REMARK    4  A    between atoms: C_4  and  N_5
REMARK    5  A    between atoms: N_5  and  C_6
REMARK    6  A    between atoms: N_5  and  S_23
REMARK    7  A    between atoms: C_6  and  C_7
REMARK    8  A    between atoms: C_7  and  O_8
REMARK    9  A    between atoms: C_7  and  C_9
REMARK   10  A    between atoms: C_9  and  N_10
REMARK   11  A    between atoms: S_23  and  C_24
REMARK                            x       y       z     vdW  Elec       q    Type
REMARK                         _______ _______ _______ _____ _____    ______ ____
ROOT
ATOM      1  C   UNL     1       1.967   6.858  18.341  0.00  0.00    +0.000 C 
ENDROOT
BRANCH   1   2
ATOM      2  N   UNL     1       2.759   5.673  18.048  0.00  0.00    +0.000 N 
ATOM      3  C   UNL     1       3.926   5.660  17.315  0.00  0.00    +0.000 A 
ATOM      4  C   UNL     1       4.667   6.706  16.738  0.00  0.00    +0.000 A 
ATOM      5  C   UNL     1       5.820   6.376  16.019  0.00  0.00    +0.000 A 
ATOM      6  C   UNL     1       6.226   5.052  15.887  0.00  0.00    +0.000 A 
ATOM      7  C   UNL     1       5.483   4.019  16.468  0.00  0.00    +0.000 A 
ATOM      8  C   UNL     1       4.310   4.323  17.191  0.00  0.00    +0.000 A 
ATOM      9  C   UNL     1       3.323   3.522  17.853  0.00  0.00    +0.000 A 
ATOM     10  C   UNL     1       3.159   2.133  18.045  0.00  0.00    +0.000 A 
ATOM     11  C   UNL     1       2.021   1.652  18.706  0.00  0.00    +0.000 A 
ATOM     12  C   UNL     1       1.044   2.529  19.157  0.00  0.00    +0.000 A 
ATOM     13  C   UNL     1       1.182   3.905  18.979  0.00  0.00    +0.000 A 
ATOM     14  C   UNL     1       2.344   4.385  18.342  0.00  0.00    +0.000 A 
ENDBRANCH   1   2
BRANCH   1  15
ATOM     15  C   UNL     1       2.254   7.519  19.693  0.00  0.00    +0.000 C 
BRANCH  15  16
ATOM     16  O   UNL     1       1.644   6.859  20.807  0.00  0.00    +0.000 OA
ATOM     17  H   UNL     1       0.835   6.413  20.505  0.00  0.00    +0.000 HD
ENDBRANCH  15  16
BRANCH  15  18
ATOM     18  C   UNL     1       1.888   9.023  19.742  0.00  0.00    +0.000 C 
BRANCH  18  19
ATOM     19  N   UNL     1       0.491   9.393  20.190  0.00  0.00    +0.000 NA
BRANCH  19  20
ATOM     20  S   UNL     1       0.189   9.360  21.866  0.00  0.00    +0.000 S 
ATOM     21  C   UNL     1      -0.610  10.911  22.192  0.00  0.00    +0.000 C 
ATOM     22  O   UNL     1      -0.757   8.297  22.116  0.00  0.00    +0.000 OA
ATOM     23  O   UNL     1       1.465   9.406  22.550  0.00  0.00    +0.000 OA
ENDBRANCH  19  20
BRANCH  19  24
ATOM     24  C   UNL     1      -0.204  10.476  19.437  0.00  0.00    +0.000 C 
BRANCH  24  25
ATOM     25  C   UNL     1      -1.507  10.074  18.742  0.00  0.00    +0.000 C 
BRANCH  25  27
ATOM     26  C   UNL     1      -2.335  10.097  16.516  0.00  0.00    +0.000 C 
ATOM     27  O   UNL     1      -1.204   9.889  17.352  0.00  0.00    +0.000 OA
ENDBRANCH  25  27
ENDBRANCH  24  25
ENDBRANCH  19  24
ENDBRANCH  18  19
ENDBRANCH  15  18
ENDBRANCH   1  15
TORSDOF 9
ENDMDL
