MODEL 1
REMARK VINA RESULT:      -7.4      0.000      0.000
REMARK  Name = 
REMARK  4 active torsions:
REMARK  status: ('A' for Active; 'I' for Inactive)
REMARK    1  A    between atoms: C_2  and  C_3
REMARK    2  A    between atoms: C_2  and  C_11
REMARK    3  A    between atoms: C_4  and  C_5
REMARK    4  A    between atoms: C_15  and  O_16
REMARK                            x       y       z     vdW  Elec       q    Type
REMARK                         _______ _______ _______ _____ _____    ______ ____
ROOT
ATOM      1  O   UNL     1       6.199   3.946  15.273  0.00  0.00    +0.000 OA
ATOM      2  C   UNL     1       5.845   4.264  16.401  0.00  0.00    +0.000 C 
ENDROOT
BRANCH   2   3
ATOM      3  C   UNL     1       6.622   5.245  17.204  0.00  0.00    +0.000 A 
ATOM      4  C   UNL     1       6.765   6.556  16.737  0.00  0.00    +0.000 A 
ATOM      5  C   UNL     1       7.531   7.473  17.465  0.00  0.00    +0.000 A 
ATOM      6  C   UNL     1       8.163   7.078  18.646  0.00  0.00    +0.000 A 
ATOM      7  C   UNL     1       8.014   5.774  19.102  0.00  0.00    +0.000 A 
ATOM      8  C   UNL     1       7.250   4.855  18.393  0.00  0.00    +0.000 A 
BRANCH   7   9
ATOM      9  O   UNL     1       8.610   5.335  20.241  0.00  0.00    +0.000 OA
ATOM     10  H   UNL     1       9.537   5.121  20.048  0.00  0.00    +0.000 HD
ENDBRANCH   7   9
ENDBRANCH   2   3
BRANCH   2  11
ATOM     11  C   UNL     1       4.609   3.731  17.034  0.00  0.00    +0.000 C 
ATOM     12  C   UNL     1       3.909   4.456  17.919  0.00  0.00    +0.000 C 
BRANCH  12  13
ATOM     13  C   UNL     1       2.698   3.947  18.582  0.00  0.00    +0.000 A 
ATOM     14  C   UNL     1       2.094   2.786  18.086  0.00  0.00    +0.000 A 
ATOM     15  C   UNL     1       0.937   2.276  18.681  0.00  0.00    +0.000 A 
ATOM     16  C   UNL     1       0.377   2.916  19.784  0.00  0.00    +0.000 A 
ATOM     17  C   UNL     1       0.979   4.060  20.302  0.00  0.00    +0.000 A 
ATOM     18  C   UNL     1       2.136   4.569  19.707  0.00  0.00    +0.000 A 
ENDBRANCH  12  13
ENDBRANCH   2  11
TORSDOF 4
ENDMDL
MODEL 2
REMARK VINA RESULT:      -7.4      0.115      1.174
REMARK  Name = 
REMARK  4 active torsions:
REMARK  status: ('A' for Active; 'I' for Inactive)
REMARK    1  A    between atoms: C_2  and  C_3
REMARK    2  A    between atoms: C_2  and  C_11
REMARK    3  A    between atoms: C_4  and  C_5
REMARK    4  A    between atoms: C_15  and  O_16
REMARK                            x       y       z     vdW  Elec       q    Type
REMARK                         _______ _______ _______ _____ _____    ______ ____
ROOT
ATOM      1  O   UNL     1       6.242   4.015  15.210  0.00  0.00    +0.000 OA
ATOM      2  C   UNL     1       5.850   4.347  16.321  0.00  0.00    +0.000 C 
ENDROOT
BRANCH   2   3
ATOM      3  C   UNL     1       6.620   5.308  17.153  0.00  0.00    +0.000 A 
ATOM      4  C   UNL     1       6.776   6.627  16.714  0.00  0.00    +0.000 A 
ATOM      5  C   UNL     1       7.536   7.527  17.470  0.00  0.00    +0.000 A 
ATOM      6  C   UNL     1       8.150   7.107  18.652  0.00  0.00    +0.000 A 
ATOM      7  C   UNL     1       7.989   5.794  19.080  0.00  0.00    +0.000 A 
ATOM      8  C   UNL     1       7.230   4.893  18.343  0.00  0.00    +0.000 A 
BRANCH   7   9
ATOM      9  O   UNL     1       8.566   5.331  20.218  0.00  0.00    +0.000 OA
ATOM     10  H   UNL     1       9.439   5.746  20.320  0.00  0.00    +0.000 HD
ENDBRANCH   7   9
ENDBRANCH   2   3
BRANCH   2  11
ATOM     11  C   UNL     1       4.574   3.852  16.902  0.00  0.00    +0.000 C 
ATOM     12  C   UNL     1       4.048   4.405  18.005  0.00  0.00    +0.000 C 
BRANCH  12  13
ATOM     13  C   UNL     1       2.802   3.921  18.620  0.00  0.00    +0.000 A 
ATOM     14  C   UNL     1       2.290   4.599  19.731  0.00  0.00    +0.000 A 
ATOM     15  C   UNL     1       1.114   4.164  20.350  0.00  0.00    +0.000 A 
ATOM     16  C   UNL     1       0.433   3.053  19.857  0.00  0.00    +0.000 A 
ATOM     17  C   UNL     1       0.919   2.382  18.739  0.00  0.00    +0.000 A 
ATOM     18  C   UNL     1       2.094   2.816  18.121  0.00  0.00    +0.000 A 
ENDBRANCH  12  13
ENDBRANCH   2  11
TORSDOF 4
ENDMDL
MODEL 3
REMARK VINA RESULT:      -7.4      1.115      1.178
REMARK  Name = 
REMARK  4 active torsions:
REMARK  status: ('A' for Active; 'I' for Inactive)
REMARK    1  A    between atoms: C_2  and  C_3
REMARK    2  A    between atoms: C_2  and  C_11
REMARK    3  A    between atoms: C_4  and  C_5
REMARK    4  A    between atoms: C_15  and  O_16
REMARK                            x       y       z     vdW  Elec       q    Type
REMARK                         _______ _______ _______ _____ _____    ______ ____
ROOT
ATOM      1  O   UNL     1       5.106   6.534  15.313  0.00  0.00    +0.000 OA
ATOM      2  C   UNL     1       5.241   6.127  16.460  0.00  0.00    +0.000 C 
ENDROOT
BRANCH   2   3
ATOM      3  C   UNL     1       6.358   6.602  17.318  0.00  0.00    +0.000 A 
ATOM      4  C   UNL     1       6.912   7.866  17.090  0.00  0.00    +0.000 A 
ATOM      5  C   UNL     1       7.992   8.302  17.865  0.00  0.00    +0.000 A 
ATOM      6  C   UNL     1       8.527   7.473  18.854  0.00  0.00    +0.000 A 
ATOM      7  C   UNL     1       7.969   6.219  19.073  0.00  0.00    +0.000 A 
ATOM      8  C   UNL     1       6.892   5.777  18.315  0.00  0.00    +0.000 A 
BRANCH   7   9
ATOM      9  O   UNL     1       8.452   5.370  20.017  0.00  0.00    +0.000 OA
ATOM     10  H   UNL     1       8.453   4.467  19.657  0.00  0.00    +0.000 HD
ENDBRANCH   7   9
ENDBRANCH   2   3
BRANCH   2  11
ATOM     11  C   UNL     1       4.292   5.170  17.088  0.00  0.00    +0.000 C 
ATOM     12  C   UNL     1       3.341   5.585  17.938  0.00  0.00    +0.000 C 
BRANCH  12  13
ATOM     13  C   UNL     1       2.405   4.661  18.596  0.00  0.00    +0.000 A 
ATOM     14  C   UNL     1       1.969   3.530  17.897  0.00  0.00    +0.000 A 
ATOM     15  C   UNL     1       1.072   2.633  18.483  0.00  0.00    +0.000 A 
ATOM     16  C   UNL     1       0.609   2.852  19.778  0.00  0.00    +0.000 A 
ATOM     17  C   UNL     1       1.050   3.962  20.494  0.00  0.00    +0.000 A 
ATOM     18  C   UNL     1       1.947   4.857  19.908  0.00  0.00    +0.000 A 
ENDBRANCH  12  13
ENDBRANCH   2  11
TORSDOF 4
ENDMDL
MODEL 4
REMARK VINA RESULT:      -7.1      3.308      3.994
REMARK  Name = 
REMARK  4 active torsions:
REMARK  status: ('A' for Active; 'I' for Inactive)
REMARK    1  A    between atoms: C_2  and  C_3
REMARK    2  A    between atoms: C_2  and  C_11
REMARK    3  A    between atoms: C_4  and  C_5
REMARK    4  A    between atoms: C_15  and  O_16
REMARK                            x       y       z     vdW  Elec       q    Type
REMARK                         _______ _______ _______ _____ _____    ______ ____
ROOT
ATOM      1  O   UNL     1       3.644   4.237  17.084  0.00  0.00    +0.000 OA
ATOM      2  C   UNL     1       3.856   5.273  17.701  0.00  0.00    +0.000 C 
ENDROOT
BRANCH   2   3
ATOM      3  C   UNL     1       5.242   5.738  17.971  0.00  0.00    +0.000 A 
ATOM      4  C   UNL     1       5.894   6.542  17.031  0.00  0.00    +0.000 A 
ATOM      5  C   UNL     1       7.214   6.948  17.259  0.00  0.00    +0.000 A 
ATOM      6  C   UNL     1       7.884   6.540  18.414  0.00  0.00    +0.000 A 
ATOM      7  C   UNL     1       7.227   5.741  19.343  0.00  0.00    +0.000 A 
ATOM      8  C   UNL     1       5.914   5.338  19.132  0.00  0.00    +0.000 A 
BRANCH   7   9
ATOM      9  O   UNL     1       7.832   5.311  20.480  0.00  0.00    +0.000 OA
ATOM     10  H   UNL     1       7.269   5.536  21.239  0.00  0.00    +0.000 HD
ENDBRANCH   7   9
ENDBRANCH   2   3
BRANCH   2  11
ATOM     11  C   UNL     1       2.762   6.154  18.187  0.00  0.00    +0.000 C 
ATOM     12  C   UNL     1       2.919   7.484  18.268  0.00  0.00    +0.000 C 
BRANCH  12  13
ATOM     13  C   UNL     1       1.865   8.380  18.770  0.00  0.00    +0.000 A 
ATOM     14  C   UNL     1       1.546   8.349  20.132  0.00  0.00    +0.000 A 
ATOM     15  C   UNL     1       0.544   9.177  20.646  0.00  0.00    +0.000 A 
ATOM     16  C   UNL     1      -0.142  10.051  19.806  0.00  0.00    +0.000 A 
ATOM     17  C   UNL     1       0.179  10.107  18.453  0.00  0.00    +0.000 A 
ATOM     18  C   UNL     1       1.181   9.281  17.940  0.00  0.00    +0.000 A 
ENDBRANCH  12  13
ENDBRANCH   2  11
TORSDOF 4
ENDMDL
MODEL 5
REMARK VINA RESULT:      -7.1      1.148      2.010
REMARK  Name = 
REMARK  4 active torsions:
REMARK  status: ('A' for Active; 'I' for Inactive)
REMARK    1  A    between atoms: C_2  and  C_3
REMARK    2  A    between atoms: C_2  and  C_11
REMARK    3  A    between atoms: C_4  and  C_5
REMARK    4  A    between atoms: C_15  and  O_16
REMARK                            x       y       z     vdW  Elec       q    Type
REMARK                         _______ _______ _______ _____ _____    ______ ____
ROOT
ATOM      1  O   UNL     1       5.964   4.192  15.087  0.00  0.00    +0.000 OA
ATOM      2  C   UNL     1       5.736   4.392  16.274  0.00  0.00    +0.000 C 
ENDROOT
BRANCH   2   3
ATOM      3  C   UNL     1       6.612   5.275  17.088  0.00  0.00    +0.000 A 
ATOM      4  C   UNL     1       7.267   4.751  18.207  0.00  0.00    +0.000 A 
ATOM      5  C   UNL     1       8.059   5.586  19.003  0.00  0.00    +0.000 A 
ATOM      6  C   UNL     1       8.185   6.941  18.690  0.00  0.00    +0.000 A 
ATOM      7  C   UNL     1       7.530   7.452  17.576  0.00  0.00    +0.000 A 
ATOM      8  C   UNL     1       6.747   6.632  16.773  0.00  0.00    +0.000 A 
BRANCH   7   9
ATOM      9  O   UNL     1       7.613   8.762  17.228  0.00  0.00    +0.000 OA
ATOM     10  H   UNL     1       8.523   8.956  16.949  0.00  0.00    +0.000 HD
ENDBRANCH   7   9
ENDBRANCH   2   3
BRANCH   2  11
ATOM     11  C   UNL     1       4.561   3.808  16.973  0.00  0.00    +0.000 C 
ATOM     12  C   UNL     1       3.777   4.554  17.766  0.00  0.00    +0.000 C 
BRANCH  12  13
ATOM     13  C   UNL     1       2.624   3.999  18.493  0.00  0.00    +0.000 A 
ATOM     14  C   UNL     1       2.207   4.623  19.674  0.00  0.00    +0.000 A 
ATOM     15  C   UNL     1       1.124   4.121  20.399  0.00  0.00    +0.000 A 
ATOM     16  C   UNL     1       0.439   2.996  19.945  0.00  0.00    +0.000 A 
ATOM     17  C   UNL     1       0.829   2.378  18.761  0.00  0.00    +0.000 A 
ATOM     18  C   UNL     1       1.912   2.880  18.036  0.00  0.00    +0.000 A 
ENDBRANCH  12  13
ENDBRANCH   2  11
TORSDOF 4
ENDMDL
MODEL 6
REMARK VINA RESULT:      -7.0      2.925      6.497
REMARK  Name = 
REMARK  4 active torsions:
REMARK  status: ('A' for Active; 'I' for Inactive)
REMARK    1  A    between atoms: C_2  and  C_3
REMARK    2  A    between atoms: C_2  and  C_11
REMARK    3  A    between atoms: C_4  and  C_5
REMARK    4  A    between atoms: C_15  and  O_16
REMARK                            x       y       z     vdW  Elec       q    Type
REMARK                         _______ _______ _______ _____ _____    ______ ____
ROOT
ATOM      1  O   UNL     1       4.809   5.925  18.523  0.00  0.00    +0.000 OA
ATOM      2  C   UNL     1       4.291   4.971  17.956  0.00  0.00    +0.000 C 
ENDROOT
BRANCH   2   3
ATOM      3  C   UNL     1       3.220   4.176  18.610  0.00  0.00    +0.000 A 
ATOM      4  C   UNL     1       2.165   3.675  17.840  0.00  0.00    +0.000 A 
ATOM      5  C   UNL     1       1.131   2.962  18.456  0.00  0.00    +0.000 A 
ATOM      6  C   UNL     1       1.143   2.762  19.838  0.00  0.00    +0.000 A 
ATOM      7  C   UNL     1       2.196   3.262  20.595  0.00  0.00    +0.000 A 
ATOM      8  C   UNL     1       3.233   3.965  19.995  0.00  0.00    +0.000 A 
BRANCH   7   9
ATOM      9  O   UNL     1       2.256   3.101  21.942  0.00  0.00    +0.000 OA
ATOM     10  H   UNL     1       2.085   3.957  22.369  0.00  0.00    +0.000 HD
ENDBRANCH   7   9
ENDBRANCH   2   3
BRANCH   2  11
ATOM     11  C   UNL     1       4.660   4.564  16.574  0.00  0.00    +0.000 C 
ATOM     12  C   UNL     1       5.778   5.018  15.987  0.00  0.00    +0.000 C 
BRANCH  12  13
ATOM     13  C   UNL     1       6.157   4.655  14.612  0.00  0.00    +0.000 A 
ATOM     14  C   UNL     1       7.307   5.226  14.056  0.00  0.00    +0.000 A 
ATOM     15  C   UNL     1       7.695   4.914  12.750  0.00  0.00    +0.000 A 
ATOM     16  C   UNL     1       6.943   4.021  11.990  0.00  0.00    +0.000 A 
ATOM     17  C   UNL     1       5.808   3.430  12.538  0.00  0.00    +0.000 A 
ATOM     18  C   UNL     1       5.421   3.740  13.843  0.00  0.00    +0.000 A 
ENDBRANCH  12  13
ENDBRANCH   2  11
TORSDOF 4
ENDMDL
MODEL 7
REMARK VINA RESULT:      -7.0      2.633      4.212
REMARK  Name = 
REMARK  4 active torsions:
REMARK  status: ('A' for Active; 'I' for Inactive)
REMARK    1  A    between atoms: C_2  and  C_3
REMARK    2  A    between atoms: C_2  and  C_11
REMARK    3  A    between atoms: C_4  and  C_5
REMARK    4  A    between atoms: C_15  and  O_16
REMARK                            x       y       z     vdW  Elec       q    Type
REMARK                         _______ _______ _______ _____ _____    ______ ____
ROOT
ATOM      1  O   UNL     1       7.385   6.038  16.391  0.00  0.00    +0.000 OA
ATOM      2  C   UNL     1       6.730   5.138  15.881  0.00  0.00    +0.000 C 
ENDROOT
BRANCH   2   3
ATOM      3  C   UNL     1       6.894   4.786  14.446  0.00  0.00    +0.000 A 
ATOM      4  C   UNL     1       7.740   5.556  13.641  0.00  0.00    +0.000 A 
ATOM      5  C   UNL     1       7.867   5.257  12.280  0.00  0.00    +0.000 A 
ATOM      6  C   UNL     1       7.140   4.202  11.722  0.00  0.00    +0.000 A 
ATOM      7  C   UNL     1       6.302   3.443  12.530  0.00  0.00    +0.000 A 
ATOM      8  C   UNL     1       6.174   3.724  13.885  0.00  0.00    +0.000 A 
BRANCH   7   9
ATOM      9  O   UNL     1       5.569   2.410  12.040  0.00  0.00    +0.000 OA
ATOM     10  H   UNL     1       4.711   2.390  12.496  0.00  0.00    +0.000 HD
ENDBRANCH   7   9
ENDBRANCH   2   3
BRANCH   2  11
ATOM     11  C   UNL     1       5.762   4.314  16.652  0.00  0.00    +0.000 C 
ATOM     12  C   UNL     1       4.598   4.824  17.082  0.00  0.00    +0.000 C 
BRANCH  12  13
ATOM     13  C   UNL     1       3.631   4.043  17.870  0.00  0.00    +0.000 A 
ATOM     14  C   UNL     1       2.264   4.221  17.630  0.00  0.00    +0.000 A 
ATOM     15  C   UNL     1       1.314   3.506  18.364  0.00  0.00    +0.000 A 
ATOM     16  C   UNL     1       1.721   2.598  19.339  0.00  0.00    +0.000 A 
ATOM     17  C   UNL     1       3.078   2.395  19.575  0.00  0.00    +0.000 A 
ATOM     18  C   UNL     1       4.027   3.109  18.840  0.00  0.00    +0.000 A 
ENDBRANCH  12  13
ENDBRANCH   2  11
TORSDOF 4
ENDMDL
MODEL 8
REMARK VINA RESULT:      -6.9      1.462      1.866
REMARK  Name = 
REMARK  4 active torsions:
REMARK  status: ('A' for Active; 'I' for Inactive)
REMARK    1  A    between atoms: C_2  and  C_3
REMARK    2  A    between atoms: C_2  and  C_11
REMARK    3  A    between atoms: C_4  and  C_5
REMARK    4  A    between atoms: C_15  and  O_16
REMARK                            x       y       z     vdW  Elec       q    Type
REMARK                         _______ _______ _______ _____ _____    ______ ____
ROOT
ATOM      1  O   UNL     1       5.298   6.196  15.122  0.00  0.00    +0.000 OA
ATOM      2  C   UNL     1       5.341   5.845  16.295  0.00  0.00    +0.000 C 
ENDROOT
BRANCH   2   3
ATOM      3  C   UNL     1       6.439   6.291  17.191  0.00  0.00    +0.000 A 
ATOM      4  C   UNL     1       6.973   5.396  18.125  0.00  0.00    +0.000 A 
ATOM      5  C   UNL     1       7.977   5.822  19.001  0.00  0.00    +0.000 A 
ATOM      6  C   UNL     1       8.436   7.141  18.956  0.00  0.00    +0.000 A 
ATOM      7  C   UNL     1       7.900   8.022  18.024  0.00  0.00    +0.000 A 
ATOM      8  C   UNL     1       6.908   7.610  17.143  0.00  0.00    +0.000 A 
BRANCH   7   9
ATOM      9  O   UNL     1       8.305   9.315  17.938  0.00  0.00    +0.000 OA
ATOM     10  H   UNL     1       7.547   9.895  18.121  0.00  0.00    +0.000 HD
ENDBRANCH   7   9
ENDBRANCH   2   3
BRANCH   2  11
ATOM     11  C   UNL     1       4.295   4.988  16.914  0.00  0.00    +0.000 C 
ATOM     12  C   UNL     1       3.581   5.410  17.968  0.00  0.00    +0.000 C 
BRANCH  12  13
ATOM     13  C   UNL     1       2.558   4.577  18.620  0.00  0.00    +0.000 A 
ATOM     14  C   UNL     1       2.168   3.383  18.004  0.00  0.00    +0.000 A 
ATOM     15  C   UNL     1       1.193   2.568  18.586  0.00  0.00    +0.000 A 
ATOM     16  C   UNL     1       0.604   2.935  19.794  0.00  0.00    +0.000 A 
ATOM     17  C   UNL     1       0.998   4.109  20.429  0.00  0.00    +0.000 A 
ATOM     18  C   UNL     1       1.973   4.922  19.848  0.00  0.00    +0.000 A 
ENDBRANCH  12  13
ENDBRANCH   2  11
TORSDOF 4
ENDMDL
MODEL 9
REMARK VINA RESULT:      -6.9      2.938      6.418
REMARK  Name = 
REMARK  4 active torsions:
REMARK  status: ('A' for Active; 'I' for Inactive)
REMARK    1  A    between atoms: C_2  and  C_3
REMARK    2  A    between atoms: C_2  and  C_11
REMARK    3  A    between atoms: C_4  and  C_5
REMARK    4  A    between atoms: C_15  and  O_16
REMARK                            x       y       z     vdW  Elec       q    Type
REMARK                         _______ _______ _______ _____ _____    ______ ____
ROOT
ATOM      1  O   UNL     1       5.485   5.377  18.754  0.00  0.00    +0.000 OA
ATOM      2  C   UNL     1       4.778   4.641  18.077  0.00  0.00    +0.000 C 
ENDROOT
BRANCH   2   3
ATOM      3  C   UNL     1       3.550   4.021  18.640  0.00  0.00    +0.000 A 
ATOM      4  C   UNL     1       2.427   3.854  17.824  0.00  0.00    +0.000 A 
ATOM      5  C   UNL     1       1.253   3.311  18.359  0.00  0.00    +0.000 A 
ATOM      6  C   UNL     1       1.197   2.951  19.707  0.00  0.00    +0.000 A 
ATOM      7  C   UNL     1       2.319   3.121  20.510  0.00  0.00    +0.000 A 
ATOM      8  C   UNL     1       3.493   3.651  19.989  0.00  0.00    +0.000 A 
BRANCH   7   9
ATOM      9  O   UNL     1       2.319   2.792  21.828  0.00  0.00    +0.000 OA
ATOM     10  H   UNL     1       2.663   3.543  22.339  0.00  0.00    +0.000 HD
ENDBRANCH   7   9
ENDBRANCH   2   3
BRANCH   2  11
ATOM     11  C   UNL     1       5.068   4.343  16.649  0.00  0.00    +0.000 C 
ATOM     12  C   UNL     1       6.137   4.865  16.029  0.00  0.00    +0.000 C 
BRANCH  12  13
ATOM     13  C   UNL     1       6.435   4.611  14.611  0.00  0.00    +0.000 A 
ATOM     14  C   UNL     1       5.639   3.702  13.906  0.00  0.00    +0.000 A 
ATOM     15  C   UNL     1       5.896   3.426  12.560  0.00  0.00    +0.000 A 
ATOM     16  C   UNL     1       6.947   4.062  11.903  0.00  0.00    +0.000 A 
ATOM     17  C   UNL     1       7.735   4.984  12.587  0.00  0.00    +0.000 A 
ATOM     18  C   UNL     1       7.477   5.261  13.931  0.00  0.00    +0.000 A 
ENDBRANCH  12  13
ENDBRANCH   2  11
TORSDOF 4
ENDMDL
