MODEL 1
REMARK VINA RESULT:      -6.8      0.000      0.000
REMARK  Name = 
REMARK  6 active torsions:
REMARK  status: ('A' for Active; 'I' for Inactive)
REMARK    1  A    between atoms: C_1  and  C_2
REMARK    2  A    between atoms: C_2  and  O_3
REMARK    3  A    between atoms: O_3  and  C_4
REMARK    4  A    between atoms: C_6  and  C_7
REMARK    5  A    between atoms: C_12  and  O_13
REMARK    6  A    between atoms: O_13  and  C_14
REMARK                            x       y       z     vdW  Elec       q    Type
REMARK                         _______ _______ _______ _____ _____    ______ ____
ROOT
ATOM      1  C   UNL     1       3.547   4.081  17.133  0.00  0.00    +0.000 A 
ATOM      2  C   UNL     1       4.730   3.898  16.396  0.00  0.00    +0.000 A 
ATOM      3  C   UNL     1       5.857   4.716  16.554  0.00  0.00    +0.000 A 
ATOM      4  C   UNL     1       5.818   5.752  17.487  0.00  0.00    +0.000 A 
ATOM      5 BR   UNL     1       7.241   6.961  17.816  0.00  0.00    +0.000 Br
ATOM      6  C   UNL     1       4.648   5.953  18.221  0.00  0.00    +0.000 A 
ATOM      7  C   UNL     1       3.514   5.136  18.072  0.00  0.00    +0.000 A 
ENDROOT
BRANCH   3   8
ATOM      8  C   UNL     1       7.015   4.443  15.679  0.00  0.00    +0.000 C 
ATOM      9  O   UNL     1       7.416   5.252  14.818  0.00  0.00    +0.000 OA
ENDBRANCH   3   8
BRANCH   1  10
ATOM     10  O   UNL     1       2.443   3.289  16.896  0.00  0.00    +0.000 OA
BRANCH  10  12
ATOM     11  C   UNL     1       3.649   1.536  18.097  0.00  0.00    +0.000 C 
ATOM     12  C   UNL     1       2.292   2.117  17.733  0.00  0.00    +0.000 C 
ENDBRANCH  10  12
ENDBRANCH   1  10
BRANCH   7  13
ATOM     13  O   UNL     1       2.501   5.611  18.866  0.00  0.00    +0.000 OA
BRANCH  13  14
ATOM     14  C   UNL     1       2.227   5.026  20.121  0.00  0.00    +0.000 C 
ATOM     15  C   UNL     1       0.941   4.213  20.173  0.00  0.00    +0.000 C 
ATOM     16  C   UNL     1       1.204   3.059  21.132  0.00  0.00    +0.000 C 
ATOM     17  C   UNL     1       2.711   2.989  21.391  0.00  0.00    +0.000 C 
ATOM     18  C   UNL     1       3.369   4.071  20.543  0.00  0.00    +0.000 C 
ENDBRANCH  13  14
ENDBRANCH   7  13
TORSDOF 5
ENDMDL
MODEL 2
REMARK VINA RESULT:      -6.8      1.669      3.216
REMARK  Name = 
REMARK  6 active torsions:
REMARK  status: ('A' for Active; 'I' for Inactive)
REMARK    1  A    between atoms: C_1  and  C_2
REMARK    2  A    between atoms: C_2  and  O_3
REMARK    3  A    between atoms: O_3  and  C_4
REMARK    4  A    between atoms: C_6  and  C_7
REMARK    5  A    between atoms: C_12  and  O_13
REMARK    6  A    between atoms: O_13  and  C_14
REMARK                            x       y       z     vdW  Elec       q    Type
REMARK                         _______ _______ _______ _____ _____    ______ ____
ROOT
ATOM      1  C   UNL     1       3.121   5.603  18.377  0.00  0.00    +0.000 A 
ATOM      2  C   UNL     1       4.239   6.374  18.014  0.00  0.00    +0.000 A 
ATOM      3  C   UNL     1       5.161   5.964  17.041  0.00  0.00    +0.000 A 
ATOM      4  C   UNL     1       4.965   4.745  16.392  0.00  0.00    +0.000 A 
ATOM      5 BR   UNL     1       6.119   4.031  15.069  0.00  0.00    +0.000 Br
ATOM      6  C   UNL     1       3.865   3.962  16.747  0.00  0.00    +0.000 A 
ATOM      7  C   UNL     1       2.933   4.367  17.719  0.00  0.00    +0.000 A 
ENDROOT
BRANCH   3   8
ATOM      8  C   UNL     1       6.316   6.849  16.794  0.00  0.00    +0.000 C 
ATOM      9  O   UNL     1       7.483   6.421  16.690  0.00  0.00    +0.000 OA
ENDBRANCH   3   8
BRANCH   1  10
ATOM     10  O   UNL     1       2.277   6.021  19.384  0.00  0.00    +0.000 OA
BRANCH  10  12
ATOM     11  C   UNL     1       1.431   7.752  20.887  0.00  0.00    +0.000 C 
ATOM     12  C   UNL     1       2.184   7.450  19.601  0.00  0.00    +0.000 C 
ENDBRANCH  10  12
ENDBRANCH   1  10
BRANCH   7  13
ATOM     13  O   UNL     1       2.007   3.372  17.905  0.00  0.00    +0.000 OA
BRANCH  13  14
ATOM     14  C   UNL     1       1.982   2.619  19.099  0.00  0.00    +0.000 C 
ATOM     15  C   UNL     1       3.258   2.698  19.924  0.00  0.00    +0.000 C 
ATOM     16  C   UNL     1       2.829   2.626  21.384  0.00  0.00    +0.000 C 
ATOM     17  C   UNL     1       1.314   2.836  21.446  0.00  0.00    +0.000 C 
ATOM     18  C   UNL     1       0.832   3.089  20.022  0.00  0.00    +0.000 C 
ENDBRANCH  13  14
ENDBRANCH   7  13
TORSDOF 5
ENDMDL
MODEL 3
REMARK VINA RESULT:      -6.7      2.612      6.542
REMARK  Name = 
REMARK  6 active torsions:
REMARK  status: ('A' for Active; 'I' for Inactive)
REMARK    1  A    between atoms: C_1  and  C_2
REMARK    2  A    between atoms: C_2  and  O_3
REMARK    3  A    between atoms: O_3  and  C_4
REMARK    4  A    between atoms: C_6  and  C_7
REMARK    5  A    between atoms: C_12  and  O_13
REMARK    6  A    between atoms: O_13  and  C_14
REMARK                            x       y       z     vdW  Elec       q    Type
REMARK                         _______ _______ _______ _____ _____    ______ ____
ROOT
ATOM      1  C   UNL     1       6.144   5.244  17.483  0.00  0.00    +0.000 A 
ATOM      2  C   UNL     1       5.294   5.723  18.496  0.00  0.00    +0.000 A 
ATOM      3  C   UNL     1       3.972   5.285  18.648  0.00  0.00    +0.000 A 
ATOM      4  C   UNL     1       3.470   4.325  17.767  0.00  0.00    +0.000 A 
ATOM      5 BR   UNL     1       1.705   3.636  17.816  0.00  0.00    +0.000 Br
ATOM      6  C   UNL     1       4.298   3.846  16.751  0.00  0.00    +0.000 A 
ATOM      7  C   UNL     1       5.626   4.277  16.593  0.00  0.00    +0.000 A 
ENDROOT
BRANCH   3   8
ATOM      8  C   UNL     1       3.175   5.908  19.723  0.00  0.00    +0.000 C 
ATOM      9  O   UNL     1       2.403   6.867  19.521  0.00  0.00    +0.000 OA
ENDBRANCH   3   8
BRANCH   1  10
ATOM     10  O   UNL     1       7.418   5.753  17.338  0.00  0.00    +0.000 OA
BRANCH  10  12
ATOM     11  C   UNL     1       7.885   8.133  17.633  0.00  0.00    +0.000 C 
ATOM     12  C   UNL     1       7.826   6.764  18.291  0.00  0.00    +0.000 C 
ENDBRANCH  10  12
ENDBRANCH   1  10
BRANCH   7  13
ATOM     13  O   UNL     1       6.167   3.691  15.477  0.00  0.00    +0.000 OA
BRANCH  13  14
ATOM     14  C   UNL     1       6.193   4.371  14.240  0.00  0.00    +0.000 C 
ATOM     15  C   UNL     1       7.442   5.208  14.003  0.00  0.00    +0.000 C 
ATOM     16  C   UNL     1       7.728   5.137  12.509  0.00  0.00    +0.000 C 
ATOM     17  C   UNL     1       6.871   4.017  11.914  0.00  0.00    +0.000 C 
ATOM     18  C   UNL     1       6.103   3.373  13.061  0.00  0.00    +0.000 C 
ENDBRANCH  13  14
ENDBRANCH   7  13
TORSDOF 5
ENDMDL
MODEL 4
REMARK VINA RESULT:      -6.7      2.250      3.132
REMARK  Name = 
REMARK  6 active torsions:
REMARK  status: ('A' for Active; 'I' for Inactive)
REMARK    1  A    between atoms: C_1  and  C_2
REMARK    2  A    between atoms: C_2  and  O_3
REMARK    3  A    between atoms: O_3  and  C_4
REMARK    4  A    between atoms: C_6  and  C_7
REMARK    5  A    between atoms: C_12  and  O_13
REMARK    6  A    between atoms: O_13  and  C_14
REMARK                            x       y       z     vdW  Elec       q    Type
REMARK                         _______ _______ _______ _____ _____    ______ ____
ROOT
ATOM      1  C   UNL     1       2.818   4.316  17.609  0.00  0.00    +0.000 A 
ATOM      2  C   UNL     1       3.823   3.809  16.767  0.00  0.00    +0.000 A 
ATOM      3  C   UNL     1       5.089   4.400  16.654  0.00  0.00    +0.000 A 
ATOM      4  C   UNL     1       5.377   5.535  17.413  0.00  0.00    +0.000 A 
ATOM      5 BR   UNL     1       7.026   6.470  17.371  0.00  0.00    +0.000 Br
ATOM      6  C   UNL     1       4.387   6.057  18.248  0.00  0.00    +0.000 A 
ATOM      7  C   UNL     1       3.117   5.468  18.370  0.00  0.00    +0.000 A 
ENDROOT
BRANCH   3   8
ATOM      8  C   UNL     1       6.032   3.793  15.695  0.00  0.00    +0.000 C 
ATOM      9  O   UNL     1       6.067   4.113  14.489  0.00  0.00    +0.000 OA
ENDBRANCH   3   8
BRANCH   1  10
ATOM     10  O   UNL     1       1.568   3.734  17.637  0.00  0.00    +0.000 OA
BRANCH  10  12
ATOM     11  C   UNL     1       0.861   3.046  19.873  0.00  0.00    +0.000 C 
ATOM     12  C   UNL     1       1.398   2.600  18.522  0.00  0.00    +0.000 C 
ENDBRANCH  10  12
ENDBRANCH   1  10
BRANCH   7  13
ATOM     13  O   UNL     1       2.337   6.233  19.201  0.00  0.00    +0.000 OA
BRANCH  13  14
ATOM     14  C   UNL     1       2.372   7.643  19.135  0.00  0.00    +0.000 C 
ATOM     15  C   UNL     1       1.857   8.229  17.828  0.00  0.00    +0.000 C 
ATOM     16  C   UNL     1       1.179   9.544  18.187  0.00  0.00    +0.000 C 
ATOM     17  C   UNL     1       0.995   9.586  19.706  0.00  0.00    +0.000 C 
ATOM     18  C   UNL     1       1.517   8.268  20.264  0.00  0.00    +0.000 C 
ENDBRANCH  13  14
ENDBRANCH   7  13
TORSDOF 5
ENDMDL
MODEL 5
REMARK VINA RESULT:      -6.5      2.454      5.413
REMARK  Name = 
REMARK  6 active torsions:
REMARK  status: ('A' for Active; 'I' for Inactive)
REMARK    1  A    between atoms: C_1  and  C_2
REMARK    2  A    between atoms: C_2  and  O_3
REMARK    3  A    between atoms: O_3  and  C_4
REMARK    4  A    between atoms: C_6  and  C_7
REMARK    5  A    between atoms: C_12  and  O_13
REMARK    6  A    between atoms: O_13  and  C_14
REMARK                            x       y       z     vdW  Elec       q    Type
REMARK                         _______ _______ _______ _____ _____    ______ ____
ROOT
ATOM      1  C   UNL     1       2.775   5.175  19.572  0.00  0.00    +0.000 A 
ATOM      2  C   UNL     1       2.166   6.095  20.444  0.00  0.00    +0.000 A 
ATOM      3  C   UNL     1       1.863   7.411  20.069  0.00  0.00    +0.000 A 
ATOM      4  C   UNL     1       2.166   7.833  18.774  0.00  0.00    +0.000 A 
ATOM      5 BR   UNL     1       1.842   9.577  18.106  0.00  0.00    +0.000 Br
ATOM      6  C   UNL     1       2.778   6.935  17.899  0.00  0.00    +0.000 A 
ATOM      7  C   UNL     1       3.082   5.612  18.265  0.00  0.00    +0.000 A 
ENDROOT
BRANCH   3   8
ATOM      8  C   UNL     1       1.270   8.285  21.100  0.00  0.00    +0.000 C 
ATOM      9  O   UNL     1       0.048   8.301  21.350  0.00  0.00    +0.000 OA
ENDBRANCH   3   8
BRANCH   1  10
ATOM     10  O   UNL     1       3.109   3.910  20.010  0.00  0.00    +0.000 OA
BRANCH  10  12
ATOM     11  C   UNL     1       3.085   1.867  18.671  0.00  0.00    +0.000 C 
ATOM     12  C   UNL     1       2.280   2.820  19.540  0.00  0.00    +0.000 C 
ENDBRANCH  10  12
ENDBRANCH   1  10
BRANCH   7  13
ATOM     13  O   UNL     1       3.738   4.991  17.233  0.00  0.00    +0.000 OA
BRANCH  13  14
ATOM     14  C   UNL     1       5.057   5.358  16.885  0.00  0.00    +0.000 C 
ATOM     15  C   UNL     1       6.123   4.885  17.862  0.00  0.00    +0.000 C 
ATOM     16  C   UNL     1       7.361   4.577  17.029  0.00  0.00    +0.000 C 
ATOM     17  C   UNL     1       6.946   4.544  15.556  0.00  0.00    +0.000 C 
ATOM     18  C   UNL     1       5.441   4.782  15.501  0.00  0.00    +0.000 C 
ENDBRANCH  13  14
ENDBRANCH   7  13
TORSDOF 5
ENDMDL
MODEL 6
REMARK VINA RESULT:      -6.5      2.592      4.222
REMARK  Name = 
REMARK  6 active torsions:
REMARK  status: ('A' for Active; 'I' for Inactive)
REMARK    1  A    between atoms: C_1  and  C_2
REMARK    2  A    between atoms: C_2  and  O_3
REMARK    3  A    between atoms: O_3  and  C_4
REMARK    4  A    between atoms: C_6  and  C_7
REMARK    5  A    between atoms: C_12  and  O_13
REMARK    6  A    between atoms: O_13  and  C_14
REMARK                            x       y       z     vdW  Elec       q    Type
REMARK                         _______ _______ _______ _____ _____    ______ ____
ROOT
ATOM      1  C   UNL     1       6.871   4.816  16.537  0.00  0.00    +0.000 A 
ATOM      2  C   UNL     1       7.554   5.195  15.367  0.00  0.00    +0.000 A 
ATOM      3  C   UNL     1       7.127   4.822  14.085  0.00  0.00    +0.000 A 
ATOM      4  C   UNL     1       5.972   4.051  13.952  0.00  0.00    +0.000 A 
ATOM      5 BR   UNL     1       5.264   3.446  12.301  0.00  0.00    +0.000 Br
ATOM      6  C   UNL     1       5.287   3.659  15.104  0.00  0.00    +0.000 A 
ATOM      7  C   UNL     1       5.706   4.031  16.393  0.00  0.00    +0.000 A 
ENDROOT
BRANCH   3   8
ATOM      8  C   UNL     1       7.966   5.247  12.947  0.00  0.00    +0.000 C 
ATOM      9  O   UNL     1       8.921   6.040  13.072  0.00  0.00    +0.000 OA
ENDBRANCH   3   8
BRANCH   1  10
ATOM     10  O   UNL     1       7.367   5.156  17.778  0.00  0.00    +0.000 OA
BRANCH  10  12
ATOM     11  C   UNL     1       6.558   7.443  17.488  0.00  0.00    +0.000 C 
ATOM     12  C   UNL     1       7.683   6.553  17.992  0.00  0.00    +0.000 C 
ENDBRANCH  10  12
ENDBRANCH   1  10
BRANCH   7  13
ATOM     13  O   UNL     1       4.886   3.447  17.325  0.00  0.00    +0.000 OA
BRANCH  13  14
ATOM     14  C   UNL     1       3.484   3.450  17.163  0.00  0.00    +0.000 C 
ATOM     15  C   UNL     1       2.766   2.288  17.834  0.00  0.00    +0.000 C 
ATOM     16  C   UNL     1       1.423   2.831  18.308  0.00  0.00    +0.000 C 
ATOM     17  C   UNL     1       1.471   4.358  18.222  0.00  0.00    +0.000 C 
ATOM     18  C   UNL     1       2.865   4.744  17.745  0.00  0.00    +0.000 C 
ENDBRANCH  13  14
ENDBRANCH   7  13
TORSDOF 5
ENDMDL
MODEL 7
REMARK VINA RESULT:      -6.5      2.607      5.913
REMARK  Name = 
REMARK  6 active torsions:
REMARK  status: ('A' for Active; 'I' for Inactive)
REMARK    1  A    between atoms: C_1  and  C_2
REMARK    2  A    between atoms: C_2  and  O_3
REMARK    3  A    between atoms: O_3  and  C_4
REMARK    4  A    between atoms: C_6  and  C_7
REMARK    5  A    between atoms: C_12  and  O_13
REMARK    6  A    between atoms: O_13  and  C_14
REMARK                            x       y       z     vdW  Elec       q    Type
REMARK                         _______ _______ _______ _____ _____    ______ ____
ROOT
ATOM      1  C   UNL     1       2.455   6.370  19.536  0.00  0.00    +0.000 A 
ATOM      2  C   UNL     1       1.916   5.401  20.401  0.00  0.00    +0.000 A 
ATOM      3  C   UNL     1       2.031   4.025  20.167  0.00  0.00    +0.000 A 
ATOM      4  C   UNL     1       2.717   3.585  19.035  0.00  0.00    +0.000 A 
ATOM      5 BR   UNL     1       2.953   1.766  18.556  0.00  0.00    +0.000 Br
ATOM      6  C   UNL     1       3.251   4.533  18.160  0.00  0.00    +0.000 A 
ATOM      7  C   UNL     1       3.143   5.915  18.389  0.00  0.00    +0.000 A 
ENDROOT
BRANCH   3   8
ATOM      8  C   UNL     1       1.375   3.120  21.132  0.00  0.00    +0.000 C 
ATOM      9  O   UNL     1       1.938   2.718  22.170  0.00  0.00    +0.000 OA
ENDBRANCH   3   8
BRANCH   1  10
ATOM     10  O   UNL     1       2.259   7.713  19.778  0.00  0.00    +0.000 OA
BRANCH  10  12
ATOM     11  C   UNL     1       0.663   9.354  20.631  0.00  0.00    +0.000 C 
ATOM     12  C   UNL     1       1.405   8.054  20.896  0.00  0.00    +0.000 C 
ENDBRANCH  10  12
ENDBRANCH   1  10
BRANCH   7  13
ATOM     13  O   UNL     1       3.696   6.598  17.334  0.00  0.00    +0.000 OA
BRANCH  13  14
ATOM     14  C   UNL     1       5.094   6.626  17.141  0.00  0.00    +0.000 C 
ATOM     15  C   UNL     1       5.896   5.909  18.217  0.00  0.00    +0.000 C 
ATOM     16  C   UNL     1       7.104   5.301  17.517  0.00  0.00    +0.000 C 
ATOM     17  C   UNL     1       6.861   5.366  16.007  0.00  0.00    +0.000 C 
ATOM     18  C   UNL     1       5.477   5.967  15.794  0.00  0.00    +0.000 C 
ENDBRANCH  13  14
ENDBRANCH   7  13
TORSDOF 5
ENDMDL
MODEL 8
REMARK VINA RESULT:      -6.5      2.127      2.794
REMARK  Name = 
REMARK  6 active torsions:
REMARK  status: ('A' for Active; 'I' for Inactive)
REMARK    1  A    between atoms: C_1  and  C_2
REMARK    2  A    between atoms: C_2  and  O_3
REMARK    3  A    between atoms: O_3  and  C_4
REMARK    4  A    between atoms: C_6  and  C_7
REMARK    5  A    between atoms: C_12  and  O_13
REMARK    6  A    between atoms: O_13  and  C_14
REMARK                            x       y       z     vdW  Elec       q    Type
REMARK                         _______ _______ _______ _____ _____    ______ ____
ROOT
ATOM      1  C   UNL     1       3.563   4.634  17.539  0.00  0.00    +0.000 A 
ATOM      2  C   UNL     1       4.851   4.162  17.229  0.00  0.00    +0.000 A 
ATOM      3  C   UNL     1       5.975   4.998  17.182  0.00  0.00    +0.000 A 
ATOM      4  C   UNL     1       5.822   6.356  17.462  0.00  0.00    +0.000 A 
ATOM      5 BR   UNL     1       7.227   7.628  17.427  0.00  0.00    +0.000 Br
ATOM      6  C   UNL     1       4.549   6.843  17.763  0.00  0.00    +0.000 A 
ATOM      7  C   UNL     1       3.417   6.012  17.816  0.00  0.00    +0.000 A 
ENDROOT
BRANCH   3   8
ATOM      8  C   UNL     1       7.258   4.379  16.794  0.00  0.00    +0.000 C 
ATOM      9  O   UNL     1       7.819   4.616  15.705  0.00  0.00    +0.000 OA
ENDBRANCH   3   8
BRANCH   1  10
ATOM     10  O   UNL     1       2.479   3.782  17.510  0.00  0.00    +0.000 OA
BRANCH  10  12
ATOM     11  C   UNL     1       0.819   2.562  18.824  0.00  0.00    +0.000 C 
ATOM     12  C   UNL     1       2.284   2.940  18.672  0.00  0.00    +0.000 C 
ENDBRANCH  10  12
ENDBRANCH   1  10
BRANCH   7  13
ATOM     13  O   UNL     1       2.302   6.773  18.064  0.00  0.00    +0.000 OA
BRANCH  13  14
ATOM     14  C   UNL     1       2.308   7.761  19.072  0.00  0.00    +0.000 C 
ATOM     15  C   UNL     1       1.461   8.986  18.762  0.00  0.00    +0.000 C 
ATOM     16  C   UNL     1       0.890   9.460  20.093  0.00  0.00    +0.000 C 
ATOM     17  C   UNL     1       1.115   8.355  21.127  0.00  0.00    +0.000 C 
ATOM     18  C   UNL     1       1.777   7.186  20.408  0.00  0.00    +0.000 C 
ENDBRANCH  13  14
ENDBRANCH   7  13
TORSDOF 5
ENDMDL
MODEL 9
REMARK VINA RESULT:      -6.4      2.728      5.745
REMARK  Name = 
REMARK  6 active torsions:
REMARK  status: ('A' for Active; 'I' for Inactive)
REMARK    1  A    between atoms: C_1  and  C_2
REMARK    2  A    between atoms: C_2  and  O_3
REMARK    3  A    between atoms: O_3  and  C_4
REMARK    4  A    between atoms: C_6  and  C_7
REMARK    5  A    between atoms: C_12  and  O_13
REMARK    6  A    between atoms: O_13  and  C_14
REMARK                            x       y       z     vdW  Elec       q    Type
REMARK                         _______ _______ _______ _____ _____    ______ ____
ROOT
ATOM      1  C   UNL     1       3.330   6.294  18.120  0.00  0.00    +0.000 A 
ATOM      2  C   UNL     1       2.373   5.632  18.910  0.00  0.00    +0.000 A 
ATOM      3  C   UNL     1       2.317   4.236  19.024  0.00  0.00    +0.000 A 
ATOM      4  C   UNL     1       3.252   3.462  18.336  0.00  0.00    +0.000 A 
ATOM      5 BR   UNL     1       3.311   1.567  18.363  0.00  0.00    +0.000 Br
ATOM      6  C   UNL     1       4.203   4.103  17.540  0.00  0.00    +0.000 A 
ATOM      7  C   UNL     1       4.269   5.502  17.423  0.00  0.00    +0.000 A 
ENDROOT
BRANCH   3   8
ATOM      8  C   UNL     1       1.230   3.671  19.848  0.00  0.00    +0.000 C 
ATOM      9  O   UNL     1       1.355   3.451  21.069  0.00  0.00    +0.000 OA
ENDBRANCH   3   8
BRANCH   1  10
ATOM     10  O   UNL     1       3.303   7.667  17.992  0.00  0.00    +0.000 OA
BRANCH  10  12
ATOM     11  C   UNL     1       1.915   9.665  17.772  0.00  0.00    +0.000 C 
ATOM     12  C   UNL     1       2.126   8.344  18.495  0.00  0.00    +0.000 C 
ENDBRANCH  10  12
ENDBRANCH   1  10
BRANCH   7  13
ATOM     13  O   UNL     1       5.250   5.840  16.526  0.00  0.00    +0.000 OA
BRANCH  13  14
ATOM     14  C   UNL     1       6.593   5.980  16.938  0.00  0.00    +0.000 C 
ATOM     15  C   UNL     1       7.014   7.410  17.248  0.00  0.00    +0.000 C 
ATOM     16  C   UNL     1       8.018   7.322  18.390  0.00  0.00    +0.000 C 
ATOM     17  C   UNL     1       7.952   5.909  18.975  0.00  0.00    +0.000 C 
ATOM     18  C   UNL     1       6.865   5.154  18.219  0.00  0.00    +0.000 C 
ENDBRANCH  13  14
ENDBRANCH   7  13
TORSDOF 5
ENDMDL
