MODEL 1
REMARK VINA RESULT:      -8.0      0.000      0.000
REMARK  Name = 
REMARK  3 active torsions:
REMARK  status: ('A' for Active; 'I' for Inactive)
REMARK    1  A    between atoms: N_1  and  C_2
REMARK    2  A    between atoms: C_5  and  N_6
REMARK    3  A    between atoms: C_11  and  C_12
REMARK                            x       y       z     vdW  Elec       q    Type
REMARK                         _______ _______ _______ _____ _____    ______ ____
ROOT
ATOM      1  N   UNL     1       5.148   3.620  19.017  0.00  0.00    +0.000 N 
ATOM      2  C   UNL     1       3.925   4.126  19.535  0.00  0.00    +0.000 A 
ATOM      3  N   UNL     1       3.215   3.393  20.429  0.00  0.00    +0.000 NA
ATOM      4  C   UNL     1       2.068   3.880  20.969  0.00  0.00    +0.000 A 
ATOM      5  C   UNL     1       1.635   5.168  20.655  0.00  0.00    +0.000 A 
ATOM      6  C   UNL     1       2.398   5.944  19.762  0.00  0.00    +0.000 A 
ATOM      7  N   UNL     1       3.512   5.383  19.216  0.00  0.00    +0.000 NA
ATOM      8  H   UNL     1       5.664   2.932  19.584  0.00  0.00    +0.000 HD
ENDROOT
BRANCH   1  12
ATOM      9  C   UNL     1       6.887   4.949  15.384  0.00  0.00    +0.000 A 
ATOM     10  C   UNL     1       7.474   5.276  16.616  0.00  0.00    +0.000 A 
ATOM     11  C   UNL     1       6.903   4.829  17.813  0.00  0.00    +0.000 A 
ATOM     12  C   UNL     1       5.722   4.075  17.793  0.00  0.00    +0.000 A 
ATOM     13  C   UNL     1       5.142   3.741  16.554  0.00  0.00    +0.000 A 
ATOM     14  C   UNL     1       5.726   4.168  15.361  0.00  0.00    +0.000 A 
BRANCH   9  15
ATOM     15  N   UNL     1       7.454   5.410  14.173  0.00  0.00    +0.000 N 
ATOM     16  H   UNL     1       7.737   6.396  14.066  0.00  0.00    +0.000 HD
ATOM     17  H   UNL     1       7.559   4.780  13.364  0.00  0.00    +0.000 HD
ENDBRANCH   9  15
ENDBRANCH   1  12
BRANCH   6  18
ATOM     18  C   UNL     1       2.067   7.366  19.430  0.00  0.00    +0.000 A 
ATOM     19  C   UNL     1       2.312   7.927  18.157  0.00  0.00    +0.000 A 
ATOM     20  C   UNL     1       1.956   9.246  17.884  0.00  0.00    +0.000 A 
ATOM     21  C   UNL     1       1.354  10.015  18.877  0.00  0.00    +0.000 A 
ATOM     22  N   UNL     1       1.117   9.475  20.101  0.00  0.00    +0.000 NA
ATOM     23  C   UNL     1       1.452   8.191  20.396  0.00  0.00    +0.000 A 
ENDBRANCH   6  18
TORSDOF 3
ENDMDL
MODEL 2
REMARK VINA RESULT:      -8.0      0.030      1.083
REMARK  Name = 
REMARK  3 active torsions:
REMARK  status: ('A' for Active; 'I' for Inactive)
REMARK    1  A    between atoms: N_1  and  C_2
REMARK    2  A    between atoms: C_5  and  N_6
REMARK    3  A    between atoms: C_11  and  C_12
REMARK                            x       y       z     vdW  Elec       q    Type
REMARK                         _______ _______ _______ _____ _____    ______ ____
ROOT
ATOM      1  N   UNL     1       5.164   3.603  19.039  0.00  0.00    +0.000 N 
ATOM      2  C   UNL     1       3.936   4.109  19.545  0.00  0.00    +0.000 A 
ATOM      3  N   UNL     1       3.219   3.378  20.436  0.00  0.00    +0.000 NA
ATOM      4  C   UNL     1       2.068   3.866  20.965  0.00  0.00    +0.000 A 
ATOM      5  C   UNL     1       1.637   5.153  20.644  0.00  0.00    +0.000 A 
ATOM      6  C   UNL     1       2.406   5.926  19.755  0.00  0.00    +0.000 A 
ATOM      7  N   UNL     1       3.524   5.365  19.219  0.00  0.00    +0.000 NA
ATOM      8  H   UNL     1       5.676   2.916  19.611  0.00  0.00    +0.000 HD
ENDROOT
BRANCH   1  12
ATOM      9  C   UNL     1       6.865   4.972  15.403  0.00  0.00    +0.000 A 
ATOM     10  C   UNL     1       5.703   4.187  15.394  0.00  0.00    +0.000 A 
ATOM     11  C   UNL     1       5.139   3.743  16.595  0.00  0.00    +0.000 A 
ATOM     12  C   UNL     1       5.747   4.055  17.818  0.00  0.00    +0.000 A 
ATOM     13  C   UNL     1       6.908   4.853  17.823  0.00  0.00    +0.000 A 
ATOM     14  C   UNL     1       7.455   5.314  16.625  0.00  0.00    +0.000 A 
BRANCH   9  15
ATOM     15  N   UNL     1       7.445   5.411  14.189  0.00  0.00    +0.000 N 
ATOM     16  H   UNL     1       7.002   5.191  13.285  0.00  0.00    +0.000 HD
ATOM     17  H   UNL     1       8.340   5.924  14.185  0.00  0.00    +0.000 HD
ENDBRANCH   9  15
ENDBRANCH   1  12
BRANCH   6  18
ATOM     18  C   UNL     1       2.077   7.347  19.416  0.00  0.00    +0.000 A 
ATOM     19  C   UNL     1       2.329   7.905  18.144  0.00  0.00    +0.000 A 
ATOM     20  C   UNL     1       1.974   9.223  17.864  0.00  0.00    +0.000 A 
ATOM     21  C   UNL     1       1.366   9.995  18.851  0.00  0.00    +0.000 A 
ATOM     22  N   UNL     1       1.123   9.459  20.075  0.00  0.00    +0.000 NA
ATOM     23  C   UNL     1       1.457   8.176  20.377  0.00  0.00    +0.000 A 
ENDBRANCH   6  18
TORSDOF 3
ENDMDL
MODEL 3
REMARK VINA RESULT:      -7.7      0.610      1.078
REMARK  Name = 
REMARK  3 active torsions:
REMARK  status: ('A' for Active; 'I' for Inactive)
REMARK    1  A    between atoms: N_1  and  C_2
REMARK    2  A    between atoms: C_5  and  N_6
REMARK    3  A    between atoms: C_11  and  C_12
REMARK                            x       y       z     vdW  Elec       q    Type
REMARK                         _______ _______ _______ _____ _____    ______ ____
ROOT
ATOM      1  N   UNL     1       5.168   3.573  19.056  0.00  0.00    +0.000 N 
ATOM      2  C   UNL     1       3.935   4.043  19.583  0.00  0.00    +0.000 A 
ATOM      3  N   UNL     1       3.244   3.283  20.469  0.00  0.00    +0.000 NA
ATOM      4  C   UNL     1       2.087   3.735  21.017  0.00  0.00    +0.000 A 
ATOM      5  C   UNL     1       1.624   5.017  20.721  0.00  0.00    +0.000 A 
ATOM      6  C   UNL     1       2.366   5.822  19.836  0.00  0.00    +0.000 A 
ATOM      7  N   UNL     1       3.492   5.295  19.281  0.00  0.00    +0.000 NA
ATOM      8  H   UNL     1       5.702   2.889  19.613  0.00  0.00    +0.000 HD
ENDROOT
BRANCH   1  12
ATOM      9  C   UNL     1       6.866   4.988  15.436  0.00  0.00    +0.000 A 
ATOM     10  C   UNL     1       7.468   5.285  16.669  0.00  0.00    +0.000 A 
ATOM     11  C   UNL     1       6.910   4.810  17.861  0.00  0.00    +0.000 A 
ATOM     12  C   UNL     1       5.729   4.057  17.837  0.00  0.00    +0.000 A 
ATOM     13  C   UNL     1       5.134   3.752  16.597  0.00  0.00    +0.000 A 
ATOM     14  C   UNL     1       5.705   4.207  15.408  0.00  0.00    +0.000 A 
BRANCH   9  15
ATOM     15  N   UNL     1       7.421   5.478  14.230  0.00  0.00    +0.000 N 
ATOM     16  H   UNL     1       8.430   5.390  14.042  0.00  0.00    +0.000 HD
ATOM     17  H   UNL     1       6.833   5.966  13.538  0.00  0.00    +0.000 HD
ENDBRANCH   9  15
ENDBRANCH   1  12
BRANCH   6  18
ATOM     18  C   UNL     1       2.002   7.240  19.523  0.00  0.00    +0.000 A 
ATOM     19  C   UNL     1       1.378   8.091  20.462  0.00  0.00    +0.000 A 
ATOM     20  C   UNL     1       1.089   9.415  20.136  0.00  0.00    +0.000 A 
ATOM     21  C   UNL     1       1.419   9.899  18.873  0.00  0.00    +0.000 A 
ATOM     22  N   UNL     1       2.019   9.081  17.970  0.00  0.00    +0.000 NA
ATOM     23  C   UNL     1       2.315   7.786  18.260  0.00  0.00    +0.000 A 
ENDBRANCH   6  18
TORSDOF 3
ENDMDL
MODEL 4
REMARK VINA RESULT:      -7.6      0.617      1.531
REMARK  Name = 
REMARK  3 active torsions:
REMARK  status: ('A' for Active; 'I' for Inactive)
REMARK    1  A    between atoms: N_1  and  C_2
REMARK    2  A    between atoms: C_5  and  N_6
REMARK    3  A    between atoms: C_11  and  C_12
REMARK                            x       y       z     vdW  Elec       q    Type
REMARK                         _______ _______ _______ _____ _____    ______ ____
ROOT
ATOM      1  N   UNL     1       5.184   3.524  19.082  0.00  0.00    +0.000 N 
ATOM      2  C   UNL     1       3.946   3.997  19.595  0.00  0.00    +0.000 A 
ATOM      3  N   UNL     1       3.242   3.237  20.472  0.00  0.00    +0.000 NA
ATOM      4  C   UNL     1       2.080   3.692  21.008  0.00  0.00    +0.000 A 
ATOM      5  C   UNL     1       1.625   4.976  20.708  0.00  0.00    +0.000 A 
ATOM      6  C   UNL     1       2.380   5.780  19.834  0.00  0.00    +0.000 A 
ATOM      7  N   UNL     1       3.510   5.251  19.291  0.00  0.00    +0.000 NA
ATOM      8  H   UNL     1       5.708   2.838  19.643  0.00  0.00    +0.000 HD
ENDROOT
BRANCH   1  12
ATOM      9  C   UNL     1       6.863   4.991  15.474  0.00  0.00    +0.000 A 
ATOM     10  C   UNL     1       5.702   4.203  15.450  0.00  0.00    +0.000 A 
ATOM     11  C   UNL     1       5.146   3.727  16.643  0.00  0.00    +0.000 A 
ATOM     12  C   UNL     1       5.759   4.009  17.870  0.00  0.00    +0.000 A 
ATOM     13  C   UNL     1       6.918   4.809  17.890  0.00  0.00    +0.000 A 
ATOM     14  C   UNL     1       7.458   5.302  16.701  0.00  0.00    +0.000 A 
BRANCH   9  15
ATOM     15  N   UNL     1       7.435   5.462  14.269  0.00  0.00    +0.000 N 
ATOM     16  H   UNL     1       6.847   5.893  13.540  0.00  0.00    +0.000 HD
ATOM     17  H   UNL     1       8.443   5.347  14.081  0.00  0.00    +0.000 HD
ENDBRANCH   9  15
ENDBRANCH   1  12
BRANCH   6  18
ATOM     18  C   UNL     1       2.023   7.200  19.520  0.00  0.00    +0.000 A 
ATOM     19  C   UNL     1       1.424   8.062  20.465  0.00  0.00    +0.000 A 
ATOM     20  C   UNL     1       1.142   9.387  20.137  0.00  0.00    +0.000 A 
ATOM     21  C   UNL     1       1.453   9.861  18.865  0.00  0.00    +0.000 A 
ATOM     22  N   UNL     1       2.029   9.032  17.956  0.00  0.00    +0.000 NA
ATOM     23  C   UNL     1       2.318   7.736  18.247  0.00  0.00    +0.000 A 
ENDBRANCH   6  18
TORSDOF 3
ENDMDL
MODEL 5
REMARK VINA RESULT:      -7.2      3.063      4.714
REMARK  Name = 
REMARK  3 active torsions:
REMARK  status: ('A' for Active; 'I' for Inactive)
REMARK    1  A    between atoms: N_1  and  C_2
REMARK    2  A    between atoms: C_5  and  N_6
REMARK    3  A    between atoms: C_11  and  C_12
REMARK                            x       y       z     vdW  Elec       q    Type
REMARK                         _______ _______ _______ _____ _____    ______ ____
ROOT
ATOM      1  N   UNL     1       7.326   5.695  15.360  0.00  0.00    +0.000 N 
ATOM      2  C   UNL     1       6.947   5.509  16.717  0.00  0.00    +0.000 A 
ATOM      3  N   UNL     1       7.739   5.985  17.711  0.00  0.00    +0.000 NA
ATOM      4  C   UNL     1       7.371   5.857  19.012  0.00  0.00    +0.000 A 
ATOM      5  C   UNL     1       6.141   5.287  19.341  0.00  0.00    +0.000 A 
ATOM      6  C   UNL     1       5.301   4.835  18.306  0.00  0.00    +0.000 A 
ATOM      7  N   UNL     1       5.746   4.946  17.025  0.00  0.00    +0.000 NA
ATOM      8  H   UNL     1       7.947   6.486  15.135  0.00  0.00    +0.000 HD
ENDROOT
BRANCH   1  12
ATOM      9  C   UNL     1       5.821   3.312  12.190  0.00  0.00    +0.000 A 
ATOM     10  C   UNL     1       5.069   3.499  13.360  0.00  0.00    +0.000 A 
ATOM     11  C   UNL     1       5.564   4.292  14.401  0.00  0.00    +0.000 A 
ATOM     12  C   UNL     1       6.829   4.884  14.296  0.00  0.00    +0.000 A 
ATOM     13  C   UNL     1       7.576   4.704  13.116  0.00  0.00    +0.000 A 
ATOM     14  C   UNL     1       7.070   3.931  12.070  0.00  0.00    +0.000 A 
BRANCH   9  15
ATOM     15  N   UNL     1       5.328   2.500  11.142  0.00  0.00    +0.000 N 
ATOM     16  H   UNL     1       4.962   1.556  11.335  0.00  0.00    +0.000 HD
ATOM     17  H   UNL     1       5.362   2.822  10.162  0.00  0.00    +0.000 HD
ENDBRANCH   9  15
ENDBRANCH   1  12
BRANCH   6  18
ATOM     18  C   UNL     1       3.928   4.291  18.550  0.00  0.00    +0.000 A 
ATOM     19  C   UNL     1       2.815   4.649  17.758  0.00  0.00    +0.000 A 
ATOM     20  C   UNL     1       1.562   4.089  18.001  0.00  0.00    +0.000 A 
ATOM     21  C   UNL     1       1.410   3.170  19.035  0.00  0.00    +0.000 A 
ATOM     22  N   UNL     1       2.480   2.824  19.797  0.00  0.00    +0.000 NA
ATOM     23  C   UNL     1       3.715   3.352  19.583  0.00  0.00    +0.000 A 
ENDBRANCH   6  18
TORSDOF 3
ENDMDL
MODEL 6
REMARK VINA RESULT:      -7.1      3.029      4.643
REMARK  Name = 
REMARK  3 active torsions:
REMARK  status: ('A' for Active; 'I' for Inactive)
REMARK    1  A    between atoms: N_1  and  C_2
REMARK    2  A    between atoms: C_5  and  N_6
REMARK    3  A    between atoms: C_11  and  C_12
REMARK                            x       y       z     vdW  Elec       q    Type
REMARK                         _______ _______ _______ _____ _____    ______ ____
ROOT
ATOM      1  N   UNL     1       7.318   5.713  15.351  0.00  0.00    +0.000 N 
ATOM      2  C   UNL     1       6.951   5.527  16.711  0.00  0.00    +0.000 A 
ATOM      3  N   UNL     1       7.759   5.988  17.699  0.00  0.00    +0.000 NA
ATOM      4  C   UNL     1       7.403   5.860  19.003  0.00  0.00    +0.000 A 
ATOM      5  C   UNL     1       6.169   5.305  19.342  0.00  0.00    +0.000 A 
ATOM      6  C   UNL     1       5.312   4.869  18.314  0.00  0.00    +0.000 A 
ATOM      7  N   UNL     1       5.746   4.979  17.029  0.00  0.00    +0.000 NA
ATOM      8  H   UNL     1       7.947   6.496  15.123  0.00  0.00    +0.000 HD
ENDROOT
BRANCH   1  12
ATOM      9  C   UNL     1       5.806   3.307  12.201  0.00  0.00    +0.000 A 
ATOM     10  C   UNL     1       7.055   3.934  12.082  0.00  0.00    +0.000 A 
ATOM     11  C   UNL     1       7.555   4.721  13.126  0.00  0.00    +0.000 A 
ATOM     12  C   UNL     1       6.799   4.913  14.289  0.00  0.00    +0.000 A 
ATOM     13  C   UNL     1       5.550   4.273  14.410  0.00  0.00    +0.000 A 
ATOM     14  C   UNL     1       5.064   3.471  13.377  0.00  0.00    +0.000 A 
BRANCH   9  15
ATOM     15  N   UNL     1       5.292   2.523  11.142  0.00  0.00    +0.000 N 
ATOM     16  H   UNL     1       5.863   1.781  10.712  0.00  0.00    +0.000 HD
ATOM     17  H   UNL     1       4.352   2.704  10.757  0.00  0.00    +0.000 HD
ENDBRANCH   9  15
ENDBRANCH   1  12
BRANCH   6  18
ATOM     18  C   UNL     1       3.934   4.342  18.570  0.00  0.00    +0.000 A 
ATOM     19  C   UNL     1       2.826   4.687  17.766  0.00  0.00    +0.000 A 
ATOM     20  C   UNL     1       1.568   4.144  18.022  0.00  0.00    +0.000 A 
ATOM     21  C   UNL     1       1.407   3.255  19.082  0.00  0.00    +0.000 A 
ATOM     22  N   UNL     1       2.472   2.923  19.855  0.00  0.00    +0.000 NA
ATOM     23  C   UNL     1       3.712   3.435  19.629  0.00  0.00    +0.000 A 
ENDBRANCH   6  18
TORSDOF 3
ENDMDL
MODEL 7
REMARK VINA RESULT:      -6.7      2.974      6.633
REMARK  Name = 
REMARK  3 active torsions:
REMARK  status: ('A' for Active; 'I' for Inactive)
REMARK    1  A    between atoms: N_1  and  C_2
REMARK    2  A    between atoms: C_5  and  N_6
REMARK    3  A    between atoms: C_11  and  C_12
REMARK                            x       y       z     vdW  Elec       q    Type
REMARK                         _______ _______ _______ _____ _____    ______ ____
ROOT
ATOM      1  N   UNL     1       5.351   4.534  19.482  0.00  0.00    +0.000 N 
ATOM      2  C   UNL     1       6.075   5.216  18.468  0.00  0.00    +0.000 A 
ATOM      3  N   UNL     1       6.943   6.203  18.804  0.00  0.00    +0.000 NA
ATOM      4  C   UNL     1       7.677   6.835  17.852  0.00  0.00    +0.000 A 
ATOM      5  C   UNL     1       7.592   6.435  16.519  0.00  0.00    +0.000 A 
ATOM      6  C   UNL     1       6.724   5.380  16.179  0.00  0.00    +0.000 A 
ATOM      7  N   UNL     1       5.978   4.819  17.169  0.00  0.00    +0.000 NA
ATOM      8  H   UNL     1       5.754   4.509  20.430  0.00  0.00    +0.000 HD
ENDROOT
BRANCH   1  12
ATOM      9  C   UNL     1       1.746   2.416  18.770  0.00  0.00    +0.000 A 
ATOM     10  C   UNL     1       2.960   1.727  18.914  0.00  0.00    +0.000 A 
ATOM     11  C   UNL     1       4.146   2.428  19.157  0.00  0.00    +0.000 A 
ATOM     12  C   UNL     1       4.138   3.827  19.230  0.00  0.00    +0.000 A 
ATOM     13  C   UNL     1       2.915   4.513  19.096  0.00  0.00    +0.000 A 
ATOM     14  C   UNL     1       1.730   3.811  18.877  0.00  0.00    +0.000 A 
BRANCH   9  15
ATOM     15  N   UNL     1       0.546   1.711  18.511  0.00  0.00    +0.000 N 
ATOM     16  H   UNL     1      -0.320   1.942  19.019  0.00  0.00    +0.000 HD
ATOM     17  H   UNL     1       0.527   0.928  17.840  0.00  0.00    +0.000 HD
ENDBRANCH   9  15
ENDBRANCH   1  12
BRANCH   6  18
ATOM     18  C   UNL     1       6.626   4.820  14.794  0.00  0.00    +0.000 A 
ATOM     19  C   UNL     1       5.574   3.969  14.389  0.00  0.00    +0.000 A 
ATOM     20  C   UNL     1       5.506   3.500  13.079  0.00  0.00    +0.000 A 
ATOM     21  C   UNL     1       6.487   3.873  12.164  0.00  0.00    +0.000 A 
ATOM     22  N   UNL     1       7.500   4.691  12.552  0.00  0.00    +0.000 NA
ATOM     23  C   UNL     1       7.591   5.166  13.823  0.00  0.00    +0.000 A 
ENDBRANCH   6  18
TORSDOF 3
ENDMDL
MODEL 8
REMARK VINA RESULT:      -6.7      2.974      6.604
REMARK  Name = 
REMARK  3 active torsions:
REMARK  status: ('A' for Active; 'I' for Inactive)
REMARK    1  A    between atoms: N_1  and  C_2
REMARK    2  A    between atoms: C_5  and  N_6
REMARK    3  A    between atoms: C_11  and  C_12
REMARK                            x       y       z     vdW  Elec       q    Type
REMARK                         _______ _______ _______ _____ _____    ______ ____
ROOT
ATOM      1  N   UNL     1       5.349   4.529  19.517  0.00  0.00    +0.000 N 
ATOM      2  C   UNL     1       6.063   5.218  18.500  0.00  0.00    +0.000 A 
ATOM      3  N   UNL     1       6.928   6.210  18.834  0.00  0.00    +0.000 NA
ATOM      4  C   UNL     1       7.652   6.849  17.879  0.00  0.00    +0.000 A 
ATOM      5  C   UNL     1       7.561   6.451  16.546  0.00  0.00    +0.000 A 
ATOM      6  C   UNL     1       6.698   5.392  16.208  0.00  0.00    +0.000 A 
ATOM      7  N   UNL     1       5.962   4.823  17.201  0.00  0.00    +0.000 NA
ATOM      8  H   UNL     1       5.759   4.505  20.463  0.00  0.00    +0.000 HD
ENDROOT
BRANCH   1  12
ATOM      9  C   UNL     1       1.749   2.423  18.746  0.00  0.00    +0.000 A 
ATOM     10  C   UNL     1       1.744   3.821  18.870  0.00  0.00    +0.000 A 
ATOM     11  C   UNL     1       2.935   4.513  19.117  0.00  0.00    +0.000 A 
ATOM     12  C   UNL     1       4.139   3.815  19.271  0.00  0.00    +0.000 A 
ATOM     13  C   UNL     1       4.142   2.413  19.135  0.00  0.00    +0.000 A 
ATOM     14  C   UNL     1       2.957   1.726  18.866  0.00  0.00    +0.000 A 
BRANCH   9  15
ATOM     15  N   UNL     1       0.545   1.718  18.510  0.00  0.00    +0.000 N 
ATOM     16  H   UNL     1      -0.160   1.618  19.255  0.00  0.00    +0.000 HD
ATOM     17  H   UNL     1       0.370   1.260  17.604  0.00  0.00    +0.000 HD
ENDBRANCH   9  15
ENDBRANCH   1  12
BRANCH   6  18
ATOM     18  C   UNL     1       6.596   4.834  14.822  0.00  0.00    +0.000 A 
ATOM     19  C   UNL     1       5.534   3.996  14.415  0.00  0.00    +0.000 A 
ATOM     20  C   UNL     1       5.463   3.529  13.104  0.00  0.00    +0.000 A 
ATOM     21  C   UNL     1       6.449   3.891  12.191  0.00  0.00    +0.000 A 
ATOM     22  N   UNL     1       7.471   4.696  12.582  0.00  0.00    +0.000 NA
ATOM     23  C   UNL     1       7.566   5.170  13.853  0.00  0.00    +0.000 A 
ENDBRANCH   6  18
TORSDOF 3
ENDMDL
MODEL 9
REMARK VINA RESULT:      -6.6      3.348      5.775
REMARK  Name = 
REMARK  3 active torsions:
REMARK  status: ('A' for Active; 'I' for Inactive)
REMARK    1  A    between atoms: N_1  and  C_2
REMARK    2  A    between atoms: C_5  and  N_6
REMARK    3  A    between atoms: C_11  and  C_12
REMARK                            x       y       z     vdW  Elec       q    Type
REMARK                         _______ _______ _______ _____ _____    ______ ____
ROOT
ATOM      1  N   UNL     1       2.031   8.306  21.015  0.00  0.00    +0.000 N 
ATOM      2  C   UNL     1       0.963   9.243  21.058  0.00  0.00    +0.000 A 
ATOM      3  N   UNL     1       0.811  10.045  22.143  0.00  0.00    +0.000 NA
ATOM      4  C   UNL     1      -0.175  10.978  22.182  0.00  0.00    +0.000 A 
ATOM      5  C   UNL     1      -1.009  11.165  21.080  0.00  0.00    +0.000 A 
ATOM      6  C   UNL     1      -0.819  10.364  19.938  0.00  0.00    +0.000 A 
ATOM      7  N   UNL     1       0.154   9.413  19.977  0.00  0.00    +0.000 NA
ATOM      8  H   UNL     1       2.867   8.500  21.584  0.00  0.00    +0.000 HD
ENDROOT
BRANCH   1  12
ATOM      9  C   UNL     1       2.047   4.889  18.502  0.00  0.00    +0.000 A 
ATOM     10  C   UNL     1       2.467   6.136  18.012  0.00  0.00    +0.000 A 
ATOM     11  C   UNL     1       2.468   7.259  18.846  0.00  0.00    +0.000 A 
ATOM     12  C   UNL     1       2.022   7.156  20.170  0.00  0.00    +0.000 A 
ATOM     13  C   UNL     1       1.612   5.901  20.661  0.00  0.00    +0.000 A 
ATOM     14  C   UNL     1       1.634   4.777  19.834  0.00  0.00    +0.000 A 
BRANCH   9  15
ATOM     15  N   UNL     1       2.032   3.754  17.658  0.00  0.00    +0.000 N 
ATOM     16  H   UNL     1       2.066   2.803  18.054  0.00  0.00    +0.000 HD
ATOM     17  H   UNL     1       2.026   3.858  16.632  0.00  0.00    +0.000 HD
ENDBRANCH   9  15
ENDBRANCH   1  12
BRANCH   6  18
ATOM     18  C   UNL     1      -1.602  10.546  18.675  0.00  0.00    +0.000 A 
ATOM     19  C   UNL     1      -1.371   9.771  17.517  0.00  0.00    +0.000 A 
ATOM     20  C   UNL     1      -2.148   9.954  16.375  0.00  0.00    +0.000 A 
ATOM     21  C   UNL     1      -3.159  10.911  16.378  0.00  0.00    +0.000 A 
ATOM     22  N   UNL     1      -3.382  11.656  17.491  0.00  0.00    +0.000 NA
ATOM     23  C   UNL     1      -2.642  11.500  18.621  0.00  0.00    +0.000 A 
ENDBRANCH   6  18
TORSDOF 3
ENDMDL
