MODEL 1
REMARK VINA RESULT:      -6.8      0.000      0.000
REMARK  Name = 
REMARK  19 active torsions:
REMARK  status: ('A' for Active; 'I' for Inactive)
REMARK    1  A    between atoms: C_1  and  C_2
REMARK    2  A    between atoms: C_2  and  C_3
REMARK    3  A    between atoms: C_3  and  C_4
REMARK    4  A    between atoms: C_4  and  C_5
REMARK    5  A    between atoms: C_6  and  C_7
REMARK    6  A    between atoms: C_7  and  C_8
REMARK    7  A    between atoms: C_9  and  C_10
REMARK    8  A    between atoms: C_10  and  C_11
REMARK    9  A    between atoms: C_11  and  C_12
REMARK   10  A    between atoms: C_12  and  C_13
REMARK   11  A    between atoms: C_13  and  C_14
REMARK   12  A    between atoms: C_14  and  C_15
REMARK   13  A    between atoms: C_15  and  C_16
REMARK   14  A    between atoms: C_16  and  C_17
REMARK   15  A    between atoms: C_17  and  O_19
REMARK   16  A    between atoms: O_19  and  C_20
REMARK   17  A    between atoms: C_20  and  C_21
REMARK   18  A    between atoms: C_24  and  N_25
REMARK   19  A    between atoms: C_27  and  C_28
REMARK                            x       y       z     vdW  Elec       q    Type
REMARK                         _______ _______ _______ _____ _____    ______ ____
ROOT
ATOM      1  C   UNL     1       1.781   3.160  21.175  0.00  0.00    +0.000 C 
ATOM      2  O   UNL     1       1.655   2.559  22.232  0.00  0.00    +0.000 OA
ENDROOT
BRANCH   1   3
ATOM      3  O   UNL     1       1.396   2.703  19.954  0.00  0.00    +0.000 OA
BRANCH   3   4
ATOM      4  C   UNL     1       2.409   1.978  19.246  0.00  0.00    +0.000 C 
BRANCH   4   5
ATOM      5  C   UNL     1       2.796   2.551  17.876  0.00  0.00    +0.000 C 
ATOM      6  C   UNL     1       2.099   3.814  17.478  0.00  0.00    +0.000 C 
ATOM      7  C   UNL     1       2.968   4.828  17.409  0.00  0.00    +0.000 C 
ATOM      8  C   UNL     1       4.325   4.342  17.767  0.00  0.00    +0.000 C 
ATOM      9  O   UNL     1       4.202   2.914  17.931  0.00  0.00    +0.000 OA
BRANCH   8  10
ATOM     10  N   UNL     1       5.279   4.674  16.720  0.00  0.00    +0.000 N 
ATOM     11  C   UNL     1       5.194   4.089  15.471  0.00  0.00    +0.000 A 
ATOM     12  C   UNL     1       6.107   4.296  14.519  0.00  0.00    +0.000 A 
ATOM     13  C   UNL     1       6.102   3.609  13.197  0.00  0.00    +0.000 C 
ATOM     14  C   UNL     1       7.206   5.229  14.825  0.00  0.00    +0.000 A 
ATOM     15  O   UNL     1       8.120   5.422  14.032  0.00  0.00    +0.000 OA
ATOM     16  N   UNL     1       7.160   5.862  16.029  0.00  0.00    +0.000 N 
ATOM     17  C   UNL     1       6.282   5.580  17.039  0.00  0.00    +0.000 A 
ATOM     18  O   UNL     1       6.417   6.114  18.139  0.00  0.00    +0.000 OA
ATOM     19  H   UNL     1       7.926   6.485  16.239  0.00  0.00    +0.000 HD
ENDBRANCH   8  10
ENDBRANCH   4   5
ENDBRANCH   3   4
ENDBRANCH   1   3
BRANCH   1  20
ATOM     20  C   UNL     1       2.473   4.491  21.011  0.00  0.00    +0.000 C 
BRANCH  20  21
ATOM     21  C   UNL     1       1.463   5.569  20.635  0.00  0.00    +0.000 C 
BRANCH  21  22
ATOM     22  C   UNL     1       2.091   6.957  20.580  0.00  0.00    +0.000 C 
BRANCH  22  23
ATOM     23  C   UNL     1       1.989   7.522  19.164  0.00  0.00    +0.000 C 
BRANCH  23  24
ATOM     24  C   UNL     1       1.633   9.004  19.182  0.00  0.00    +0.000 C 
BRANCH  24  25
ATOM     25  C   UNL     1       0.568   9.297  20.237  0.00  0.00    +0.000 C 
BRANCH  25  26
ATOM     26  C   UNL     1       0.908  10.572  21.004  0.00  0.00    +0.000 C 
BRANCH  26  28
ATOM     27  C   UNL     1       0.371  12.229  19.213  0.00  0.00    +0.000 C 
ATOM     28  C   UNL     1       0.168  11.747  20.447  0.00  0.00    +0.000 C 
BRANCH  27  29
ATOM     29  C   UNL     1      -0.375  13.396  18.651  0.00  0.00    +0.000 C 
BRANCH  29  31
ATOM     30  C   UNL     1      -2.043  13.977  20.420  0.00  0.00    +0.000 C 
ATOM     31  C   UNL     1      -0.920  14.259  19.745  0.00  0.00    +0.000 C 
BRANCH  30  32
ATOM     32  C   UNL     1      -2.568  14.840  21.527  0.00  0.00    +0.000 C 
BRANCH  32  33
ATOM     33  C   UNL     1      -2.988  13.989  22.725  0.00  0.00    +0.000 C 
BRANCH  33  35
ATOM     34  C   UNL     1      -2.174  11.696  23.353  0.00  0.00    +0.000 C 
ATOM     35  C   UNL     1      -2.997  12.504  22.366  0.00  0.00    +0.000 C 
ENDBRANCH  33  35
ENDBRANCH  32  33
ENDBRANCH  30  32
ENDBRANCH  29  31
ENDBRANCH  27  29
ENDBRANCH  26  28
ENDBRANCH  25  26
ENDBRANCH  24  25
ENDBRANCH  23  24
ENDBRANCH  22  23
ENDBRANCH  21  22
ENDBRANCH  20  21
ENDBRANCH   1  20
TORSDOF 17
ENDMDL
MODEL 2
REMARK VINA RESULT:      -6.7      1.589      2.380
REMARK  Name = 
REMARK  19 active torsions:
REMARK  status: ('A' for Active; 'I' for Inactive)
REMARK    1  A    between atoms: C_1  and  C_2
REMARK    2  A    between atoms: C_2  and  C_3
REMARK    3  A    between atoms: C_3  and  C_4
REMARK    4  A    between atoms: C_4  and  C_5
REMARK    5  A    between atoms: C_6  and  C_7
REMARK    6  A    between atoms: C_7  and  C_8
REMARK    7  A    between atoms: C_9  and  C_10
REMARK    8  A    between atoms: C_10  and  C_11
REMARK    9  A    between atoms: C_11  and  C_12
REMARK   10  A    between atoms: C_12  and  C_13
REMARK   11  A    between atoms: C_13  and  C_14
REMARK   12  A    between atoms: C_14  and  C_15
REMARK   13  A    between atoms: C_15  and  C_16
REMARK   14  A    between atoms: C_16  and  C_17
REMARK   15  A    between atoms: C_17  and  O_19
REMARK   16  A    between atoms: O_19  and  C_20
REMARK   17  A    between atoms: C_20  and  C_21
REMARK   18  A    between atoms: C_24  and  N_25
REMARK   19  A    between atoms: C_27  and  C_28
REMARK                            x       y       z     vdW  Elec       q    Type
REMARK                         _______ _______ _______ _____ _____    ______ ____
ROOT
ATOM      1  C   UNL     1       1.357   2.895  20.894  0.00  0.00    +0.000 C 
ATOM      2  O   UNL     1       1.676   2.508  22.008  0.00  0.00    +0.000 OA
ENDROOT
BRANCH   1   3
ATOM      3  O   UNL     1       1.457   2.173  19.746  0.00  0.00    +0.000 OA
BRANCH   3   4
ATOM      4  C   UNL     1       2.800   1.928  19.315  0.00  0.00    +0.000 C 
BRANCH   4   5
ATOM      5  C   UNL     1       3.143   2.427  17.904  0.00  0.00    +0.000 C 
ATOM      6  C   UNL     1       2.333   3.583  17.408  0.00  0.00    +0.000 C 
ATOM      7  C   UNL     1       3.104   4.666  17.260  0.00  0.00    +0.000 C 
ATOM      8  C   UNL     1       4.498   4.338  17.655  0.00  0.00    +0.000 C 
ATOM      9  O   UNL     1       4.508   2.923  17.930  0.00  0.00    +0.000 OA
BRANCH   8  10
ATOM     10  N   UNL     1       5.425   4.677  16.586  0.00  0.00    +0.000 N 
ATOM     11  C   UNL     1       5.291   4.118  15.329  0.00  0.00    +0.000 A 
ATOM     12  C   UNL     1       6.178   4.329  14.352  0.00  0.00    +0.000 A 
ATOM     13  C   UNL     1       6.121   3.669  13.019  0.00  0.00    +0.000 C 
ATOM     14  C   UNL     1       7.300   5.238  14.643  0.00  0.00    +0.000 A 
ATOM     15  O   UNL     1       8.192   5.433  13.825  0.00  0.00    +0.000 OA
ATOM     16  N   UNL     1       7.302   5.849  15.859  0.00  0.00    +0.000 N 
ATOM     17  C   UNL     1       6.451   5.561  16.890  0.00  0.00    +0.000 A 
ATOM     18  O   UNL     1       6.629   6.070  17.996  0.00  0.00    +0.000 OA
ATOM     19  H   UNL     1       8.085   6.456  16.057  0.00  0.00    +0.000 HD
ENDBRANCH   8  10
ENDBRANCH   4   5
ENDBRANCH   3   4
ENDBRANCH   1   3
BRANCH   1  20
ATOM     20  C   UNL     1       0.876   4.288  20.563  0.00  0.00    +0.000 C 
BRANCH  20  21
ATOM     21  C   UNL     1       2.030   5.280  20.648  0.00  0.00    +0.000 C 
BRANCH  21  22
ATOM     22  C   UNL     1       1.549   6.726  20.685  0.00  0.00    +0.000 C 
BRANCH  22  23
ATOM     23  C   UNL     1       2.094   7.490  19.479  0.00  0.00    +0.000 C 
BRANCH  23  24
ATOM     24  C   UNL     1       1.680   8.956  19.518  0.00  0.00    +0.000 C 
BRANCH  24  25
ATOM     25  C   UNL     1       1.324   9.459  18.119  0.00  0.00    +0.000 C 
BRANCH  25  26
ATOM     26  C   UNL     1      -0.188   9.607  17.971  0.00  0.00    +0.000 C 
BRANCH  26  28
ATOM     27  C   UNL     1      -0.306  12.049  18.486  0.00  0.00    +0.000 C 
ATOM     28  C   UNL     1      -0.689  10.790  18.740  0.00  0.00    +0.000 C 
BRANCH  27  29
ATOM     29  C   UNL     1      -0.814  13.233  19.245  0.00  0.00    +0.000 C 
BRANCH  29  31
ATOM     30  C   UNL     1       0.700  15.192  18.896  0.00  0.00    +0.000 C 
ATOM     31  C   UNL     1       0.310  14.141  19.632  0.00  0.00    +0.000 C 
BRANCH  30  32
ATOM     32  C   UNL     1       1.815  16.105  19.304  0.00  0.00    +0.000 C 
BRANCH  32  33
ATOM     33  C   UNL     1       1.565  16.677  20.698  0.00  0.00    +0.000 C 
BRANCH  33  35
ATOM     34  C   UNL     1       0.219  18.313  22.051  0.00  0.00    +0.000 C 
ATOM     35  C   UNL     1       0.485  17.758  20.662  0.00  0.00    +0.000 C 
ENDBRANCH  33  35
ENDBRANCH  32  33
ENDBRANCH  30  32
ENDBRANCH  29  31
ENDBRANCH  27  29
ENDBRANCH  26  28
ENDBRANCH  25  26
ENDBRANCH  24  25
ENDBRANCH  23  24
ENDBRANCH  22  23
ENDBRANCH  21  22
ENDBRANCH  20  21
ENDBRANCH   1  20
TORSDOF 17
ENDMDL
MODEL 3
REMARK VINA RESULT:      -6.7      2.001      3.314
REMARK  Name = 
REMARK  19 active torsions:
REMARK  status: ('A' for Active; 'I' for Inactive)
REMARK    1  A    between atoms: C_1  and  C_2
REMARK    2  A    between atoms: C_2  and  C_3
REMARK    3  A    between atoms: C_3  and  C_4
REMARK    4  A    between atoms: C_4  and  C_5
REMARK    5  A    between atoms: C_6  and  C_7
REMARK    6  A    between atoms: C_7  and  C_8
REMARK    7  A    between atoms: C_9  and  C_10
REMARK    8  A    between atoms: C_10  and  C_11
REMARK    9  A    between atoms: C_11  and  C_12
REMARK   10  A    between atoms: C_12  and  C_13
REMARK   11  A    between atoms: C_13  and  C_14
REMARK   12  A    between atoms: C_14  and  C_15
REMARK   13  A    between atoms: C_15  and  C_16
REMARK   14  A    between atoms: C_16  and  C_17
REMARK   15  A    between atoms: C_17  and  O_19
REMARK   16  A    between atoms: O_19  and  C_20
REMARK   17  A    between atoms: C_20  and  C_21
REMARK   18  A    between atoms: C_24  and  N_25
REMARK   19  A    between atoms: C_27  and  C_28
REMARK                            x       y       z     vdW  Elec       q    Type
REMARK                         _______ _______ _______ _____ _____    ______ ____
ROOT
ATOM      1  C   UNL     1       1.663   4.065  20.590  0.00  0.00    +0.000 C 
ATOM      2  O   UNL     1       0.833   3.183  20.425  0.00  0.00    +0.000 OA
ENDROOT
BRANCH   1   3
ATOM      3  O   UNL     1       3.010   3.884  20.642  0.00  0.00    +0.000 OA
BRANCH   3   4
ATOM      4  C   UNL     1       3.449   2.578  20.249  0.00  0.00    +0.000 C 
BRANCH   4   5
ATOM      5  C   UNL     1       4.032   2.475  18.833  0.00  0.00    +0.000 C 
ATOM      6  C   UNL     1       3.035   2.477  17.717  0.00  0.00    +0.000 C 
ATOM      7  C   UNL     1       3.165   3.582  16.974  0.00  0.00    +0.000 C 
ATOM      8  C   UNL     1       4.253   4.427  17.532  0.00  0.00    +0.000 C 
ATOM      9  O   UNL     1       4.841   3.659  18.601  0.00  0.00    +0.000 OA
BRANCH   8  10
ATOM     10  N   UNL     1       5.233   4.742  16.504  0.00  0.00    +0.000 N 
ATOM     11  C   UNL     1       5.160   4.159  15.253  0.00  0.00    +0.000 A 
ATOM     12  C   UNL     1       6.096   4.349  14.318  0.00  0.00    +0.000 A 
ATOM     13  C   UNL     1       6.102   3.664  12.996  0.00  0.00    +0.000 C 
ATOM     14  C   UNL     1       7.206   5.260  14.647  0.00  0.00    +0.000 A 
ATOM     15  O   UNL     1       8.138   5.437  13.871  0.00  0.00    +0.000 OA
ATOM     16  N   UNL     1       7.149   5.894  15.850  0.00  0.00    +0.000 N 
ATOM     17  C   UNL     1       6.247   5.628  16.843  0.00  0.00    +0.000 A 
ATOM     18  O   UNL     1       6.371   6.158  17.946  0.00  0.00    +0.000 OA
ATOM     19  H   UNL     1       7.923   6.502  16.075  0.00  0.00    +0.000 HD
ENDBRANCH   8  10
ENDBRANCH   4   5
ENDBRANCH   3   4
ENDBRANCH   1   3
BRANCH   1  20
ATOM     20  C   UNL     1       1.346   5.515  20.863  0.00  0.00    +0.000 C 
BRANCH  20  21
ATOM     21  C   UNL     1       2.210   6.418  19.989  0.00  0.00    +0.000 C 
BRANCH  21  22
ATOM     22  C   UNL     1       1.887   7.895  20.186  0.00  0.00    +0.000 C 
BRANCH  22  23
ATOM     23  C   UNL     1       0.902   8.066  21.341  0.00  0.00    +0.000 C 
BRANCH  23  24
ATOM     24  C   UNL     1       0.971   9.472  21.926  0.00  0.00    +0.000 C 
BRANCH  24  25
ATOM     25  C   UNL     1       0.850  10.526  20.826  0.00  0.00    +0.000 C 
BRANCH  25  26
ATOM     26  C   UNL     1      -0.585  11.036  20.728  0.00  0.00    +0.000 C 
BRANCH  26  28
ATOM     27  C   UNL     1      -0.487  13.264  19.601  0.00  0.00    +0.000 C 
ATOM     28  C   UNL     1      -0.623  12.533  20.715  0.00  0.00    +0.000 C 
BRANCH  27  29
ATOM     29  C   UNL     1      -0.536  14.759  19.585  0.00  0.00    +0.000 C 
BRANCH  29  31
ATOM     30  C   UNL     1       1.833  14.916  18.799  0.00  0.00    +0.000 C 
ATOM     31  C   UNL     1       0.556  15.319  18.729  0.00  0.00    +0.000 C 
BRANCH  30  32
ATOM     32  C   UNL     1       2.913  15.472  17.923  0.00  0.00    +0.000 C 
BRANCH  32  33
ATOM     33  C   UNL     1       2.833  16.997  17.865  0.00  0.00    +0.000 C 
BRANCH  33  35
ATOM     34  C   UNL     1       1.172  18.424  16.632  0.00  0.00    +0.000 C 
ATOM     35  C   UNL     1       2.345  17.469  16.497  0.00  0.00    +0.000 C 
ENDBRANCH  33  35
ENDBRANCH  32  33
ENDBRANCH  30  32
ENDBRANCH  29  31
ENDBRANCH  27  29
ENDBRANCH  26  28
ENDBRANCH  25  26
ENDBRANCH  24  25
ENDBRANCH  23  24
ENDBRANCH  22  23
ENDBRANCH  21  22
ENDBRANCH  20  21
ENDBRANCH   1  20
TORSDOF 17
ENDMDL
MODEL 4
REMARK VINA RESULT:      -6.7      4.201     10.618
REMARK  Name = 
REMARK  19 active torsions:
REMARK  status: ('A' for Active; 'I' for Inactive)
REMARK    1  A    between atoms: C_1  and  C_2
REMARK    2  A    between atoms: C_2  and  C_3
REMARK    3  A    between atoms: C_3  and  C_4
REMARK    4  A    between atoms: C_4  and  C_5
REMARK    5  A    between atoms: C_6  and  C_7
REMARK    6  A    between atoms: C_7  and  C_8
REMARK    7  A    between atoms: C_9  and  C_10
REMARK    8  A    between atoms: C_10  and  C_11
REMARK    9  A    between atoms: C_11  and  C_12
REMARK   10  A    between atoms: C_12  and  C_13
REMARK   11  A    between atoms: C_13  and  C_14
REMARK   12  A    between atoms: C_14  and  C_15
REMARK   13  A    between atoms: C_15  and  C_16
REMARK   14  A    between atoms: C_16  and  C_17
REMARK   15  A    between atoms: C_17  and  O_19
REMARK   16  A    between atoms: O_19  and  C_20
REMARK   17  A    between atoms: C_20  and  C_21
REMARK   18  A    between atoms: C_24  and  N_25
REMARK   19  A    between atoms: C_27  and  C_28
REMARK                            x       y       z     vdW  Elec       q    Type
REMARK                         _______ _______ _______ _____ _____    ______ ____
ROOT
ATOM      1  C   UNL     1       2.862   7.612  18.155  0.00  0.00    +0.000 C 
ATOM      2  O   UNL     1       3.780   7.718  17.355  0.00  0.00    +0.000 OA
ENDROOT
BRANCH   1   3
ATOM      3  O   UNL     1       2.177   8.645  18.714  0.00  0.00    +0.000 OA
BRANCH   3   4
ATOM      4  C   UNL     1       1.948   9.751  17.833  0.00  0.00    +0.000 C 
BRANCH   4   5
ATOM      5  C   UNL     1       0.810  10.697  18.242  0.00  0.00    +0.000 C 
ATOM      6  C   UNL     1      -0.576  10.207  17.959  0.00  0.00    +0.000 C 
ATOM      7  C   UNL     1      -1.238   9.989  19.101  0.00  0.00    +0.000 C 
ATOM      8  C   UNL     1      -0.352  10.300  20.253  0.00  0.00    +0.000 C 
ATOM      9  O   UNL     1       0.856  10.845  19.686  0.00  0.00    +0.000 OA
BRANCH   8  10
ATOM     10  N   UNL     1      -0.993  11.251  21.148  0.00  0.00    +0.000 N 
ATOM     11  C   UNL     1      -1.880  12.194  20.663  0.00  0.00    +0.000 A 
ATOM     12  C   UNL     1      -2.412  13.143  21.438  0.00  0.00    +0.000 A 
ATOM     13  C   UNL     1      -3.292  14.233  20.934  0.00  0.00    +0.000 C 
ATOM     14  C   UNL     1      -2.061  13.124  22.869  0.00  0.00    +0.000 A 
ATOM     15  O   UNL     1      -2.452  13.997  23.635  0.00  0.00    +0.000 OA
ATOM     16  N   UNL     1      -1.281  12.095  23.300  0.00  0.00    +0.000 N 
ATOM     17  C   UNL     1      -0.660  11.181  22.494  0.00  0.00    +0.000 A 
ATOM     18  O   UNL     1       0.138  10.378  22.975  0.00  0.00    +0.000 OA
ATOM     19  H   UNL     1      -1.029  12.100  24.278  0.00  0.00    +0.000 HD
ENDBRANCH   8  10
ENDBRANCH   4   5
ENDBRANCH   3   4
ENDBRANCH   1   3
BRANCH   1  20
ATOM     20  C   UNL     1       2.374   6.313  18.749  0.00  0.00    +0.000 C 
BRANCH  20  21
ATOM     21  C   UNL     1       1.958   6.520  20.201  0.00  0.00    +0.000 C 
BRANCH  21  22
ATOM     22  C   UNL     1       2.025   5.230  21.012  0.00  0.00    +0.000 C 
BRANCH  22  23
ATOM     23  C   UNL     1       1.010   4.221  20.475  0.00  0.00    +0.000 C 
BRANCH  23  24
ATOM     24  C   UNL     1       1.202   2.850  21.112  0.00  0.00    +0.000 C 
BRANCH  24  25
ATOM     25  C   UNL     1       2.532   2.232  20.685  0.00  0.00    +0.000 C 
BRANCH  25  26
ATOM     26  C   UNL     1       2.537   1.952  19.185  0.00  0.00    +0.000 C 
BRANCH  26  28
ATOM     27  C   UNL     1       4.458   3.549  19.117  0.00  0.00    +0.000 C 
ATOM     28  C   UNL     1       3.698   2.621  18.518  0.00  0.00    +0.000 C 
BRANCH  27  29
ATOM     29  C   UNL     1       5.625   4.210  18.456  0.00  0.00    +0.000 C 
BRANCH  29  31
ATOM     30  C   UNL     1       6.180   5.145  16.205  0.00  0.00    +0.000 C 
ATOM     31  C   UNL     1       5.311   4.547  17.033  0.00  0.00    +0.000 C 
BRANCH  30  32
ATOM     32  C   UNL     1       5.861   5.460  14.775  0.00  0.00    +0.000 C 
BRANCH  32  33
ATOM     33  C   UNL     1       6.471   4.417  13.841  0.00  0.00    +0.000 C 
BRANCH  33  35
ATOM     34  C   UNL     1       6.000   2.799  11.975  0.00  0.00    +0.000 C 
ATOM     35  C   UNL     1       5.389   3.712  13.024  0.00  0.00    +0.000 C 
ENDBRANCH  33  35
ENDBRANCH  32  33
ENDBRANCH  30  32
ENDBRANCH  29  31
ENDBRANCH  27  29
ENDBRANCH  26  28
ENDBRANCH  25  26
ENDBRANCH  24  25
ENDBRANCH  23  24
ENDBRANCH  22  23
ENDBRANCH  21  22
ENDBRANCH  20  21
ENDBRANCH   1  20
TORSDOF 17
ENDMDL
MODEL 5
REMARK VINA RESULT:      -6.5      4.971     11.039
REMARK  Name = 
REMARK  19 active torsions:
REMARK  status: ('A' for Active; 'I' for Inactive)
REMARK    1  A    between atoms: C_1  and  C_2
REMARK    2  A    between atoms: C_2  and  C_3
REMARK    3  A    between atoms: C_3  and  C_4
REMARK    4  A    between atoms: C_4  and  C_5
REMARK    5  A    between atoms: C_6  and  C_7
REMARK    6  A    between atoms: C_7  and  C_8
REMARK    7  A    between atoms: C_9  and  C_10
REMARK    8  A    between atoms: C_10  and  C_11
REMARK    9  A    between atoms: C_11  and  C_12
REMARK   10  A    between atoms: C_12  and  C_13
REMARK   11  A    between atoms: C_13  and  C_14
REMARK   12  A    between atoms: C_14  and  C_15
REMARK   13  A    between atoms: C_15  and  C_16
REMARK   14  A    between atoms: C_16  and  C_17
REMARK   15  A    between atoms: C_17  and  O_19
REMARK   16  A    between atoms: O_19  and  C_20
REMARK   17  A    between atoms: C_20  and  C_21
REMARK   18  A    between atoms: C_24  and  N_25
REMARK   19  A    between atoms: C_27  and  C_28
REMARK                            x       y       z     vdW  Elec       q    Type
REMARK                         _______ _______ _______ _____ _____    ______ ____
ROOT
ATOM      1  C   UNL     1       1.898   9.994  18.182  0.00  0.00    +0.000 C 
ATOM      2  O   UNL     1       2.616  10.559  17.370  0.00  0.00    +0.000 OA
ENDROOT
BRANCH   1   3
ATOM      3  O   UNL     1       1.639  10.426  19.445  0.00  0.00    +0.000 OA
BRANCH   3   4
ATOM      4  C   UNL     1       0.424   9.919  20.008  0.00  0.00    +0.000 C 
BRANCH   4   5
ATOM      5  C   UNL     1      -0.745  10.913  20.062  0.00  0.00    +0.000 C 
ATOM      6  C   UNL     1      -0.480  12.262  19.471  0.00  0.00    +0.000 C 
ATOM      7  C   UNL     1      -1.235  12.454  18.384  0.00  0.00    +0.000 C 
ATOM      8  C   UNL     1      -2.064  11.246  18.139  0.00  0.00    +0.000 C 
ATOM      9  O   UNL     1      -1.824  10.369  19.257  0.00  0.00    +0.000 OA
BRANCH   8  10
ATOM     10  N   UNL     1      -3.471  11.604  18.038  0.00  0.00    +0.000 N 
ATOM     11  C   UNL     1      -4.154  12.105  19.130  0.00  0.00    +0.000 A 
ATOM     12  C   UNL     1      -5.467  12.352  19.102  0.00  0.00    +0.000 A 
ATOM     13  C   UNL     1      -6.255  12.799  20.284  0.00  0.00    +0.000 C 
ATOM     14  C   UNL     1      -6.172  12.123  17.829  0.00  0.00    +0.000 A 
ATOM     15  O   UNL     1      -7.386  12.262  17.737  0.00  0.00    +0.000 OA
ATOM     16  N   UNL     1      -5.414  11.747  16.762  0.00  0.00    +0.000 N 
ATOM     17  C   UNL     1      -4.092  11.401  16.813  0.00  0.00    +0.000 A 
ATOM     18  O   UNL     1      -3.538  10.940  15.816  0.00  0.00    +0.000 OA
ATOM     19  H   UNL     1      -5.908  11.573  15.899  0.00  0.00    +0.000 HD
ENDBRANCH   8  10
ENDBRANCH   4   5
ENDBRANCH   3   4
ENDBRANCH   1   3
BRANCH   1  20
ATOM     20  C   UNL     1       1.234   8.655  17.970  0.00  0.00    +0.000 C 
BRANCH  20  21
ATOM     21  C   UNL     1       2.279   7.591  17.653  0.00  0.00    +0.000 C 
BRANCH  21  22
ATOM     22  C   UNL     1       3.150   7.257  18.859  0.00  0.00    +0.000 C 
BRANCH  22  23
ATOM     23  C   UNL     1       2.275   6.803  20.027  0.00  0.00    +0.000 C 
BRANCH  23  24
ATOM     24  C   UNL     1       1.808   5.364  19.844  0.00  0.00    +0.000 C 
BRANCH  24  25
ATOM     25  C   UNL     1       1.806   4.618  21.178  0.00  0.00    +0.000 C 
BRANCH  25  26
ATOM     26  C   UNL     1       1.306   3.188  20.991  0.00  0.00    +0.000 C 
BRANCH  26  28
ATOM     27  C   UNL     1       3.019   2.201  19.463  0.00  0.00    +0.000 C 
ATOM     28  C   UNL     1       1.767   2.624  19.682  0.00  0.00    +0.000 C 
BRANCH  27  29
ATOM     29  C   UNL     1       3.479   1.628  18.160  0.00  0.00    +0.000 C 
BRANCH  29  31
ATOM     30  C   UNL     1       4.553   3.820  17.617  0.00  0.00    +0.000 C 
ATOM     31  C   UNL     1       3.909   2.712  17.223  0.00  0.00    +0.000 C 
BRANCH  30  32
ATOM     32  C   UNL     1       4.995   4.889  16.666  0.00  0.00    +0.000 C 
BRANCH  32  33
ATOM     33  C   UNL     1       5.139   4.330  15.251  0.00  0.00    +0.000 C 
BRANCH  33  35
ATOM     34  C   UNL     1       6.704   4.093  13.299  0.00  0.00    +0.000 C 
ATOM     35  C   UNL     1       6.411   4.850  14.583  0.00  0.00    +0.000 C 
ENDBRANCH  33  35
ENDBRANCH  32  33
ENDBRANCH  30  32
ENDBRANCH  29  31
ENDBRANCH  27  29
ENDBRANCH  26  28
ENDBRANCH  25  26
ENDBRANCH  24  25
ENDBRANCH  23  24
ENDBRANCH  22  23
ENDBRANCH  21  22
ENDBRANCH  20  21
ENDBRANCH   1  20
TORSDOF 17
ENDMDL
MODEL 6
REMARK VINA RESULT:      -6.4      3.661     10.060
REMARK  Name = 
REMARK  19 active torsions:
REMARK  status: ('A' for Active; 'I' for Inactive)
REMARK    1  A    between atoms: C_1  and  C_2
REMARK    2  A    between atoms: C_2  and  C_3
REMARK    3  A    between atoms: C_3  and  C_4
REMARK    4  A    between atoms: C_4  and  C_5
REMARK    5  A    between atoms: C_6  and  C_7
REMARK    6  A    between atoms: C_7  and  C_8
REMARK    7  A    between atoms: C_9  and  C_10
REMARK    8  A    between atoms: C_10  and  C_11
REMARK    9  A    between atoms: C_11  and  C_12
REMARK   10  A    between atoms: C_12  and  C_13
REMARK   11  A    between atoms: C_13  and  C_14
REMARK   12  A    between atoms: C_14  and  C_15
REMARK   13  A    between atoms: C_15  and  C_16
REMARK   14  A    between atoms: C_16  and  C_17
REMARK   15  A    between atoms: C_17  and  O_19
REMARK   16  A    between atoms: O_19  and  C_20
REMARK   17  A    between atoms: C_20  and  C_21
REMARK   18  A    between atoms: C_24  and  N_25
REMARK   19  A    between atoms: C_27  and  C_28
REMARK                            x       y       z     vdW  Elec       q    Type
REMARK                         _______ _______ _______ _____ _____    ______ ____
ROOT
ATOM      1  C   UNL     1       1.838   4.305  20.902  0.00  0.00    +0.000 C 
ATOM      2  O   UNL     1       2.216   4.033  22.032  0.00  0.00    +0.000 OA
ENDROOT
BRANCH   1   3
ATOM      3  O   UNL     1       1.549   5.551  20.443  0.00  0.00    +0.000 OA
BRANCH   3   4
ATOM      4  C   UNL     1       2.444   6.034  19.434  0.00  0.00    +0.000 C 
BRANCH   4   5
ATOM      5  C   UNL     1       2.677   7.552  19.428  0.00  0.00    +0.000 C 
ATOM      6  C   UNL     1       2.450   8.241  18.120  0.00  0.00    +0.000 C 
ATOM      7  C   UNL     1       1.404   9.070  18.202  0.00  0.00    +0.000 C 
ATOM      8  C   UNL     1       0.827   9.003  19.569  0.00  0.00    +0.000 C 
ATOM      9  O   UNL     1       1.707   8.151  20.328  0.00  0.00    +0.000 OA
BRANCH   8  10
ATOM     10  N   UNL     1       0.742  10.333  20.153  0.00  0.00    +0.000 N 
ATOM     11  C   UNL     1       1.384  11.407  19.567  0.00  0.00    +0.000 A 
ATOM     12  C   UNL     1       1.410  12.620  20.126  0.00  0.00    +0.000 A 
ATOM     13  C   UNL     1       2.171  13.775  19.575  0.00  0.00    +0.000 C 
ATOM     14  C   UNL     1       0.671  12.798  21.389  0.00  0.00    +0.000 A 
ATOM     15  O   UNL     1       0.699  13.860  22.001  0.00  0.00    +0.000 OA
ATOM     16  N   UNL     1      -0.039  11.730  21.845  0.00  0.00    +0.000 N 
ATOM     17  C   UNL     1       0.012  10.466  21.327  0.00  0.00    +0.000 A 
ATOM     18  O   UNL     1      -0.561   9.541  21.902  0.00  0.00    +0.000 OA
ATOM     19  H   UNL     1      -0.526  11.856  22.721  0.00  0.00    +0.000 HD
ENDBRANCH   8  10
ENDBRANCH   4   5
ENDBRANCH   3   4
ENDBRANCH   1   3
BRANCH   1  20
ATOM     20  C   UNL     1       1.530   3.295  19.823  0.00  0.00    +0.000 C 
BRANCH  20  21
ATOM     21  C   UNL     1       2.816   2.643  19.327  0.00  0.00    +0.000 C 
BRANCH  21  22
ATOM     22  C   UNL     1       2.958   2.724  17.811  0.00  0.00    +0.000 C 
BRANCH  22  23
ATOM     23  C   UNL     1       4.073   3.701  17.441  0.00  0.00    +0.000 C 
BRANCH  23  24
ATOM     24  C   UNL     1       5.106   3.811  18.556  0.00  0.00    +0.000 C 
BRANCH  24  25
ATOM     25  C   UNL     1       6.268   4.710  18.136  0.00  0.00    +0.000 C 
BRANCH  25  26
ATOM     26  C   UNL     1       5.858   5.606  16.970  0.00  0.00    +0.000 C 
BRANCH  26  28
ATOM     27  C   UNL     1       6.478   5.041  14.616  0.00  0.00    +0.000 C 
ATOM     28  C   UNL     1       6.825   5.482  15.833  0.00  0.00    +0.000 C 
BRANCH  27  29
ATOM     29  C   UNL     1       7.439   4.927  13.476  0.00  0.00    +0.000 C 
BRANCH  29  31
ATOM     30  C   UNL     1       6.059   3.080  12.510  0.00  0.00    +0.000 C 
ATOM     31  C   UNL     1       6.834   4.161  12.343  0.00  0.00    +0.000 C 
BRANCH  30  32
ATOM     32  C   UNL     1       5.444   2.333  11.366  0.00  0.00    +0.000 C 
BRANCH  32  33
ATOM     33  C   UNL     1       3.970   2.704  11.207  0.00  0.00    +0.000 C 
BRANCH  33  35
ATOM     34  C   UNL     1       2.711   4.102   9.540  0.00  0.00    +0.000 C 
ATOM     35  C   UNL     1       3.818   4.089  10.581  0.00  0.00    +0.000 C 
ENDBRANCH  33  35
ENDBRANCH  32  33
ENDBRANCH  30  32
ENDBRANCH  29  31
ENDBRANCH  27  29
ENDBRANCH  26  28
ENDBRANCH  25  26
ENDBRANCH  24  25
ENDBRANCH  23  24
ENDBRANCH  22  23
ENDBRANCH  21  22
ENDBRANCH  20  21
ENDBRANCH   1  20
TORSDOF 17
ENDMDL
MODEL 7
REMARK VINA RESULT:      -6.4      1.536      2.368
REMARK  Name = 
REMARK  19 active torsions:
REMARK  status: ('A' for Active; 'I' for Inactive)
REMARK    1  A    between atoms: C_1  and  C_2
REMARK    2  A    between atoms: C_2  and  C_3
REMARK    3  A    between atoms: C_3  and  C_4
REMARK    4  A    between atoms: C_4  and  C_5
REMARK    5  A    between atoms: C_6  and  C_7
REMARK    6  A    between atoms: C_7  and  C_8
REMARK    7  A    between atoms: C_9  and  C_10
REMARK    8  A    between atoms: C_10  and  C_11
REMARK    9  A    between atoms: C_11  and  C_12
REMARK   10  A    between atoms: C_12  and  C_13
REMARK   11  A    between atoms: C_13  and  C_14
REMARK   12  A    between atoms: C_14  and  C_15
REMARK   13  A    between atoms: C_15  and  C_16
REMARK   14  A    between atoms: C_16  and  C_17
REMARK   15  A    between atoms: C_17  and  O_19
REMARK   16  A    between atoms: O_19  and  C_20
REMARK   17  A    between atoms: C_20  and  C_21
REMARK   18  A    between atoms: C_24  and  N_25
REMARK   19  A    between atoms: C_27  and  C_28
REMARK                            x       y       z     vdW  Elec       q    Type
REMARK                         _______ _______ _______ _____ _____    ______ ____
ROOT
ATOM      1  C   UNL     1       1.771   3.706  21.230  0.00  0.00    +0.000 C 
ATOM      2  O   UNL     1       1.348   3.033  22.158  0.00  0.00    +0.000 OA
ENDROOT
BRANCH   1   3
ATOM      3  O   UNL     1       2.123   3.233  20.005  0.00  0.00    +0.000 OA
BRANCH   3   4
ATOM      4  C   UNL     1       3.333   2.468  19.990  0.00  0.00    +0.000 C 
BRANCH   4   5
ATOM      5  C   UNL     1       4.032   2.364  18.627  0.00  0.00    +0.000 C 
ATOM      6  C   UNL     1       3.128   2.271  17.437  0.00  0.00    +0.000 C 
ATOM      7  C   UNL     1       3.247   3.361  16.672  0.00  0.00    +0.000 C 
ATOM      8  C   UNL     1       4.232   4.290  17.284  0.00  0.00    +0.000 C 
ATOM      9  O   UNL     1       4.781   3.591  18.419  0.00  0.00    +0.000 OA
BRANCH   8  10
ATOM     10  N   UNL     1       5.269   4.639  16.325  0.00  0.00    +0.000 N 
ATOM     11  C   UNL     1       5.291   4.071  15.065  0.00  0.00    +0.000 A 
ATOM     12  C   UNL     1       6.280   4.293  14.195  0.00  0.00    +0.000 A 
ATOM     13  C   UNL     1       6.388   3.624  12.869  0.00  0.00    +0.000 C 
ATOM     14  C   UNL     1       7.344   5.226  14.605  0.00  0.00    +0.000 A 
ATOM     15  O   UNL     1       8.320   5.433  13.893  0.00  0.00    +0.000 OA
ATOM     16  N   UNL     1       7.195   5.843  15.808  0.00  0.00    +0.000 N 
ATOM     17  C   UNL     1       6.237   5.545  16.738  0.00  0.00    +0.000 A 
ATOM     18  O   UNL     1       6.278   6.064  17.852  0.00  0.00    +0.000 OA
ATOM     19  H   UNL     1       7.939   6.466  16.089  0.00  0.00    +0.000 HD
ENDBRANCH   8  10
ENDBRANCH   4   5
ENDBRANCH   3   4
ENDBRANCH   1   3
BRANCH   1  20
ATOM     20  C   UNL     1       2.071   5.184  21.297  0.00  0.00    +0.000 C 
BRANCH  20  21
ATOM     21  C   UNL     1       2.068   5.787  19.897  0.00  0.00    +0.000 C 
BRANCH  21  22
ATOM     22  C   UNL     1       2.042   7.312  19.923  0.00  0.00    +0.000 C 
BRANCH  22  23
ATOM     23  C   UNL     1       1.610   7.804  21.304  0.00  0.00    +0.000 C 
BRANCH  23  24
ATOM     24  C   UNL     1       0.118   8.114  21.340  0.00  0.00    +0.000 C 
BRANCH  24  25
ATOM     25  C   UNL     1      -0.152   9.401  22.119  0.00  0.00    +0.000 C 
BRANCH  25  26
ATOM     26  C   UNL     1      -0.109  10.609  21.187  0.00  0.00    +0.000 C 
BRANCH  26  28
ATOM     27  C   UNL     1      -1.451  11.800  22.927  0.00  0.00    +0.000 C 
ATOM     28  C   UNL     1      -1.044  11.681  21.655  0.00  0.00    +0.000 C 
BRANCH  27  29
ATOM     29  C   UNL     1      -2.376  12.876  23.398  0.00  0.00    +0.000 C 
BRANCH  29  31
ATOM     30  C   UNL     1      -4.457  13.128  22.035  0.00  0.00    +0.000 C 
ATOM     31  C   UNL     1      -3.794  12.552  23.049  0.00  0.00    +0.000 C 
BRANCH  30  32
ATOM     32  C   UNL     1      -5.871  12.781  21.683  0.00  0.00    +0.000 C 
BRANCH  32  33
ATOM     33  C   UNL     1      -5.936  12.083  20.326  0.00  0.00    +0.000 C 
BRANCH  33  35
ATOM     34  C   UNL     1      -4.769  11.723  18.129  0.00  0.00    +0.000 C 
ATOM     35  C   UNL     1      -4.732  12.453  19.461  0.00  0.00    +0.000 C 
ENDBRANCH  33  35
ENDBRANCH  32  33
ENDBRANCH  30  32
ENDBRANCH  29  31
ENDBRANCH  27  29
ENDBRANCH  26  28
ENDBRANCH  25  26
ENDBRANCH  24  25
ENDBRANCH  23  24
ENDBRANCH  22  23
ENDBRANCH  21  22
ENDBRANCH  20  21
ENDBRANCH   1  20
TORSDOF 17
ENDMDL
MODEL 8
REMARK VINA RESULT:      -6.4      4.861     11.399
REMARK  Name = 
REMARK  19 active torsions:
REMARK  status: ('A' for Active; 'I' for Inactive)
REMARK    1  A    between atoms: C_1  and  C_2
REMARK    2  A    between atoms: C_2  and  C_3
REMARK    3  A    between atoms: C_3  and  C_4
REMARK    4  A    between atoms: C_4  and  C_5
REMARK    5  A    between atoms: C_6  and  C_7
REMARK    6  A    between atoms: C_7  and  C_8
REMARK    7  A    between atoms: C_9  and  C_10
REMARK    8  A    between atoms: C_10  and  C_11
REMARK    9  A    between atoms: C_11  and  C_12
REMARK   10  A    between atoms: C_12  and  C_13
REMARK   11  A    between atoms: C_13  and  C_14
REMARK   12  A    between atoms: C_14  and  C_15
REMARK   13  A    between atoms: C_15  and  C_16
REMARK   14  A    between atoms: C_16  and  C_17
REMARK   15  A    between atoms: C_17  and  O_19
REMARK   16  A    between atoms: O_19  and  C_20
REMARK   17  A    between atoms: C_20  and  C_21
REMARK   18  A    between atoms: C_24  and  N_25
REMARK   19  A    between atoms: C_27  and  C_28
REMARK                            x       y       z     vdW  Elec       q    Type
REMARK                         _______ _______ _______ _____ _____    ______ ____
ROOT
ATOM      1  C   UNL     1       2.013   8.610  18.327  0.00  0.00    +0.000 C 
ATOM      2  O   UNL     1       2.662   9.154  17.446  0.00  0.00    +0.000 OA
ENDROOT
BRANCH   1   3
ATOM      3  O   UNL     1       0.918   9.132  18.940  0.00  0.00    +0.000 OA
BRANCH   3   4
ATOM      4  C   UNL     1       1.100  10.456  19.454  0.00  0.00    +0.000 C 
BRANCH   4   5
ATOM      5  C   UNL     1      -0.182  11.286  19.611  0.00  0.00    +0.000 C 
ATOM      6  C   UNL     1      -0.159  12.645  18.985  0.00  0.00    +0.000 C 
ATOM      7  C   UNL     1      -1.031  12.711  17.973  0.00  0.00    +0.000 C 
ATOM      8  C   UNL     1      -1.709  11.398  17.820  0.00  0.00    +0.000 C 
ATOM      9  O   UNL     1      -1.250  10.585  18.918  0.00  0.00    +0.000 OA
BRANCH   8  10
ATOM     10  N   UNL     1      -3.155  11.563  17.851  0.00  0.00    +0.000 N 
ATOM     11  C   UNL     1      -3.798  11.955  19.010  0.00  0.00    +0.000 A 
ATOM     12  C   UNL     1      -5.129  12.023  19.104  0.00  0.00    +0.000 A 
ATOM     13  C   UNL     1      -5.860  12.345  20.360  0.00  0.00    +0.000 C 
ATOM     14  C   UNL     1      -5.909  11.713  17.892  0.00  0.00    +0.000 A 
ATOM     15  O   UNL     1      -7.134  11.687  17.911  0.00  0.00    +0.000 OA
ATOM     16  N   UNL     1      -5.207  11.455  16.755  0.00  0.00    +0.000 N 
ATOM     17  C   UNL     1      -3.851  11.291  16.681  0.00  0.00    +0.000 A 
ATOM     18  O   UNL     1      -3.332  10.920  15.630  0.00  0.00    +0.000 OA
ATOM     19  H   UNL     1      -5.749  11.225  15.935  0.00  0.00    +0.000 HD
ENDBRANCH   8  10
ENDBRANCH   4   5
ENDBRANCH   3   4
ENDBRANCH   1   3
BRANCH   1  20
ATOM     20  C   UNL     1       2.360   7.289  18.971  0.00  0.00    +0.000 C 
BRANCH  20  21
ATOM     21  C   UNL     1       1.425   7.010  20.142  0.00  0.00    +0.000 C 
BRANCH  21  22
ATOM     22  C   UNL     1       1.825   5.760  20.918  0.00  0.00    +0.000 C 
BRANCH  22  23
ATOM     23  C   UNL     1       3.160   5.227  20.399  0.00  0.00    +0.000 C 
BRANCH  23  24
ATOM     24  C   UNL     1       3.091   3.729  20.127  0.00  0.00    +0.000 C 
BRANCH  24  25
ATOM     25  C   UNL     1       1.707   3.331  19.618  0.00  0.00    +0.000 C 
BRANCH  25  26
ATOM     26  C   UNL     1       1.711   3.203  18.097  0.00  0.00    +0.000 C 
BRANCH  26  28
ATOM     27  C   UNL     1       3.869   3.502  16.873  0.00  0.00    +0.000 C 
ATOM     28  C   UNL     1       2.804   4.029  17.492  0.00  0.00    +0.000 C 
BRANCH  27  29
ATOM     29  C   UNL     1       4.956   4.325  16.259  0.00  0.00    +0.000 C 
BRANCH  29  31
ATOM     30  C   UNL     1       5.816   4.342  13.911  0.00  0.00    +0.000 C 
ATOM     31  C   UNL     1       5.490   3.669  15.025  0.00  0.00    +0.000 C 
BRANCH  30  32
ATOM     32  C   UNL     1       6.368   3.675  12.688  0.00  0.00    +0.000 C 
BRANCH  32  33
ATOM     33  C   UNL     1       5.268   2.927  11.936  0.00  0.00    +0.000 C 
BRANCH  33  35
ATOM     34  C   UNL     1       7.345   1.755  11.143  0.00  0.00    +0.000 C 
ATOM     35  C   UNL     1       5.830   1.698  11.224  0.00  0.00    +0.000 C 
ENDBRANCH  33  35
ENDBRANCH  32  33
ENDBRANCH  30  32
ENDBRANCH  29  31
ENDBRANCH  27  29
ENDBRANCH  26  28
ENDBRANCH  25  26
ENDBRANCH  24  25
ENDBRANCH  23  24
ENDBRANCH  22  23
ENDBRANCH  21  22
ENDBRANCH  20  21
ENDBRANCH   1  20
TORSDOF 17
ENDMDL
MODEL 9
REMARK VINA RESULT:      -6.3      5.551      8.384
REMARK  Name = 
REMARK  19 active torsions:
REMARK  status: ('A' for Active; 'I' for Inactive)
REMARK    1  A    between atoms: C_1  and  C_2
REMARK    2  A    between atoms: C_2  and  C_3
REMARK    3  A    between atoms: C_3  and  C_4
REMARK    4  A    between atoms: C_4  and  C_5
REMARK    5  A    between atoms: C_6  and  C_7
REMARK    6  A    between atoms: C_7  and  C_8
REMARK    7  A    between atoms: C_9  and  C_10
REMARK    8  A    between atoms: C_10  and  C_11
REMARK    9  A    between atoms: C_11  and  C_12
REMARK   10  A    between atoms: C_12  and  C_13
REMARK   11  A    between atoms: C_13  and  C_14
REMARK   12  A    between atoms: C_14  and  C_15
REMARK   13  A    between atoms: C_15  and  C_16
REMARK   14  A    between atoms: C_16  and  C_17
REMARK   15  A    between atoms: C_17  and  O_19
REMARK   16  A    between atoms: O_19  and  C_20
REMARK   17  A    between atoms: C_20  and  C_21
REMARK   18  A    between atoms: C_24  and  N_25
REMARK   19  A    between atoms: C_27  and  C_28
REMARK                            x       y       z     vdW  Elec       q    Type
REMARK                         _______ _______ _______ _____ _____    ______ ____
ROOT
ATOM      1  C   UNL     1       7.278   6.891  18.227  0.00  0.00    +0.000 C 
ATOM      2  O   UNL     1       8.222   6.516  18.908  0.00  0.00    +0.000 OA
ENDROOT
BRANCH   1   3
ATOM      3  O   UNL     1       7.195   8.083  17.578  0.00  0.00    +0.000 OA
BRANCH   3   4
ATOM      4  C   UNL     1       8.400   8.857  17.603  0.00  0.00    +0.000 C 
BRANCH   4   5
ATOM      5  C   UNL     1       8.332  10.160  18.411  0.00  0.00    +0.000 C 
ATOM      6  C   UNL     1       9.386  10.332  19.459  0.00  0.00    +0.000 C 
ATOM      7  C   UNL     1      10.199  11.346  19.145  0.00  0.00    +0.000 C 
ATOM      8  C   UNL     1       9.773  11.939  17.851  0.00  0.00    +0.000 C 
ATOM      9  O   UNL     1       8.552  11.262  17.490  0.00  0.00    +0.000 OA
BRANCH   8  10
ATOM     10  N   UNL     1       9.563  13.372  17.991  0.00  0.00    +0.000 N 
ATOM     11  C   UNL     1       8.381  13.868  18.507  0.00  0.00    +0.000 A 
ATOM     12  C   UNL     1       8.115  15.176  18.559  0.00  0.00    +0.000 A 
ATOM     13  C   UNL     1       6.816  15.744  19.017  0.00  0.00    +0.000 C 
ATOM     14  C   UNL     1       9.163  16.099  18.090  0.00  0.00    +0.000 A 
ATOM     15  O   UNL     1       8.974  17.309  18.042  0.00  0.00    +0.000 OA
ATOM     16  N   UNL     1      10.347  15.547  17.710  0.00  0.00    +0.000 N 
ATOM     17  C   UNL     1      10.587  14.208  17.566  0.00  0.00    +0.000 A 
ATOM     18  O   UNL     1      11.649  13.822  17.080  0.00  0.00    +0.000 OA
ATOM     19  H   UNL     1      11.053  16.186  17.372  0.00  0.00    +0.000 HD
ENDBRANCH   8  10
ENDBRANCH   4   5
ENDBRANCH   3   4
ENDBRANCH   1   3
BRANCH   1  20
ATOM     20  C   UNL     1       5.981   6.139  18.052  0.00  0.00    +0.000 C 
BRANCH  20  21
ATOM     21  C   UNL     1       5.682   5.939  16.571  0.00  0.00    +0.000 C 
BRANCH  21  22
ATOM     22  C   UNL     1       6.116   4.565  16.073  0.00  0.00    +0.000 C 
BRANCH  22  23
ATOM     23  C   UNL     1       5.067   3.518  16.445  0.00  0.00    +0.000 C 
BRANCH  23  24
ATOM     24  C   UNL     1       3.707   4.159  16.693  0.00  0.00    +0.000 C 
BRANCH  24  25
ATOM     25  C   UNL     1       3.088   3.641  17.990  0.00  0.00    +0.000 C 
BRANCH  25  26
ATOM     26  C   UNL     1       2.256   4.732  18.660  0.00  0.00    +0.000 C 
BRANCH  26  28
ATOM     27  C   UNL     1       2.398   7.219  18.473  0.00  0.00    +0.000 C 
ATOM     28  C   UNL     1       2.333   6.014  17.891  0.00  0.00    +0.000 C 
BRANCH  27  29
ATOM     29  C   UNL     1       2.485   8.500  17.706  0.00  0.00    +0.000 C 
BRANCH  29  31
ATOM     30  C   UNL     1       0.918   9.404  19.432  0.00  0.00    +0.000 C 
ATOM     31  C   UNL     1       1.511   9.506  18.234  0.00  0.00    +0.000 C 
BRANCH  30  32
ATOM     32  C   UNL     1      -0.041  10.428  19.958  0.00  0.00    +0.000 C 
BRANCH  32  33
ATOM     33  C   UNL     1      -0.714  11.179  18.810  0.00  0.00    +0.000 C 
BRANCH  33  35
ATOM     34  C   UNL     1      -1.945   9.920  17.017  0.00  0.00    +0.000 C 
ATOM     35  C   UNL     1      -2.029  10.510  18.414  0.00  0.00    +0.000 C 
ENDBRANCH  33  35
ENDBRANCH  32  33
ENDBRANCH  30  32
ENDBRANCH  29  31
ENDBRANCH  27  29
ENDBRANCH  26  28
ENDBRANCH  25  26
ENDBRANCH  24  25
ENDBRANCH  23  24
ENDBRANCH  22  23
ENDBRANCH  21  22
ENDBRANCH  20  21
ENDBRANCH   1  20
TORSDOF 17
ENDMDL
