MODEL 1
REMARK VINA RESULT:      -8.4      0.000      0.000
REMARK  Name = 
REMARK  11 active torsions:
REMARK  status: ('A' for Active; 'I' for Inactive)
REMARK    1  A    between atoms: C_1  and  O_2
REMARK    2  A    between atoms: O_2  and  C_3
REMARK    3  A    between atoms: C_6  and  C_7
REMARK    4  A    between atoms: C_10  and  C_11
REMARK    5  A    between atoms: N_14  and  C_15
REMARK    6  A    between atoms: C_18  and  C_19
REMARK    7  A    between atoms: C_19  and  C_20
REMARK    8  A    between atoms: C_19  and  C_21
REMARK    9  A    between atoms: C_24  and  C_25
REMARK   10  A    between atoms: C_28  and  O_29
REMARK   11  A    between atoms: O_29  and  C_30
REMARK                            x       y       z     vdW  Elec       q    Type
REMARK                         _______ _______ _______ _____ _____    ______ ____
ROOT
ATOM      1  C   UNL     1       3.213   6.473  18.714  0.00  0.00    +0.000 A 
ATOM      2  N   UNL     1       2.701   5.929  19.829  0.00  0.00    +0.000 NA
ATOM      3  O   UNL     1       1.844   6.920  20.317  0.00  0.00    +0.000 OA
ATOM      4  C   UNL     1       1.915   7.970  19.444  0.00  0.00    +0.000 A 
ATOM      5  N   UNL     1       2.741   7.733  18.447  0.00  0.00    +0.000 NA
ENDROOT
BRANCH   1   9
ATOM      6  C   UNL     1       6.004   4.633  16.041  0.00  0.00    +0.000 A 
ATOM      7  C   UNL     1       4.797   3.995  16.367  0.00  0.00    +0.000 A 
ATOM      8  C   UNL     1       3.882   4.588  17.238  0.00  0.00    +0.000 A 
ATOM      9  C   UNL     1       4.172   5.817  17.834  0.00  0.00    +0.000 A 
ATOM     10  C   UNL     1       5.413   6.413  17.567  0.00  0.00    +0.000 A 
ATOM     11  C   UNL     1       6.341   5.831  16.687  0.00  0.00    +0.000 A 
BRANCH   6  13
ATOM     12  C   UNL     1       6.695   4.527  13.780  0.00  0.00    +0.000 C 
ATOM     13  O   UNL     1       6.864   4.086  15.127  0.00  0.00    +0.000 OA
ENDBRANCH   6  13
BRANCH  11  14
ATOM     14  O   UNL     1       7.485   6.577  16.573  0.00  0.00    +0.000 OA
ATOM     15  C   UNL     1       7.670   7.690  17.434  0.00  0.00    +0.000 C 
ENDBRANCH  11  14
ENDBRANCH   1   9
BRANCH   4  16
ATOM     16  C   UNL     1       1.135   9.232  19.575  0.00  0.00    +0.000 A 
ATOM     17  N   UNL     1       1.342  10.347  18.824  0.00  0.00    +0.000 NA
ATOM     18  N   UNL     1       0.553  11.302  19.294  0.00  0.00    +0.000 NA
ATOM     19  N   UNL     1      -0.208  10.790  20.300  0.00  0.00    +0.000 N 
ATOM     20  C   UNL     1       0.158   9.469  20.528  0.00  0.00    +0.000 A 
ATOM     21  C   UNL     1      -0.259   8.591  21.651  0.00  0.00    +0.000 C 
BRANCH  19  22
ATOM     22  C   UNL     1      -1.101  11.620  21.026  0.00  0.00    +0.000 A 
ATOM     23  C   UNL     1      -2.249  12.149  20.427  0.00  0.00    +0.000 A 
ATOM     24  C   UNL     1      -3.239  12.740  21.213  0.00  0.00    +0.000 A 
ATOM     25  C   UNL     1      -3.088  12.841  22.602  0.00  0.00    +0.000 A 
ATOM     26  C   UNL     1      -1.869  12.442  23.169  0.00  0.00    +0.000 A 
ATOM     27  C   UNL     1      -0.872  11.849  22.389  0.00  0.00    +0.000 A 
BRANCH  25  28
ATOM     28  C   UNL     1      -4.246  13.341  23.444  0.00  0.00    +0.000 C 
ATOM     29  C   UNL     1      -5.545  13.375  22.633  0.00  0.00    +0.000 C 
ATOM     30  C   UNL     1      -4.419  12.527  24.726  0.00  0.00    +0.000 C 
ENDBRANCH  25  28
ENDBRANCH  19  22
ENDBRANCH   4  16
TORSDOF 6
ENDMDL
MODEL 2
REMARK VINA RESULT:      -8.2      3.010     11.091
REMARK  Name = 
REMARK  11 active torsions:
REMARK  status: ('A' for Active; 'I' for Inactive)
REMARK    1  A    between atoms: C_1  and  O_2
REMARK    2  A    between atoms: O_2  and  C_3
REMARK    3  A    between atoms: C_6  and  C_7
REMARK    4  A    between atoms: C_10  and  C_11
REMARK    5  A    between atoms: N_14  and  C_15
REMARK    6  A    between atoms: C_18  and  C_19
REMARK    7  A    between atoms: C_19  and  C_20
REMARK    8  A    between atoms: C_19  and  C_21
REMARK    9  A    between atoms: C_24  and  C_25
REMARK   10  A    between atoms: C_28  and  O_29
REMARK   11  A    between atoms: O_29  and  C_30
REMARK                            x       y       z     vdW  Elec       q    Type
REMARK                         _______ _______ _______ _____ _____    ______ ____
ROOT
ATOM      1  C   UNL     1      -0.752  11.479  21.642  0.00  0.00    +0.000 A 
ATOM      2  N   UNL     1       0.422  12.130  21.643  0.00  0.00    +0.000 NA
ATOM      3  O   UNL     1       1.333  11.170  21.194  0.00  0.00    +0.000 OA
ATOM      4  C   UNL     1       0.619  10.027  20.956  0.00  0.00    +0.000 A 
ATOM      5  N   UNL     1      -0.662  10.178  21.217  0.00  0.00    +0.000 NA
ENDROOT
BRANCH   1   9
ATOM      6  C   UNL     1      -4.445  13.317  22.787  0.00  0.00    +0.000 A 
ATOM      7  C   UNL     1      -3.691  12.583  23.717  0.00  0.00    +0.000 A 
ATOM      8  C   UNL     1      -2.486  11.981  23.351  0.00  0.00    +0.000 A 
ATOM      9  C   UNL     1      -2.027  12.065  22.035  0.00  0.00    +0.000 A 
ATOM     10  C   UNL     1      -2.823  12.732  21.092  0.00  0.00    +0.000 A 
ATOM     11  C   UNL     1      -4.035  13.349  21.447  0.00  0.00    +0.000 A 
BRANCH   6  13
ATOM     12  C   UNL     1      -5.408  15.322  23.591  0.00  0.00    +0.000 C 
ATOM     13  O   UNL     1      -5.585  13.971  23.167  0.00  0.00    +0.000 OA
ENDBRANCH   6  13
BRANCH  11  14
ATOM     14  O   UNL     1      -4.650  13.939  20.373  0.00  0.00    +0.000 OA
ATOM     15  C   UNL     1      -5.650  13.218  19.670  0.00  0.00    +0.000 C 
ENDBRANCH  11  14
ENDBRANCH   1   9
BRANCH   4  16
ATOM     16  C   UNL     1       1.203   8.759  20.439  0.00  0.00    +0.000 A 
ATOM     17  N   UNL     1       1.381   7.634  21.181  0.00  0.00    +0.000 NA
ATOM     18  N   UNL     1       2.028   6.754  20.431  0.00  0.00    +0.000 NA
ATOM     19  N   UNL     1       2.210   7.281  19.189  0.00  0.00    +0.000 N 
ATOM     20  C   UNL     1       1.718   8.580  19.165  0.00  0.00    +0.000 A 
ATOM     21  C   UNL     1       1.883   9.596  18.093  0.00  0.00    +0.000 C 
BRANCH  19  22
ATOM     22  C   UNL     1       2.937   6.569  18.201  0.00  0.00    +0.000 A 
ATOM     23  C   UNL     1       3.973   7.176  17.484  0.00  0.00    +0.000 A 
ATOM     24  C   UNL     1       4.838   6.400  16.712  0.00  0.00    +0.000 A 
ATOM     25  C   UNL     1       4.667   5.013  16.618  0.00  0.00    +0.000 A 
ATOM     26  C   UNL     1       3.537   4.439  17.220  0.00  0.00    +0.000 A 
ATOM     27  C   UNL     1       2.666   5.210  17.995  0.00  0.00    +0.000 A 
BRANCH  25  28
ATOM     28  C   UNL     1       5.714   4.178  15.904  0.00  0.00    +0.000 C 
ATOM     29  C   UNL     1       5.622   4.357  14.385  0.00  0.00    +0.000 C 
ATOM     30  C   UNL     1       7.126   4.471  16.409  0.00  0.00    +0.000 C 
ENDBRANCH  25  28
ENDBRANCH  19  22
ENDBRANCH   4  16
TORSDOF 6
ENDMDL
MODEL 3
REMARK VINA RESULT:      -8.1      2.275      3.399
REMARK  Name = 
REMARK  11 active torsions:
REMARK  status: ('A' for Active; 'I' for Inactive)
REMARK    1  A    between atoms: C_1  and  O_2
REMARK    2  A    between atoms: O_2  and  C_3
REMARK    3  A    between atoms: C_6  and  C_7
REMARK    4  A    between atoms: C_10  and  C_11
REMARK    5  A    between atoms: N_14  and  C_15
REMARK    6  A    between atoms: C_18  and  C_19
REMARK    7  A    between atoms: C_19  and  C_20
REMARK    8  A    between atoms: C_19  and  C_21
REMARK    9  A    between atoms: C_24  and  C_25
REMARK   10  A    between atoms: C_28  and  O_29
REMARK   11  A    between atoms: O_29  and  C_30
REMARK                            x       y       z     vdW  Elec       q    Type
REMARK                         _______ _______ _______ _____ _____    ______ ____
ROOT
ATOM      1  C   UNL     1       2.291   7.856  18.236  0.00  0.00    +0.000 A 
ATOM      2  N   UNL     1       2.471   8.844  17.345  0.00  0.00    +0.000 NA
ATOM      3  O   UNL     1       1.872   9.950  17.952  0.00  0.00    +0.000 OA
ATOM      4  C   UNL     1       1.390   9.527  19.160  0.00  0.00    +0.000 A 
ATOM      5  N   UNL     1       1.629   8.249  19.371  0.00  0.00    +0.000 NA
ENDROOT
BRANCH   1   9
ATOM      6  C   UNL     1       3.612   3.803  17.841  0.00  0.00    +0.000 A 
ATOM      7  C   UNL     1       4.527   4.866  17.768  0.00  0.00    +0.000 A 
ATOM      8  C   UNL     1       4.104   6.190  17.895  0.00  0.00    +0.000 A 
ATOM      9  C   UNL     1       2.749   6.484  18.059  0.00  0.00    +0.000 A 
ATOM     10  C   UNL     1       1.830   5.424  18.052  0.00  0.00    +0.000 A 
ATOM     11  C   UNL     1       2.242   4.086  17.931  0.00  0.00    +0.000 A 
BRANCH   6  13
ATOM     12  C   UNL     1       4.095   1.827  19.048  0.00  0.00    +0.000 C 
ATOM     13  O   UNL     1       4.039   2.504  17.793  0.00  0.00    +0.000 OA
ENDBRANCH   6  13
BRANCH  11  14
ATOM     14  O   UNL     1       1.184   3.214  17.946  0.00  0.00    +0.000 OA
ATOM     15  C   UNL     1       0.662   2.786  19.195  0.00  0.00    +0.000 C 
ENDBRANCH  11  14
ENDBRANCH   1   9
BRANCH   4  16
ATOM     16  C   UNL     1       0.695  10.400  20.146  0.00  0.00    +0.000 A 
ATOM     17  N   UNL     1       1.210  10.762  21.352  0.00  0.00    +0.000 NA
ATOM     18  N   UNL     1       0.274  11.437  22.004  0.00  0.00    +0.000 NA
ATOM     19  N   UNL     1      -0.816  11.570  21.199  0.00  0.00    +0.000 N 
ATOM     20  C   UNL     1      -0.593  10.892  20.007  0.00  0.00    +0.000 A 
ATOM     21  C   UNL     1      -1.573  10.600  18.929  0.00  0.00    +0.000 C 
BRANCH  19  22
ATOM     22  C   UNL     1      -1.993  12.201  21.675  0.00  0.00    +0.000 A 
ATOM     23  C   UNL     1      -2.862  12.867  20.805  0.00  0.00    +0.000 A 
ATOM     24  C   UNL     1      -4.130  13.253  21.241  0.00  0.00    +0.000 A 
ATOM     25  C   UNL     1      -4.541  13.008  22.558  0.00  0.00    +0.000 A 
ATOM     26  C   UNL     1      -3.607  12.475  23.458  0.00  0.00    +0.000 A 
ATOM     27  C   UNL     1      -2.335  12.086  23.029  0.00  0.00    +0.000 A 
BRANCH  25  28
ATOM     28  C   UNL     1      -5.977  13.292  22.956  0.00  0.00    +0.000 C 
ATOM     29  C   UNL     1      -6.101  14.657  23.640  0.00  0.00    +0.000 C 
ATOM     30  C   UNL     1      -6.936  13.179  21.773  0.00  0.00    +0.000 C 
ENDBRANCH  25  28
ENDBRANCH  19  22
ENDBRANCH   4  16
TORSDOF 6
ENDMDL
MODEL 4
REMARK VINA RESULT:      -8.0      2.418      3.567
REMARK  Name = 
REMARK  11 active torsions:
REMARK  status: ('A' for Active; 'I' for Inactive)
REMARK    1  A    between atoms: C_1  and  O_2
REMARK    2  A    between atoms: O_2  and  C_3
REMARK    3  A    between atoms: C_6  and  C_7
REMARK    4  A    between atoms: C_10  and  C_11
REMARK    5  A    between atoms: N_14  and  C_15
REMARK    6  A    between atoms: C_18  and  C_19
REMARK    7  A    between atoms: C_19  and  C_20
REMARK    8  A    between atoms: C_19  and  C_21
REMARK    9  A    between atoms: C_24  and  C_25
REMARK   10  A    between atoms: C_28  and  O_29
REMARK   11  A    between atoms: O_29  and  C_30
REMARK                            x       y       z     vdW  Elec       q    Type
REMARK                         _______ _______ _______ _____ _____    ______ ____
ROOT
ATOM      1  C   UNL     1       2.156   8.036  18.625  0.00  0.00    +0.000 A 
ATOM      2  N   UNL     1       2.231   8.870  17.576  0.00  0.00    +0.000 NA
ATOM      3  O   UNL     1       1.614  10.036  18.035  0.00  0.00    +0.000 OA
ATOM      4  C   UNL     1       1.228   9.798  19.326  0.00  0.00    +0.000 A 
ATOM      5  N   UNL     1       1.545   8.584  19.724  0.00  0.00    +0.000 NA
ENDROOT
BRANCH   1   9
ATOM      6  C   UNL     1       3.758   4.069  18.767  0.00  0.00    +0.000 A 
ATOM      7  C   UNL     1       3.974   4.889  17.649  0.00  0.00    +0.000 A 
ATOM      8  C   UNL     1       3.455   6.183  17.595  0.00  0.00    +0.000 A 
ATOM      9  C   UNL     1       2.673   6.673  18.643  0.00  0.00    +0.000 A 
ATOM     10  C   UNL     1       2.394   5.822  19.722  0.00  0.00    +0.000 A 
ATOM     11  C   UNL     1       2.915   4.519  19.793  0.00  0.00    +0.000 A 
BRANCH   6  13
ATOM     12  C   UNL     1       3.549   1.752  18.336  0.00  0.00    +0.000 C 
ATOM     13  O   UNL     1       4.332   2.829  18.851  0.00  0.00    +0.000 OA
ENDBRANCH   6  13
BRANCH  11  14
ATOM     14  O   UNL     1       2.517   3.863  20.929  0.00  0.00    +0.000 OA
ATOM     15  C   UNL     1       1.224   3.277  20.968  0.00  0.00    +0.000 C 
ENDBRANCH  11  14
ENDBRANCH   1   9
BRANCH   4  16
ATOM     16  C   UNL     1       0.551  10.794  20.202  0.00  0.00    +0.000 A 
ATOM     17  N   UNL     1       1.059  11.261  21.373  0.00  0.00    +0.000 NA
ATOM     18  N   UNL     1       0.139  12.033  21.933  0.00  0.00    +0.000 NA
ATOM     19  N   UNL     1      -0.933  12.118  21.098  0.00  0.00    +0.000 N 
ATOM     20  C   UNL     1      -0.716  11.312  19.988  0.00  0.00    +0.000 A 
ATOM     21  C   UNL     1      -1.690  10.943  18.928  0.00  0.00    +0.000 C 
BRANCH  19  22
ATOM     22  C   UNL     1      -2.094  12.836  21.483  0.00  0.00    +0.000 A 
ATOM     23  C   UNL     1      -2.956  12.346  22.470  0.00  0.00    +0.000 A 
ATOM     24  C   UNL     1      -3.938  13.174  23.015  0.00  0.00    +0.000 A 
ATOM     25  C   UNL     1      -4.095  14.492  22.567  0.00  0.00    +0.000 A 
ATOM     26  C   UNL     1      -3.324  14.921  21.477  0.00  0.00    +0.000 A 
ATOM     27  C   UNL     1      -2.339  14.098  20.925  0.00  0.00    +0.000 A 
BRANCH  25  28
ATOM     28  C   UNL     1      -5.060  15.415  23.288  0.00  0.00    +0.000 C 
ATOM     29  C   UNL     1      -6.349  14.680  23.668  0.00  0.00    +0.000 C 
ATOM     30  C   UNL     1      -4.421  16.076  24.509  0.00  0.00    +0.000 C 
ENDBRANCH  25  28
ENDBRANCH  19  22
ENDBRANCH   4  16
TORSDOF 6
ENDMDL
MODEL 5
REMARK VINA RESULT:      -8.0      1.922      2.990
REMARK  Name = 
REMARK  11 active torsions:
REMARK  status: ('A' for Active; 'I' for Inactive)
REMARK    1  A    between atoms: C_1  and  O_2
REMARK    2  A    between atoms: O_2  and  C_3
REMARK    3  A    between atoms: C_6  and  C_7
REMARK    4  A    between atoms: C_10  and  C_11
REMARK    5  A    between atoms: N_14  and  C_15
REMARK    6  A    between atoms: C_18  and  C_19
REMARK    7  A    between atoms: C_19  and  C_20
REMARK    8  A    between atoms: C_19  and  C_21
REMARK    9  A    between atoms: C_24  and  C_25
REMARK   10  A    between atoms: C_28  and  O_29
REMARK   11  A    between atoms: O_29  and  C_30
REMARK                            x       y       z     vdW  Elec       q    Type
REMARK                         _______ _______ _______ _____ _____    ______ ____
ROOT
ATOM      1  C   UNL     1       2.031   7.920  18.986  0.00  0.00    +0.000 A 
ATOM      2  N   UNL     1       1.948   8.991  18.181  0.00  0.00    +0.000 NA
ATOM      3  O   UNL     1       1.340   9.961  18.982  0.00  0.00    +0.000 OA
ATOM      4  C   UNL     1       1.119   9.385  20.202  0.00  0.00    +0.000 A 
ATOM      5  N   UNL     1       1.531   8.136  20.245  0.00  0.00    +0.000 NA
ENDROOT
BRANCH   1   9
ATOM      6  C   UNL     1       3.674   4.169  17.742  0.00  0.00    +0.000 A 
ATOM      7  C   UNL     1       2.527   4.215  18.549  0.00  0.00    +0.000 A 
ATOM      8  C   UNL     1       1.985   5.435  18.960  0.00  0.00    +0.000 A 
ATOM      9  C   UNL     1       2.603   6.635  18.604  0.00  0.00    +0.000 A 
ATOM     10  C   UNL     1       3.794   6.580  17.864  0.00  0.00    +0.000 A 
ATOM     11  C   UNL     1       4.347   5.361  17.439  0.00  0.00    +0.000 A 
BRANCH   6  13
ATOM     12  C   UNL     1       3.656   1.811  17.934  0.00  0.00    +0.000 C 
ATOM     13  O   UNL     1       4.158   2.975  17.278  0.00  0.00    +0.000 OA
ENDBRANCH   6  13
BRANCH  11  14
ATOM     14  O   UNL     1       5.509   5.537  16.733  0.00  0.00    +0.000 OA
ATOM     15  C   UNL     1       5.453   5.591  15.316  0.00  0.00    +0.000 C 
ENDBRANCH  11  14
ENDBRANCH   1   9
BRANCH   4  16
ATOM     16  C   UNL     1       0.507  10.083  21.367  0.00  0.00    +0.000 A 
ATOM     17  N   UNL     1       0.616   9.668  22.657  0.00  0.00    +0.000 NA
ATOM     18  N   UNL     1      -0.147  10.457  23.401  0.00  0.00    +0.000 NA
ATOM     19  N   UNL     1      -0.693  11.418  22.607  0.00  0.00    +0.000 N 
ATOM     20  C   UNL     1      -0.318  11.193  21.288  0.00  0.00    +0.000 A 
ATOM     21  C   UNL     1      -0.836  11.864  20.068  0.00  0.00    +0.000 C 
BRANCH  19  22
ATOM     22  C   UNL     1      -1.607  12.362  23.140  0.00  0.00    +0.000 A 
ATOM     23  C   UNL     1      -1.248  13.704  23.310  0.00  0.00    +0.000 A 
ATOM     24  C   UNL     1      -2.226  14.660  23.586  0.00  0.00    +0.000 A 
ATOM     25  C   UNL     1      -3.570  14.292  23.726  0.00  0.00    +0.000 A 
ATOM     26  C   UNL     1      -3.893  12.928  23.701  0.00  0.00    +0.000 A 
ATOM     27  C   UNL     1      -2.920  11.963  23.425  0.00  0.00    +0.000 A 
BRANCH  25  28
ATOM     28  C   UNL     1      -4.629  15.371  23.865  0.00  0.00    +0.000 C 
ATOM     29  C   UNL     1      -4.184  16.671  23.188  0.00  0.00    +0.000 C 
ATOM     30  C   UNL     1      -5.989  14.913  23.341  0.00  0.00    +0.000 C 
ENDBRANCH  25  28
ENDBRANCH  19  22
ENDBRANCH   4  16
TORSDOF 6
ENDMDL
MODEL 6
REMARK VINA RESULT:      -8.0      1.867      2.907
REMARK  Name = 
REMARK  11 active torsions:
REMARK  status: ('A' for Active; 'I' for Inactive)
REMARK    1  A    between atoms: C_1  and  O_2
REMARK    2  A    between atoms: O_2  and  C_3
REMARK    3  A    between atoms: C_6  and  C_7
REMARK    4  A    between atoms: C_10  and  C_11
REMARK    5  A    between atoms: N_14  and  C_15
REMARK    6  A    between atoms: C_18  and  C_19
REMARK    7  A    between atoms: C_19  and  C_20
REMARK    8  A    between atoms: C_19  and  C_21
REMARK    9  A    between atoms: C_24  and  C_25
REMARK   10  A    between atoms: C_28  and  O_29
REMARK   11  A    between atoms: O_29  and  C_30
REMARK                            x       y       z     vdW  Elec       q    Type
REMARK                         _______ _______ _______ _____ _____    ______ ____
ROOT
ATOM      1  C   UNL     1       2.082   8.072  18.853  0.00  0.00    +0.000 A 
ATOM      2  N   UNL     1       2.127   9.053  17.937  0.00  0.00    +0.000 NA
ATOM      3  O   UNL     1       1.460  10.114  18.554  0.00  0.00    +0.000 OA
ATOM      4  C   UNL     1       1.078   9.675  19.792  0.00  0.00    +0.000 A 
ATOM      5  N   UNL     1       1.443   8.429  20.013  0.00  0.00    +0.000 NA
ENDROOT
BRANCH   1   9
ATOM      6  C   UNL     1       3.689   4.153  18.234  0.00  0.00    +0.000 A 
ATOM      7  C   UNL     1       2.871   4.426  19.343  0.00  0.00    +0.000 A 
ATOM      8  C   UNL     1       2.344   5.701  19.552  0.00  0.00    +0.000 A 
ATOM      9  C   UNL     1       2.655   6.744  18.677  0.00  0.00    +0.000 A 
ATOM     10  C   UNL     1       3.536   6.486  17.616  0.00  0.00    +0.000 A 
ATOM     11  C   UNL     1       4.069   5.205  17.389  0.00  0.00    +0.000 A 
BRANCH   6  13
ATOM     12  C   UNL     1       3.205   1.838  18.247  0.00  0.00    +0.000 C 
ATOM     13  O   UNL     1       4.141   2.885  17.991  0.00  0.00    +0.000 OA
ENDBRANCH   6  13
BRANCH  11  14
ATOM     14  O   UNL     1       4.905   5.177  16.304  0.00  0.00    +0.000 OA
ATOM     15  C   UNL     1       5.275   6.401  15.687  0.00  0.00    +0.000 C 
ENDBRANCH  11  14
ENDBRANCH   1   9
BRANCH   4  16
ATOM     16  C   UNL     1       0.355  10.503  20.796  0.00  0.00    +0.000 A 
ATOM     17  N   UNL     1       0.735  10.646  22.094  0.00  0.00    +0.000 NA
ATOM     18  N   UNL     1      -0.201  11.351  22.713  0.00  0.00    +0.000 NA
ATOM     19  N   UNL     1      -1.148  11.719  21.808  0.00  0.00    +0.000 N 
ATOM     20  C   UNL     1      -0.839  11.168  20.570  0.00  0.00    +0.000 A 
ATOM     21  C   UNL     1      -1.688  11.137  19.351  0.00  0.00    +0.000 C 
BRANCH  19  22
ATOM     22  C   UNL     1      -2.302  12.433  22.218  0.00  0.00    +0.000 A 
ATOM     23  C   UNL     1      -2.906  13.379  21.384  0.00  0.00    +0.000 A 
ATOM     24  C   UNL     1      -4.173  13.877  21.691  0.00  0.00    +0.000 A 
ATOM     25  C   UNL     1      -4.846  13.462  22.848  0.00  0.00    +0.000 A 
ATOM     26  C   UNL     1      -4.167  12.628  23.749  0.00  0.00    +0.000 A 
ATOM     27  C   UNL     1      -2.898  12.126  23.449  0.00  0.00    +0.000 A 
BRANCH  25  28
ATOM     28  C   UNL     1      -6.283  13.895  23.071  0.00  0.00    +0.000 C 
ATOM     29  C   UNL     1      -7.061  12.838  23.862  0.00  0.00    +0.000 C 
ATOM     30  C   UNL     1      -6.374  15.264  23.743  0.00  0.00    +0.000 C 
ENDBRANCH  25  28
ENDBRANCH  19  22
ENDBRANCH   4  16
TORSDOF 6
ENDMDL
MODEL 7
REMARK VINA RESULT:      -8.0      1.801      2.650
REMARK  Name = 
REMARK  11 active torsions:
REMARK  status: ('A' for Active; 'I' for Inactive)
REMARK    1  A    between atoms: C_1  and  O_2
REMARK    2  A    between atoms: O_2  and  C_3
REMARK    3  A    between atoms: C_6  and  C_7
REMARK    4  A    between atoms: C_10  and  C_11
REMARK    5  A    between atoms: N_14  and  C_15
REMARK    6  A    between atoms: C_18  and  C_19
REMARK    7  A    between atoms: C_19  and  C_20
REMARK    8  A    between atoms: C_19  and  C_21
REMARK    9  A    between atoms: C_24  and  C_25
REMARK   10  A    between atoms: C_28  and  O_29
REMARK   11  A    between atoms: O_29  and  C_30
REMARK                            x       y       z     vdW  Elec       q    Type
REMARK                         _______ _______ _______ _____ _____    ______ ____
ROOT
ATOM      1  C   UNL     1       2.345   7.126  19.316  0.00  0.00    +0.000 A 
ATOM      2  N   UNL     1       1.943   6.601  20.484  0.00  0.00    +0.000 NA
ATOM      3  O   UNL     1       1.130   7.597  21.032  0.00  0.00    +0.000 OA
ATOM      4  C   UNL     1       1.112   8.631  20.137  0.00  0.00    +0.000 A 
ATOM      5  N   UNL     1       1.843   8.379  19.072  0.00  0.00    +0.000 NA
ENDROOT
BRANCH   1   9
ATOM      6  C   UNL     1       4.995   5.128  16.612  0.00  0.00    +0.000 A 
ATOM      7  C   UNL     1       4.893   6.529  16.612  0.00  0.00    +0.000 A 
ATOM      8  C   UNL     1       4.031   7.187  17.490  0.00  0.00    +0.000 A 
ATOM      9  C   UNL     1       3.221   6.457  18.362  0.00  0.00    +0.000 A 
ATOM     10  C   UNL     1       3.268   5.056  18.303  0.00  0.00    +0.000 A 
ATOM     11  C   UNL     1       4.136   4.380  17.429  0.00  0.00    +0.000 A 
BRANCH   6  13
ATOM     12  C   UNL     1       5.487   4.308  14.449  0.00  0.00    +0.000 C 
ATOM     13  O   UNL     1       5.896   4.490  15.804  0.00  0.00    +0.000 OA
ENDBRANCH   6  13
BRANCH  11  14
ATOM     14  O   UNL     1       4.019   3.018  17.534  0.00  0.00    +0.000 OA
ATOM     15  C   UNL     1       2.726   2.446  17.661  0.00  0.00    +0.000 C 
ENDBRANCH  11  14
ENDBRANCH   1   9
BRANCH   4  16
ATOM     16  C   UNL     1       0.341   9.891  20.318  0.00  0.00    +0.000 A 
ATOM     17  N   UNL     1       0.114  10.803  19.335  0.00  0.00    +0.000 NA
ATOM     18  N   UNL     1      -0.498  11.844  19.884  0.00  0.00    +0.000 NA
ATOM     19  N   UNL     1      -0.725  11.579  21.199  0.00  0.00    +0.000 N 
ATOM     20  C   UNL     1      -0.174  10.345  21.522  0.00  0.00    +0.000 A 
ATOM     21  C   UNL     1      -0.006   9.748  22.872  0.00  0.00    +0.000 C 
BRANCH  19  22
ATOM     22  C   UNL     1      -1.313  12.556  22.042  0.00  0.00    +0.000 A 
ATOM     23  C   UNL     1      -2.623  12.416  22.511  0.00  0.00    +0.000 A 
ATOM     24  C   UNL     1      -3.092  13.241  23.535  0.00  0.00    +0.000 A 
ATOM     25  C   UNL     1      -2.275  14.235  24.086  0.00  0.00    +0.000 A 
ATOM     26  C   UNL     1      -1.018  14.462  23.506  0.00  0.00    +0.000 A 
ATOM     27  C   UNL     1      -0.541  13.641  22.480  0.00  0.00    +0.000 A 
BRANCH  25  28
ATOM     28  C   UNL     1      -2.754  15.006  25.302  0.00  0.00    +0.000 C 
ATOM     29  C   UNL     1      -1.579  15.645  26.050  0.00  0.00    +0.000 C 
ATOM     30  C   UNL     1      -3.811  16.049  24.943  0.00  0.00    +0.000 C 
ENDBRANCH  25  28
ENDBRANCH  19  22
ENDBRANCH   4  16
TORSDOF 6
ENDMDL
MODEL 8
REMARK VINA RESULT:      -8.0      2.257      3.372
REMARK  Name = 
REMARK  11 active torsions:
REMARK  status: ('A' for Active; 'I' for Inactive)
REMARK    1  A    between atoms: C_1  and  O_2
REMARK    2  A    between atoms: O_2  and  C_3
REMARK    3  A    between atoms: C_6  and  C_7
REMARK    4  A    between atoms: C_10  and  C_11
REMARK    5  A    between atoms: N_14  and  C_15
REMARK    6  A    between atoms: C_18  and  C_19
REMARK    7  A    between atoms: C_19  and  C_20
REMARK    8  A    between atoms: C_19  and  C_21
REMARK    9  A    between atoms: C_24  and  C_25
REMARK   10  A    between atoms: C_28  and  O_29
REMARK   11  A    between atoms: O_29  and  C_30
REMARK                            x       y       z     vdW  Elec       q    Type
REMARK                         _______ _______ _______ _____ _____    ______ ____
ROOT
ATOM      1  C   UNL     1       1.949   7.693  19.676  0.00  0.00    +0.000 A 
ATOM      2  N   UNL     1       2.009   8.598  18.687  0.00  0.00    +0.000 NA
ATOM      3  O   UNL     1       1.341   9.707  19.212  0.00  0.00    +0.000 OA
ATOM      4  C   UNL     1       0.943   9.368  20.476  0.00  0.00    +0.000 A 
ATOM      5  N   UNL     1       1.299   8.142  20.797  0.00  0.00    +0.000 NA
ENDROOT
BRANCH   1   9
ATOM      6  C   UNL     1       3.553   3.736  19.373  0.00  0.00    +0.000 A 
ATOM      7  C   UNL     1       2.598   4.048  20.353  0.00  0.00    +0.000 A 
ATOM      8  C   UNL     1       2.070   5.336  20.459  0.00  0.00    +0.000 A 
ATOM      9  C   UNL     1       2.516   6.352  19.611  0.00  0.00    +0.000 A 
ATOM     10  C   UNL     1       3.528   6.054  18.686  0.00  0.00    +0.000 A 
ATOM     11  C   UNL     1       4.064   4.761  18.564  0.00  0.00    +0.000 A 
BRANCH   6  13
ATOM     12  C   UNL     1       3.363   1.684  18.212  0.00  0.00    +0.000 C 
ATOM     13  O   UNL     1       4.012   2.455  19.223  0.00  0.00    +0.000 OA
ENDBRANCH   6  13
BRANCH  11  14
ATOM     14  O   UNL     1       5.040   4.692  17.604  0.00  0.00    +0.000 OA
ATOM     15  C   UNL     1       6.401   4.772  17.998  0.00  0.00    +0.000 C 
ENDBRANCH  11  14
ENDBRANCH   1   9
BRANCH   4  16
ATOM     16  C   UNL     1       0.215  10.276  21.405  0.00  0.00    +0.000 A 
ATOM     17  N   UNL     1       0.401  10.312  22.751  0.00  0.00    +0.000 NA
ATOM     18  N   UNL     1      -0.494  11.146  23.261  0.00  0.00    +0.000 NA
ATOM     19  N   UNL     1      -1.212  11.697  22.244  0.00  0.00    +0.000 N 
ATOM     20  C   UNL     1      -0.804  11.141  21.038  0.00  0.00    +0.000 A 
ATOM     21  C   UNL     1      -1.441  11.292  19.704  0.00  0.00    +0.000 C 
BRANCH  19  22
ATOM     22  C   UNL     1      -2.286  12.584  22.515  0.00  0.00    +0.000 A 
ATOM     23  C   UNL     1      -3.273  12.263  23.453  0.00  0.00    +0.000 A 
ATOM     24  C   UNL     1      -4.165  13.242  23.893  0.00  0.00    +0.000 A 
ATOM     25  C   UNL     1      -4.107  14.546  23.384  0.00  0.00    +0.000 A 
ATOM     26  C   UNL     1      -3.211  14.813  22.338  0.00  0.00    +0.000 A 
ATOM     27  C   UNL     1      -2.314  13.839  21.892  0.00  0.00    +0.000 A 
BRANCH  25  28
ATOM     28  C   UNL     1      -4.980  15.625  23.996  0.00  0.00    +0.000 C 
ATOM     29  C   UNL     1      -4.171  16.525  24.935  0.00  0.00    +0.000 C 
ATOM     30  C   UNL     1      -5.706  16.449  22.934  0.00  0.00    +0.000 C 
ENDBRANCH  25  28
ENDBRANCH  19  22
ENDBRANCH   4  16
TORSDOF 6
ENDMDL
MODEL 9
REMARK VINA RESULT:      -7.9      2.553      3.921
REMARK  Name = 
REMARK  11 active torsions:
REMARK  status: ('A' for Active; 'I' for Inactive)
REMARK    1  A    between atoms: C_1  and  O_2
REMARK    2  A    between atoms: O_2  and  C_3
REMARK    3  A    between atoms: C_6  and  C_7
REMARK    4  A    between atoms: C_10  and  C_11
REMARK    5  A    between atoms: N_14  and  C_15
REMARK    6  A    between atoms: C_18  and  C_19
REMARK    7  A    between atoms: C_19  and  C_20
REMARK    8  A    between atoms: C_19  and  C_21
REMARK    9  A    between atoms: C_24  and  C_25
REMARK   10  A    between atoms: C_28  and  O_29
REMARK   11  A    between atoms: O_29  and  C_30
REMARK                            x       y       z     vdW  Elec       q    Type
REMARK                         _______ _______ _______ _____ _____    ______ ____
ROOT
ATOM      1  C   UNL     1       2.008   7.471  19.601  0.00  0.00    +0.000 A 
ATOM      2  N   UNL     1       1.977   8.446  18.679  0.00  0.00    +0.000 NA
ATOM      3  O   UNL     1       1.361   9.510  19.342  0.00  0.00    +0.000 OA
ATOM      4  C   UNL     1       1.082   9.078  20.610  0.00  0.00    +0.000 A 
ATOM      5  N   UNL     1       1.465   7.834  20.807  0.00  0.00    +0.000 NA
ENDROOT
BRANCH   1   9
ATOM      6  C   UNL     1       3.682   3.564  19.095  0.00  0.00    +0.000 A 
ATOM      7  C   UNL     1       4.289   4.685  18.506  0.00  0.00    +0.000 A 
ATOM      8  C   UNL     1       3.748   5.962  18.666  0.00  0.00    +0.000 A 
ATOM      9  C   UNL     1       2.566   6.142  19.387  0.00  0.00    +0.000 A 
ATOM     10  C   UNL     1       1.921   5.009  19.905  0.00  0.00    +0.000 A 
ATOM     11  C   UNL     1       2.457   3.718  19.758  0.00  0.00    +0.000 A 
BRANCH   6  13
ATOM     12  C   UNL     1       3.721   1.475  17.986  0.00  0.00    +0.000 C 
ATOM     13  O   UNL     1       4.256   2.325  19.000  0.00  0.00    +0.000 OA
ENDBRANCH   6  13
BRANCH  11  14
ATOM     14  O   UNL     1       1.667   2.761  20.339  0.00  0.00    +0.000 OA
ATOM     15  C   UNL     1       1.550   2.729  21.753  0.00  0.00    +0.000 C 
ENDBRANCH  11  14
ENDBRANCH   1   9
BRANCH   4  16
ATOM     16  C   UNL     1       0.442   9.912  21.665  0.00  0.00    +0.000 A 
ATOM     17  N   UNL     1       0.456   9.618  22.993  0.00  0.00    +0.000 NA
ATOM     18  N   UNL     1      -0.306  10.509  23.611  0.00  0.00    +0.000 NA
ATOM     19  N   UNL     1      -0.756  11.414  22.699  0.00  0.00    +0.000 N 
ATOM     20  C   UNL     1      -0.319  11.046  21.432  0.00  0.00    +0.000 A 
ATOM     21  C   UNL     1      -0.733  11.619  20.125  0.00  0.00    +0.000 C 
BRANCH  19  22
ATOM     22  C   UNL     1      -1.649  12.446  23.084  0.00  0.00    +0.000 A 
ATOM     23  C   UNL     1      -1.232  13.779  23.150  0.00  0.00    +0.000 A 
ATOM     24  C   UNL     1      -2.174  14.802  23.275  0.00  0.00    +0.000 A 
ATOM     25  C   UNL     1      -3.541  14.511  23.367  0.00  0.00    +0.000 A 
ATOM     26  C   UNL     1      -3.931  13.166  23.449  0.00  0.00    +0.000 A 
ATOM     27  C   UNL     1      -2.995  12.136  23.325  0.00  0.00    +0.000 A 
BRANCH  25  28
ATOM     28  C   UNL     1      -4.549  15.645  23.340  0.00  0.00    +0.000 C 
ATOM     29  C   UNL     1      -4.526  16.435  24.652  0.00  0.00    +0.000 C 
ATOM     30  C   UNL     1      -4.347  16.566  22.138  0.00  0.00    +0.000 C 
ENDBRANCH  25  28
ENDBRANCH  19  22
ENDBRANCH   4  16
TORSDOF 6
ENDMDL
