MODEL 1
REMARK VINA RESULT:      -6.8      0.000      0.000
REMARK  Name = 
REMARK  5 active torsions:
REMARK  status: ('A' for Active; 'I' for Inactive)
REMARK    1  A    between atoms: C_1  and  C_2
REMARK    2  A    between atoms: C_2  and  O_3
REMARK    3  A    between atoms: O_3  and  C_4
REMARK    4  A    between atoms: C_10  and  C_12
REMARK    5  A    between atoms: C_17  and  C_18
REMARK                            x       y       z     vdW  Elec       q    Type
REMARK                         _______ _______ _______ _____ _____    ______ ____
ROOT
ATOM      1  C   UNL     1       0.200   9.760  19.533  0.00  0.00    +0.000 C 
ATOM      2  O   UNL     1      -0.579   9.757  20.475  0.00  0.00    +0.000 OA
ATOM      3  N   UNL     1       1.385   9.056  19.502  0.00  0.00    +0.000 N 
ATOM      4  C   UNL     1       1.741   8.174  20.619  0.00  0.00    +0.000 C 
ATOM      5  C   UNL     1       1.925   6.717  20.156  0.00  0.00    +0.000 C 
ATOM      6  N   UNL     1       2.786   6.639  18.965  0.00  0.00    +0.000 N 
ATOM      7  C   UNL     1       3.876   5.770  18.978  0.00  0.00    +0.000 C 
ATOM      8  O   UNL     1       4.099   5.014  19.922  0.00  0.00    +0.000 OA
ATOM      9  C   UNL     1       2.298   7.471  17.853  0.00  0.00    +0.000 C 
ATOM     10  C   UNL     1       2.228   8.939  18.306  0.00  0.00    +0.000 C 
ENDROOT
BRANCH   7  11
ATOM     11  C   UNL     1       4.819   5.702  17.826  0.00  0.00    +0.000 A 
ATOM     12  C   UNL     1       6.092   6.260  17.985  0.00  0.00    +0.000 A 
ATOM     13  C   UNL     1       7.043   6.182  16.959  0.00  0.00    +0.000 A 
ATOM     14  C   UNL     1       6.723   5.507  15.764  0.00  0.00    +0.000 A 
ATOM     15  N   UNL     1       7.580   5.273  14.701  0.00  0.00    +0.000 NA
ATOM     16  C   UNL     1       6.958   4.593  13.764  0.00  0.00    +0.000 A 
ATOM     17  C   UNL     1       7.589   4.127  12.500  0.00  0.00    +0.000 C 
ATOM     18  S   UNL     1       5.308   4.240  14.070  0.00  0.00    +0.000 S 
ATOM     19  C   UNL     1       5.429   5.014  15.602  0.00  0.00    +0.000 A 
ATOM     20  C   UNL     1       4.444   5.157  16.593  0.00  0.00    +0.000 A 
ENDBRANCH   7  11
BRANCH   1  21
ATOM     21  O   UNL     1      -0.032  10.405  18.360  0.00  0.00    +0.000 OA
BRANCH  21  23
ATOM     22  C   UNL     1      -2.036   9.930  17.148  0.00  0.00    +0.000 C 
ATOM     23  C   UNL     1      -1.376  10.856  18.157  0.00  0.00    +0.000 C 
ENDBRANCH  21  23
ENDBRANCH   1  21
TORSDOF 3
ENDMDL
MODEL 2
REMARK VINA RESULT:      -6.2      1.236      1.392
REMARK  Name = 
REMARK  5 active torsions:
REMARK  status: ('A' for Active; 'I' for Inactive)
REMARK    1  A    between atoms: C_1  and  C_2
REMARK    2  A    between atoms: C_2  and  O_3
REMARK    3  A    between atoms: O_3  and  C_4
REMARK    4  A    between atoms: C_10  and  C_12
REMARK    5  A    between atoms: C_17  and  C_18
REMARK                            x       y       z     vdW  Elec       q    Type
REMARK                         _______ _______ _______ _____ _____    ______ ____
ROOT
ATOM      1  C   UNL     1       0.288   8.565  20.800  0.00  0.00    +0.000 C 
ATOM      2  O   UNL     1      -0.503   8.303  21.694  0.00  0.00    +0.000 OA
ATOM      3  N   UNL     1       1.436   7.845  20.543  0.00  0.00    +0.000 N 
ATOM      4  C   UNL     1       1.731   6.636  21.321  0.00  0.00    +0.000 C 
ATOM      5  C   UNL     1       1.847   5.394  20.418  0.00  0.00    +0.000 C 
ATOM      6  N   UNL     1       2.720   5.654  19.262  0.00  0.00    +0.000 N 
ATOM      7  C   UNL     1       3.763   4.769  18.995  0.00  0.00    +0.000 C 
ATOM      8  O   UNL     1       3.935   3.742  19.649  0.00  0.00    +0.000 OA
ATOM      9  C   UNL     1       2.291   6.821  18.474  0.00  0.00    +0.000 C 
ATOM     10  C   UNL     1       2.290   8.070  19.370  0.00  0.00    +0.000 C 
ENDROOT
BRANCH   7  11
ATOM     11  C   UNL     1       4.718   5.021  17.879  0.00  0.00    +0.000 A 
ATOM     12  C   UNL     1       5.845   5.808  18.143  0.00  0.00    +0.000 A 
ATOM     13  C   UNL     1       6.807   6.039  17.151  0.00  0.00    +0.000 A 
ATOM     14  C   UNL     1       6.655   5.445  15.882  0.00  0.00    +0.000 A 
ATOM     15  N   UNL     1       7.559   5.508  14.834  0.00  0.00    +0.000 NA
ATOM     16  C   UNL     1       7.106   4.820  13.810  0.00  0.00    +0.000 A 
ATOM     17  C   UNL     1       7.841   4.633  12.529  0.00  0.00    +0.000 C 
ATOM     18  S   UNL     1       5.562   4.105  14.014  0.00  0.00    +0.000 S 
ATOM     19  C   UNL     1       5.494   4.717  15.621  0.00  0.00    +0.000 A 
ATOM     20  C   UNL     1       4.485   4.547  16.584  0.00  0.00    +0.000 A 
ENDBRANCH   7  11
BRANCH   1  21
ATOM     21  O   UNL     1       0.107   9.560  19.894  0.00  0.00    +0.000 OA
BRANCH  21  23
ATOM     22  C   UNL     1      -0.493  11.836  19.479  0.00  0.00    +0.000 C 
ATOM     23  C   UNL     1       0.266  10.892  20.398  0.00  0.00    +0.000 C 
ENDBRANCH  21  23
ENDBRANCH   1  21
TORSDOF 3
ENDMDL
MODEL 3
REMARK VINA RESULT:      -6.1      3.345      5.472
REMARK  Name = 
REMARK  5 active torsions:
REMARK  status: ('A' for Active; 'I' for Inactive)
REMARK    1  A    between atoms: C_1  and  C_2
REMARK    2  A    between atoms: C_2  and  O_3
REMARK    3  A    between atoms: O_3  and  C_4
REMARK    4  A    between atoms: C_10  and  C_12
REMARK    5  A    between atoms: C_17  and  C_18
REMARK                            x       y       z     vdW  Elec       q    Type
REMARK                         _______ _______ _______ _____ _____    ______ ____
ROOT
ATOM      1  C   UNL     1      -4.262  12.122  18.908  0.00  0.00    +0.000 C 
ATOM      2  O   UNL     1      -4.832  12.977  19.570  0.00  0.00    +0.000 OA
ATOM      3  N   UNL     1      -2.906  11.877  18.959  0.00  0.00    +0.000 N 
ATOM      4  C   UNL     1      -2.065  12.614  19.909  0.00  0.00    +0.000 C 
ATOM      5  C   UNL     1      -1.345  11.666  20.886  0.00  0.00    +0.000 C 
ATOM      6  N   UNL     1      -0.700  10.552  20.171  0.00  0.00    +0.000 N 
ATOM      7  C   UNL     1       0.646  10.286  20.417  0.00  0.00    +0.000 C 
ATOM      8  O   UNL     1       1.293  10.903  21.263  0.00  0.00    +0.000 OA
ATOM      9  C   UNL     1      -1.638   9.798  19.324  0.00  0.00    +0.000 C 
ATOM     10  C   UNL     1      -2.260  10.744  18.284  0.00  0.00    +0.000 C 
ENDROOT
BRANCH   7  11
ATOM     11  C   UNL     1       1.366   9.215  19.672  0.00  0.00    +0.000 A 
ATOM     12  C   UNL     1       1.788   9.492  18.367  0.00  0.00    +0.000 A 
ATOM     13  C   UNL     1       2.516   8.546  17.632  0.00  0.00    +0.000 A 
ATOM     14  C   UNL     1       2.854   7.313  18.226  0.00  0.00    +0.000 A 
ATOM     15  N   UNL     1       3.638   6.321  17.663  0.00  0.00    +0.000 NA
ATOM     16  C   UNL     1       3.769   5.320  18.505  0.00  0.00    +0.000 A 
ATOM     17  C   UNL     1       4.584   4.102  18.247  0.00  0.00    +0.000 C 
ATOM     18  S   UNL     1       2.927   5.479  19.990  0.00  0.00    +0.000 S 
ATOM     19  C   UNL     1       2.370   7.034  19.504  0.00  0.00    +0.000 A 
ATOM     20  C   UNL     1       1.572   7.943  20.218  0.00  0.00    +0.000 A 
ENDBRANCH   7  11
BRANCH   1  21
ATOM     21  O   UNL     1      -4.899  11.252  18.082  0.00  0.00    +0.000 OA
BRANCH  21  23
ATOM     22  C   UNL     1      -6.815  10.117  18.951  0.00  0.00    +0.000 C 
ATOM     23  C   UNL     1      -6.330  11.296  18.122  0.00  0.00    +0.000 C 
ENDBRANCH  21  23
ENDBRANCH   1  21
TORSDOF 3
ENDMDL
MODEL 4
REMARK VINA RESULT:      -6.1      3.725      8.629
REMARK  Name = 
REMARK  5 active torsions:
REMARK  status: ('A' for Active; 'I' for Inactive)
REMARK    1  A    between atoms: C_1  and  C_2
REMARK    2  A    between atoms: C_2  and  O_3
REMARK    3  A    between atoms: O_3  and  C_4
REMARK    4  A    between atoms: C_10  and  C_12
REMARK    5  A    between atoms: C_17  and  C_18
REMARK                            x       y       z     vdW  Elec       q    Type
REMARK                         _______ _______ _______ _____ _____    ______ ____
ROOT
ATOM      1  C   UNL     1       4.969   4.207  18.355  0.00  0.00    +0.000 C 
ATOM      2  O   UNL     1       5.565   3.869  17.343  0.00  0.00    +0.000 OA
ATOM      3  N   UNL     1       4.534   5.492  18.607  0.00  0.00    +0.000 N 
ATOM      4  C   UNL     1       4.712   6.536  17.593  0.00  0.00    +0.000 C 
ATOM      5  C   UNL     1       3.365   7.145  17.162  0.00  0.00    +0.000 C 
ATOM      6  N   UNL     1       2.543   7.503  18.330  0.00  0.00    +0.000 N 
ATOM      7  C   UNL     1       2.014   8.791  18.411  0.00  0.00    +0.000 C 
ATOM      8  O   UNL     1       2.151   9.613  17.506  0.00  0.00    +0.000 OA
ATOM      9  C   UNL     1       2.323   6.369  19.242  0.00  0.00    +0.000 C 
ATOM     10  C   UNL     1       3.679   5.849  19.746  0.00  0.00    +0.000 C 
ENDROOT
BRANCH   7  11
ATOM     11  C   UNL     1       1.233   9.227  19.602  0.00  0.00    +0.000 A 
ATOM     12  C   UNL     1       1.494   8.600  20.825  0.00  0.00    +0.000 A 
ATOM     13  C   UNL     1       0.831   9.001  21.993  0.00  0.00    +0.000 A 
ATOM     14  C   UNL     1      -0.087  10.070  21.941  0.00  0.00    +0.000 A 
ATOM     15  N   UNL     1      -0.750  10.633  23.018  0.00  0.00    +0.000 NA
ATOM     16  C   UNL     1      -1.508  11.626  22.609  0.00  0.00    +0.000 A 
ATOM     17  C   UNL     1      -2.326  12.487  23.505  0.00  0.00    +0.000 C 
ATOM     18  S   UNL     1      -1.515  11.912  20.918  0.00  0.00    +0.000 S 
ATOM     19  C   UNL     1      -0.377  10.638  20.701  0.00  0.00    +0.000 A 
ATOM     20  C   UNL     1       0.222  10.190  19.512  0.00  0.00    +0.000 A 
ENDBRANCH   7  11
BRANCH   1  21
ATOM     21  O   UNL     1       4.593   3.347  19.337  0.00  0.00    +0.000 OA
BRANCH  21  23
ATOM     22  C   UNL     1       3.618   1.501  18.174  0.00  0.00    +0.000 C 
ATOM     23  C   UNL     1       3.354   2.662  19.119  0.00  0.00    +0.000 C 
ENDBRANCH  21  23
ENDBRANCH   1  21
TORSDOF 3
ENDMDL
MODEL 5
REMARK VINA RESULT:      -6.1      4.452      6.312
REMARK  Name = 
REMARK  5 active torsions:
REMARK  status: ('A' for Active; 'I' for Inactive)
REMARK    1  A    between atoms: C_1  and  C_2
REMARK    2  A    between atoms: C_2  and  O_3
REMARK    3  A    between atoms: O_3  and  C_4
REMARK    4  A    between atoms: C_10  and  C_12
REMARK    5  A    between atoms: C_17  and  C_18
REMARK                            x       y       z     vdW  Elec       q    Type
REMARK                         _______ _______ _______ _____ _____    ______ ____
ROOT
ATOM      1  C   UNL     1       2.288   3.247  18.426  0.00  0.00    +0.000 C 
ATOM      2  O   UNL     1       1.744   2.413  17.716  0.00  0.00    +0.000 OA
ATOM      3  N   UNL     1       3.577   3.703  18.242  0.00  0.00    +0.000 N 
ATOM      4  C   UNL     1       4.357   3.241  17.089  0.00  0.00    +0.000 C 
ATOM      5  C   UNL     1       4.791   4.413  16.190  0.00  0.00    +0.000 C 
ATOM      6  N   UNL     1       5.382   5.504  16.982  0.00  0.00    +0.000 N 
ATOM      7  C   UNL     1       6.628   6.006  16.612  0.00  0.00    +0.000 C 
ATOM      8  O   UNL     1       7.218   5.617  15.604  0.00  0.00    +0.000 OA
ATOM      9  C   UNL     1       4.488   5.982  18.050  0.00  0.00    +0.000 C 
ATOM     10  C   UNL     1       4.158   4.818  18.999  0.00  0.00    +0.000 C 
ENDROOT
BRANCH   7  11
ATOM     11  C   UNL     1       7.302   7.062  17.418  0.00  0.00    +0.000 A 
ATOM     12  C   UNL     1       8.015   6.667  18.555  0.00  0.00    +0.000 A 
ATOM     13  C   UNL     1       8.715   7.605  19.326  0.00  0.00    +0.000 A 
ATOM     14  C   UNL     1       8.726   8.959  18.933  0.00  0.00    +0.000 A 
ATOM     15  N   UNL     1       9.438   9.981  19.538  0.00  0.00    +0.000 NA
ATOM     16  C   UNL     1       9.235  11.110  18.895  0.00  0.00    +0.000 A 
ATOM     17  C   UNL     1       9.880  12.405  19.243  0.00  0.00    +0.000 C 
ATOM     18  S   UNL     1       8.149  11.030  17.571  0.00  0.00    +0.000 S 
ATOM     19  C   UNL     1       7.957   9.340  17.833  0.00  0.00    +0.000 A 
ATOM     20  C   UNL     1       7.188   8.420  17.102  0.00  0.00    +0.000 A 
ENDBRANCH   7  11
BRANCH   1  21
ATOM     21  O   UNL     1       1.671   3.888  19.453  0.00  0.00    +0.000 OA
BRANCH  21  23
ATOM     22  C   UNL     1       2.152   2.943  21.594  0.00  0.00    +0.000 C 
ATOM     23  C   UNL     1       1.129   3.042  20.474  0.00  0.00    +0.000 C 
ENDBRANCH  21  23
ENDBRANCH   1  21
TORSDOF 3
ENDMDL
MODEL 6
REMARK VINA RESULT:      -6.0      1.317      1.827
REMARK  Name = 
REMARK  5 active torsions:
REMARK  status: ('A' for Active; 'I' for Inactive)
REMARK    1  A    between atoms: C_1  and  C_2
REMARK    2  A    between atoms: C_2  and  O_3
REMARK    3  A    between atoms: O_3  and  C_4
REMARK    4  A    between atoms: C_10  and  C_12
REMARK    5  A    between atoms: C_17  and  C_18
REMARK                            x       y       z     vdW  Elec       q    Type
REMARK                         _______ _______ _______ _____ _____    ______ ____
ROOT
ATOM      1  C   UNL     1       0.260  10.459  19.879  0.00  0.00    +0.000 C 
ATOM      2  O   UNL     1      -0.419  10.788  20.841  0.00  0.00    +0.000 OA
ATOM      3  N   UNL     1       1.222   9.470  19.909  0.00  0.00    +0.000 N 
ATOM      4  C   UNL     1       1.427   8.687  21.132  0.00  0.00    +0.000 C 
ATOM      5  C   UNL     1       1.198   7.184  20.890  0.00  0.00    +0.000 C 
ATOM      6  N   UNL     1       1.917   6.721  19.691  0.00  0.00    +0.000 N 
ATOM      7  C   UNL     1       2.747   5.606  19.794  0.00  0.00    +0.000 C 
ATOM      8  O   UNL     1       2.844   4.954  20.833  0.00  0.00    +0.000 OA
ATOM      9  C   UNL     1       1.572   7.492  18.486  0.00  0.00    +0.000 C 
ATOM     10  C   UNL     1       1.912   8.974  18.713  0.00  0.00    +0.000 C 
ENDROOT
BRANCH   7  11
ATOM     11  C   UNL     1       3.551   5.137  18.630  0.00  0.00    +0.000 A 
ATOM     12  C   UNL     1       3.106   4.005  17.938  0.00  0.00    +0.000 A 
ATOM     13  C   UNL     1       3.787   3.543  16.804  0.00  0.00    +0.000 A 
ATOM     14  C   UNL     1       4.916   4.247  16.336  0.00  0.00    +0.000 A 
ATOM     15  N   UNL     1       5.636   3.967  15.186  0.00  0.00    +0.000 NA
ATOM     16  C   UNL     1       6.608   4.840  15.043  0.00  0.00    +0.000 A 
ATOM     17  C   UNL     1       7.553   4.868  13.894  0.00  0.00    +0.000 C 
ATOM     18  S   UNL     1       6.753   6.008  16.290  0.00  0.00    +0.000 S 
ATOM     19  C   UNL     1       5.378   5.335  17.076  0.00  0.00    +0.000 A 
ATOM     20  C   UNL     1       4.749   5.756  18.259  0.00  0.00    +0.000 A 
ENDBRANCH   7  11
BRANCH   1  21
ATOM     21  O   UNL     1       0.110  10.976  18.632  0.00  0.00    +0.000 OA
BRANCH  21  23
ATOM     22  C   UNL     1      -1.763  10.023  17.494  0.00  0.00    +0.000 C 
ATOM     23  C   UNL     1      -1.239  11.245  18.231  0.00  0.00    +0.000 C 
ENDBRANCH  21  23
ENDBRANCH   1  21
TORSDOF 3
ENDMDL
MODEL 7
REMARK VINA RESULT:      -6.0      3.226      8.040
REMARK  Name = 
REMARK  5 active torsions:
REMARK  status: ('A' for Active; 'I' for Inactive)
REMARK    1  A    between atoms: C_1  and  C_2
REMARK    2  A    between atoms: C_2  and  O_3
REMARK    3  A    between atoms: O_3  and  C_4
REMARK    4  A    between atoms: C_10  and  C_12
REMARK    5  A    between atoms: C_17  and  C_18
REMARK                            x       y       z     vdW  Elec       q    Type
REMARK                         _______ _______ _______ _____ _____    ______ ____
ROOT
ATOM      1  C   UNL     1       6.180   4.411  15.616  0.00  0.00    +0.000 C 
ATOM      2  O   UNL     1       6.726   3.325  15.742  0.00  0.00    +0.000 OA
ATOM      3  N   UNL     1       5.042   4.792  16.296  0.00  0.00    +0.000 N 
ATOM      4  C   UNL     1       4.456   3.896  17.299  0.00  0.00    +0.000 C 
ATOM      5  C   UNL     1       4.401   4.558  18.689  0.00  0.00    +0.000 C 
ATOM      6  N   UNL     1       3.832   5.913  18.613  0.00  0.00    +0.000 N 
ATOM      7  C   UNL     1       2.780   6.249  19.463  0.00  0.00    +0.000 C 
ATOM      8  O   UNL     1       2.359   5.476  20.323  0.00  0.00    +0.000 OA
ATOM      9  C   UNL     1       4.546   6.779  17.661  0.00  0.00    +0.000 C 
ATOM     10  C   UNL     1       4.491   6.152  16.259  0.00  0.00    +0.000 C 
ENDROOT
BRANCH   7  11
ATOM     11  C   UNL     1       2.121   7.583  19.381  0.00  0.00    +0.000 A 
ATOM     12  C   UNL     1       2.105   8.233  18.142  0.00  0.00    +0.000 A 
ATOM     13  C   UNL     1       1.456   9.466  17.987  0.00  0.00    +0.000 A 
ATOM     14  C   UNL     1       0.785  10.042  19.085  0.00  0.00    +0.000 A 
ATOM     15  N   UNL     1       0.030  11.203  19.065  0.00  0.00    +0.000 NA
ATOM     16  C   UNL     1      -0.472  11.432  20.259  0.00  0.00    +0.000 A 
ATOM     17  C   UNL     1      -1.371  12.570  20.591  0.00  0.00    +0.000 C 
ATOM     18  S   UNL     1      -0.034  10.311  21.480  0.00  0.00    +0.000 S 
ATOM     19  C   UNL     1       0.867   9.408  20.324  0.00  0.00    +0.000 A 
ATOM     20  C   UNL     1       1.583   8.214  20.509  0.00  0.00    +0.000 A 
ENDBRANCH   7  11
BRANCH   1  21
ATOM     21  O   UNL     1       6.661   5.416  14.839  0.00  0.00    +0.000 OA
BRANCH  21  23
ATOM     22  C   UNL     1       6.482   4.163  12.812  0.00  0.00    +0.000 C 
ATOM     23  C   UNL     1       7.399   5.006  13.683  0.00  0.00    +0.000 C 
ENDBRANCH  21  23
ENDBRANCH   1  21
TORSDOF 3
ENDMDL
MODEL 8
REMARK VINA RESULT:      -6.0      3.731      4.653
REMARK  Name = 
REMARK  5 active torsions:
REMARK  status: ('A' for Active; 'I' for Inactive)
REMARK    1  A    between atoms: C_1  and  C_2
REMARK    2  A    between atoms: C_2  and  O_3
REMARK    3  A    between atoms: O_3  and  C_4
REMARK    4  A    between atoms: C_10  and  C_12
REMARK    5  A    between atoms: C_17  and  C_18
REMARK                            x       y       z     vdW  Elec       q    Type
REMARK                         _______ _______ _______ _____ _____    ______ ____
ROOT
ATOM      1  C   UNL     1      -1.959  12.593  19.464  0.00  0.00    +0.000 C 
ATOM      2  O   UNL     1      -2.323  13.471  20.233  0.00  0.00    +0.000 OA
ATOM      3  N   UNL     1      -0.860  11.785  19.672  0.00  0.00    +0.000 N 
ATOM      4  C   UNL     1      -0.094  11.900  20.918  0.00  0.00    +0.000 C 
ATOM      5  C   UNL     1      -0.072  10.572  21.697  0.00  0.00    +0.000 C 
ATOM      6  N   UNL     1       0.276   9.443  20.818  0.00  0.00    +0.000 N 
ATOM      7  C   UNL     1       1.305   8.585  21.202  0.00  0.00    +0.000 C 
ATOM      8  O   UNL     1       1.882   8.696  22.283  0.00  0.00    +0.000 OA
ATOM      9  C   UNL     1      -0.611   9.336  19.648  0.00  0.00    +0.000 C 
ATOM     10  C   UNL     1      -0.530  10.633  18.826  0.00  0.00    +0.000 C 
ENDROOT
BRANCH   7  11
ATOM     11  C   UNL     1       1.744   7.468  20.320  0.00  0.00    +0.000 A 
ATOM     12  C   UNL     1       2.300   7.792  19.077  0.00  0.00    +0.000 A 
ATOM     13  C   UNL     1       2.780   6.790  18.222  0.00  0.00    +0.000 A 
ATOM     14  C   UNL     1       2.732   5.442  18.634  0.00  0.00    +0.000 A 
ATOM     15  N   UNL     1       3.244   4.357  17.943  0.00  0.00    +0.000 NA
ATOM     16  C   UNL     1       3.046   3.254  18.630  0.00  0.00    +0.000 A 
ATOM     17  C   UNL     1       3.508   1.904  18.209  0.00  0.00    +0.000 C 
ATOM     18  S   UNL     1       2.197   3.438  20.108  0.00  0.00    +0.000 S 
ATOM     19  C   UNL     1       2.118   5.138  19.848  0.00  0.00    +0.000 A 
ATOM     20  C   UNL     1       1.561   6.127  20.675  0.00  0.00    +0.000 A 
ENDBRANCH   7  11
BRANCH   1  21
ATOM     21  O   UNL     1      -2.627  12.251  18.333  0.00  0.00    +0.000 OA
BRANCH  21  23
ATOM     22  C   UNL     1      -4.083  10.454  17.730  0.00  0.00    +0.000 C 
ATOM     23  C   UNL     1      -3.952  11.742  18.527  0.00  0.00    +0.000 C 
ENDBRANCH  21  23
ENDBRANCH   1  21
TORSDOF 3
ENDMDL
MODEL 9
REMARK VINA RESULT:      -5.9      3.972      8.561
REMARK  Name = 
REMARK  5 active torsions:
REMARK  status: ('A' for Active; 'I' for Inactive)
REMARK    1  A    between atoms: C_1  and  C_2
REMARK    2  A    between atoms: C_2  and  O_3
REMARK    3  A    between atoms: O_3  and  C_4
REMARK    4  A    between atoms: C_10  and  C_12
REMARK    5  A    between atoms: C_17  and  C_18
REMARK                            x       y       z     vdW  Elec       q    Type
REMARK                         _______ _______ _______ _____ _____    ______ ____
ROOT
ATOM      1  C   UNL     1       4.013   3.228  19.327  0.00  0.00    +0.000 C 
ATOM      2  O   UNL     1       4.575   2.682  18.388  0.00  0.00    +0.000 OA
ATOM      3  N   UNL     1       3.840   4.592  19.442  0.00  0.00    +0.000 N 
ATOM      4  C   UNL     1       4.277   5.478  18.358  0.00  0.00    +0.000 C 
ATOM      5  C   UNL     1       3.106   6.301  17.790  0.00  0.00    +0.000 C 
ATOM      6  N   UNL     1       2.321   6.926  18.867  0.00  0.00    +0.000 N 
ATOM      7  C   UNL     1       2.065   8.295  18.804  0.00  0.00    +0.000 C 
ATOM      8  O   UNL     1       2.411   8.984  17.845  0.00  0.00    +0.000 OA
ATOM      9  C   UNL     1       1.829   5.951  19.854  0.00  0.00    +0.000 C 
ATOM     10  C   UNL     1       3.024   5.220  20.488  0.00  0.00    +0.000 C 
ENDROOT
BRANCH   7  11
ATOM     11  C   UNL     1       1.334   8.991  19.901  0.00  0.00    +0.000 A 
ATOM     12  C   UNL     1       1.374   8.425  21.180  0.00  0.00    +0.000 A 
ATOM     13  C   UNL     1       0.751   9.058  22.264  0.00  0.00    +0.000 A 
ATOM     14  C   UNL     1       0.104  10.295  22.070  0.00  0.00    +0.000 A 
ATOM     15  N   UNL     1      -0.477  11.078  23.054  0.00  0.00    +0.000 NA
ATOM     16  C   UNL     1      -0.965  12.177  22.522  0.00  0.00    +0.000 A 
ATOM     17  C   UNL     1      -1.619  13.268  23.293  0.00  0.00    +0.000 C 
ATOM     18  S   UNL     1      -0.808  12.316  20.820  0.00  0.00    +0.000 S 
ATOM     19  C   UNL     1       0.022  10.809  20.776  0.00  0.00    +0.000 A 
ATOM     20  C   UNL     1       0.573  10.143  19.669  0.00  0.00    +0.000 A 
ENDBRANCH   7  11
BRANCH   1  21
ATOM     21  O   UNL     1       3.422   2.559  20.350  0.00  0.00    +0.000 OA
BRANCH  21  23
ATOM     22  C   UNL     1       1.286   2.503  21.421  0.00  0.00    +0.000 C 
ATOM     23  C   UNL     1       2.052   2.197  20.143  0.00  0.00    +0.000 C 
ENDBRANCH  21  23
ENDBRANCH   1  21
TORSDOF 3
ENDMDL
