MODEL 1
REMARK VINA RESULT:      -7.0      0.000      0.000
REMARK  Name = 
REMARK  3 active torsions:
REMARK  status: ('A' for Active; 'I' for Inactive)
REMARK    1  A    between atoms: N_4  and  N_5
REMARK    2  A    between atoms: C_6  and  C_7
REMARK    3  A    between atoms: C_8  and  C_9
REMARK                            x       y       z     vdW  Elec       q    Type
REMARK                         _______ _______ _______ _____ _____    ______ ____
ROOT
ATOM      1  C   UNL     1       4.437   4.142  17.375  0.00  0.00    +0.000 A 
ATOM      2  C   UNL     1       5.011   4.947  18.354  0.00  0.00    +0.000 A 
ATOM      3  N   UNL     1       4.385   4.798  19.579  0.00  0.00    +0.000 NA
ATOM      4  C   UNL     1       3.434   3.945  19.331  0.00  0.00    +0.000 A 
ATOM      5  N   UNL     1       3.430   3.521  18.044  0.00  0.00    +0.000 N 
ATOM      6  C   UNL     1       2.445   2.526  17.676  0.00  0.00    +0.000 C 
ATOM      7  C   UNL     1       1.888   1.951  18.983  0.00  0.00    +0.000 C 
ATOM      8  S   UNL     1       2.231   3.191  20.296  0.00  0.00    +0.000 S 
ENDROOT
BRANCH   2   9
ATOM      9  C   UNL     1       6.112   5.905  18.216  0.00  0.00    +0.000 A 
ATOM     10  C   UNL     1       7.299   5.820  18.997  0.00  0.00    +0.000 A 
ATOM     11  C   UNL     1       8.191   6.826  18.694  0.00  0.00    +0.000 A 
ATOM     12  S   UNL     1       7.595   7.875  17.483  0.00  0.00    +0.000 S 
ATOM     13  C   UNL     1       6.138   6.988  17.361  0.00  0.00    +0.000 A 
ENDBRANCH   2   9
BRANCH   1  15
ATOM     14  N   UNL     1       6.008   3.702  15.660  0.00  0.00    +0.000 NA
ATOM     15  C   UNL     1       4.793   3.985  15.998  0.00  0.00    +0.000 C 
BRANCH  14  19
ATOM     16  N   UNL     1       7.057   4.142  12.251  0.00  0.00    +0.000 NA
ATOM     17  C   UNL     1       6.931   4.360  13.512  0.00  0.00    +0.000 C 
ATOM     18  N   UNL     1       7.536   5.382  14.154  0.00  0.00    +0.000 N 
ATOM     19  N   UNL     1       6.190   3.545  14.312  0.00  0.00    +0.000 N 
ATOM     20  H   UNL     1       7.625   4.890  11.848  0.00  0.00    +0.000 HD
ATOM     21  H   UNL     1       8.397   5.714  13.743  0.00  0.00    +0.000 HD
ATOM     22  H   UNL     1       7.621   5.169  15.145  0.00  0.00    +0.000 HD
ATOM     23  H   UNL     1       5.779   2.766  13.800  0.00  0.00    +0.000 HD
ENDBRANCH  14  19
ENDBRANCH   1  15
TORSDOF 3
ENDMDL
MODEL 2
REMARK VINA RESULT:      -6.8      3.082      3.809
REMARK  Name = 
REMARK  3 active torsions:
REMARK  status: ('A' for Active; 'I' for Inactive)
REMARK    1  A    between atoms: N_4  and  N_5
REMARK    2  A    between atoms: C_6  and  C_7
REMARK    3  A    between atoms: C_8  and  C_9
REMARK                            x       y       z     vdW  Elec       q    Type
REMARK                         _______ _______ _______ _____ _____    ______ ____
ROOT
ATOM      1  C   UNL     1       3.447   5.522  19.143  0.00  0.00    +0.000 A 
ATOM      2  C   UNL     1       2.407   6.309  19.628  0.00  0.00    +0.000 A 
ATOM      3  N   UNL     1       1.629   5.628  20.547  0.00  0.00    +0.000 NA
ATOM      4  C   UNL     1       2.172   4.446  20.587  0.00  0.00    +0.000 A 
ATOM      5  N   UNL     1       3.257   4.338  19.782  0.00  0.00    +0.000 N 
ATOM      6  C   UNL     1       3.970   3.079  19.795  0.00  0.00    +0.000 C 
ATOM      7  C   UNL     1       3.485   2.309  21.029  0.00  0.00    +0.000 C 
ATOM      8  S   UNL     1       1.854   3.022  21.491  0.00  0.00    +0.000 S 
ENDROOT
BRANCH   2   9
ATOM      9  C   UNL     1       2.052   7.682  19.255  0.00  0.00    +0.000 A 
ATOM     10  C   UNL     1       2.328   8.217  17.965  0.00  0.00    +0.000 A 
ATOM     11  C   UNL     1       1.906   9.523  17.845  0.00  0.00    +0.000 A 
ATOM     12  S   UNL     1       1.192  10.106  19.286  0.00  0.00    +0.000 S 
ATOM     13  C   UNL     1       1.448   8.611  20.077  0.00  0.00    +0.000 A 
ENDBRANCH   2   9
BRANCH   1  15
ATOM     14  N   UNL     1       4.447   5.372  17.002  0.00  0.00    +0.000 NA
ATOM     15  C   UNL     1       4.477   5.848  18.204  0.00  0.00    +0.000 C 
BRANCH  14  19
ATOM     16  N   UNL     1       7.369   5.486  14.914  0.00  0.00    +0.000 NA
ATOM     17  C   UNL     1       6.435   5.007  15.656  0.00  0.00    +0.000 C 
ATOM     18  N   UNL     1       6.303   3.690  15.927  0.00  0.00    +0.000 N 
ATOM     19  N   UNL     1       5.476   5.800  16.207  0.00  0.00    +0.000 N 
ATOM     20  H   UNL     1       7.988   4.722  14.637  0.00  0.00    +0.000 HD
ATOM     21  H   UNL     1       6.668   3.057  15.230  0.00  0.00    +0.000 HD
ATOM     22  H   UNL     1       5.342   3.485  16.192  0.00  0.00    +0.000 HD
ATOM     23  H   UNL     1       5.587   6.780  15.951  0.00  0.00    +0.000 HD
ENDBRANCH  14  19
ENDBRANCH   1  15
TORSDOF 3
ENDMDL
MODEL 3
REMARK VINA RESULT:      -6.7      0.933      1.141
REMARK  Name = 
REMARK  3 active torsions:
REMARK  status: ('A' for Active; 'I' for Inactive)
REMARK    1  A    between atoms: N_4  and  N_5
REMARK    2  A    between atoms: C_6  and  C_7
REMARK    3  A    between atoms: C_8  and  C_9
REMARK                            x       y       z     vdW  Elec       q    Type
REMARK                         _______ _______ _______ _____ _____    ______ ____
ROOT
ATOM      1  C   UNL     1       4.735   4.108  17.206  0.00  0.00    +0.000 A 
ATOM      2  C   UNL     1       5.005   5.162  18.073  0.00  0.00    +0.000 A 
ATOM      3  N   UNL     1       4.005   5.327  19.015  0.00  0.00    +0.000 NA
ATOM      4  C   UNL     1       3.137   4.409  18.698  0.00  0.00    +0.000 A 
ATOM      5  N   UNL     1       3.529   3.657  17.642  0.00  0.00    +0.000 N 
ATOM      6  C   UNL     1       2.661   2.570  17.242  0.00  0.00    +0.000 C 
ATOM      7  C   UNL     1       1.673   2.348  18.394  0.00  0.00    +0.000 C 
ATOM      8  S   UNL     1       1.642   3.904  19.372  0.00  0.00    +0.000 S 
ENDROOT
BRANCH   2   9
ATOM      9  C   UNL     1       6.146   6.082  18.062  0.00  0.00    +0.000 A 
ATOM     10  C   UNL     1       7.281   5.900  18.902  0.00  0.00    +0.000 A 
ATOM     11  C   UNL     1       8.225   6.886  18.717  0.00  0.00    +0.000 A 
ATOM     12  S   UNL     1       7.740   8.035  17.547  0.00  0.00    +0.000 S 
ATOM     13  C   UNL     1       6.262   7.216  17.284  0.00  0.00    +0.000 A 
ENDBRANCH   2   9
BRANCH   1  15
ATOM     14  N   UNL     1       5.497   4.189  14.966  0.00  0.00    +0.000 NA
ATOM     15  C   UNL     1       5.512   3.600  16.117  0.00  0.00    +0.000 C 
BRANCH  14  19
ATOM     16  N   UNL     1       6.810   2.791  11.928  0.00  0.00    +0.000 NA
ATOM     17  C   UNL     1       5.979   3.331  12.747  0.00  0.00    +0.000 C 
ATOM     18  N   UNL     1       4.723   3.689  12.402  0.00  0.00    +0.000 N 
ATOM     19  N   UNL     1       6.318   3.613  14.035  0.00  0.00    +0.000 N 
ATOM     20  H   UNL     1       6.337   2.643  11.035  0.00  0.00    +0.000 HD
ATOM     21  H   UNL     1       4.581   3.918  11.429  0.00  0.00    +0.000 HD
ATOM     22  H   UNL     1       4.380   4.405  13.037  0.00  0.00    +0.000 HD
ATOM     23  H   UNL     1       7.282   3.362  14.246  0.00  0.00    +0.000 HD
ENDBRANCH  14  19
ENDBRANCH   1  15
TORSDOF 3
ENDMDL
MODEL 4
REMARK VINA RESULT:      -6.7      3.150      3.790
REMARK  Name = 
REMARK  3 active torsions:
REMARK  status: ('A' for Active; 'I' for Inactive)
REMARK    1  A    between atoms: N_4  and  N_5
REMARK    2  A    between atoms: C_6  and  C_7
REMARK    3  A    between atoms: C_8  and  C_9
REMARK                            x       y       z     vdW  Elec       q    Type
REMARK                         _______ _______ _______ _____ _____    ______ ____
ROOT
ATOM      1  C   UNL     1       3.229   5.401  18.872  0.00  0.00    +0.000 A 
ATOM      2  C   UNL     1       2.401   6.276  19.569  0.00  0.00    +0.000 A 
ATOM      3  N   UNL     1       1.841   5.679  20.684  0.00  0.00    +0.000 NA
ATOM      4  C   UNL     1       2.299   4.462  20.639  0.00  0.00    +0.000 A 
ATOM      5  N   UNL     1       3.132   4.252  19.591  0.00  0.00    +0.000 N 
ATOM      6  C   UNL     1       3.742   2.945  19.479  0.00  0.00    +0.000 C 
ATOM      7  C   UNL     1       3.540   2.246  20.829  0.00  0.00    +0.000 C 
ATOM      8  S   UNL     1       2.131   3.090  21.656  0.00  0.00    +0.000 S 
ENDROOT
BRANCH   2   9
ATOM      9  C   UNL     1       2.052   7.660  19.236  0.00  0.00    +0.000 A 
ATOM     10  C   UNL     1       1.395   8.524  20.158  0.00  0.00    +0.000 A 
ATOM     11  C   UNL     1       1.170   9.774  19.626  0.00  0.00    +0.000 A 
ATOM     12  S   UNL     1       1.737   9.904  18.017  0.00  0.00    +0.000 S 
ATOM     13  C   UNL     1       2.283   8.283  18.027  0.00  0.00    +0.000 A 
ENDBRANCH   2   9
BRANCH   1  15
ATOM     14  N   UNL     1       5.296   5.633  17.740  0.00  0.00    +0.000 NA
ATOM     15  C   UNL     1       4.004   5.624  17.689  0.00  0.00    +0.000 C 
BRANCH  14  19
ATOM     16  N   UNL     1       7.564   5.456  14.958  0.00  0.00    +0.000 NA
ATOM     17  C   UNL     1       7.060   5.233  16.120  0.00  0.00    +0.000 C 
ATOM     18  N   UNL     1       7.608   4.386  17.017  0.00  0.00    +0.000 N 
ATOM     19  N   UNL     1       5.900   5.820  16.527  0.00  0.00    +0.000 N 
ATOM     20  H   UNL     1       8.442   4.940  14.881  0.00  0.00    +0.000 HD
ATOM     21  H   UNL     1       8.159   3.631  16.633  0.00  0.00    +0.000 HD
ATOM     22  H   UNL     1       6.900   4.071  17.676  0.00  0.00    +0.000 HD
ATOM     23  H   UNL     1       5.498   6.422  15.810  0.00  0.00    +0.000 HD
ENDBRANCH  14  19
ENDBRANCH   1  15
TORSDOF 3
ENDMDL
MODEL 5
REMARK VINA RESULT:      -6.6      3.237      4.859
REMARK  Name = 
REMARK  3 active torsions:
REMARK  status: ('A' for Active; 'I' for Inactive)
REMARK    1  A    between atoms: N_4  and  N_5
REMARK    2  A    between atoms: C_6  and  C_7
REMARK    3  A    between atoms: C_8  and  C_9
REMARK                            x       y       z     vdW  Elec       q    Type
REMARK                         _______ _______ _______ _____ _____    ______ ____
ROOT
ATOM      1  C   UNL     1       3.108   5.028  18.758  0.00  0.00    +0.000 A 
ATOM      2  C   UNL     1       4.287   4.349  18.462  0.00  0.00    +0.000 A 
ATOM      3  N   UNL     1       4.462   3.240  19.271  0.00  0.00    +0.000 NA
ATOM      4  C   UNL     1       3.426   3.273  20.058  0.00  0.00    +0.000 A 
ATOM      5  N   UNL     1       2.592   4.306  19.787  0.00  0.00    +0.000 N 
ATOM      6  C   UNL     1       1.378   4.402  20.569  0.00  0.00    +0.000 C 
ATOM      7  C   UNL     1       1.200   3.052  21.276  0.00  0.00    +0.000 C 
ATOM      8  S   UNL     1       2.855   2.253  21.315  0.00  0.00    +0.000 S 
ENDROOT
BRANCH   2   9
ATOM      9  C   UNL     1       5.313   4.692  17.473  0.00  0.00    +0.000 A 
ATOM     10  C   UNL     1       6.243   5.751  17.676  0.00  0.00    +0.000 A 
ATOM     11  C   UNL     1       7.110   5.888  16.614  0.00  0.00    +0.000 A 
ATOM     12  S   UNL     1       6.796   4.755  15.372  0.00  0.00    +0.000 S 
ATOM     13  C   UNL     1       5.495   4.078  16.251  0.00  0.00    +0.000 A 
ENDBRANCH   2   9
BRANCH   1  15
ATOM     14  N   UNL     1       2.726   7.363  18.684  0.00  0.00    +0.000 NA
ATOM     15  C   UNL     1       2.552   6.198  18.151  0.00  0.00    +0.000 C 
BRANCH  14  19
ATOM     16  N   UNL     1       0.862  10.287  17.741  0.00  0.00    +0.000 NA
ATOM     17  C   UNL     1       1.342   9.347  18.476  0.00  0.00    +0.000 C 
ATOM     18  N   UNL     1       1.099   9.242  19.800  0.00  0.00    +0.000 N 
ATOM     19  N   UNL     1       2.170   8.391  17.972  0.00  0.00    +0.000 N 
ATOM     20  H   UNL     1       0.248  10.867  18.316  0.00  0.00    +0.000 HD
ATOM     21  H   UNL     1       0.896  10.106  20.282  0.00  0.00    +0.000 HD
ATOM     22  H   UNL     1       1.832   8.697  20.246  0.00  0.00    +0.000 HD
ATOM     23  H   UNL     1       2.359   8.524  16.980  0.00  0.00    +0.000 HD
ENDBRANCH  14  19
ENDBRANCH   1  15
TORSDOF 3
ENDMDL
MODEL 6
REMARK VINA RESULT:      -6.5      3.155      6.412
REMARK  Name = 
REMARK  3 active torsions:
REMARK  status: ('A' for Active; 'I' for Inactive)
REMARK    1  A    between atoms: N_4  and  N_5
REMARK    2  A    between atoms: C_6  and  C_7
REMARK    3  A    between atoms: C_8  and  C_9
REMARK                            x       y       z     vdW  Elec       q    Type
REMARK                         _______ _______ _______ _____ _____    ______ ____
ROOT
ATOM      1  C   UNL     1       4.053   5.891  18.205  0.00  0.00    +0.000 A 
ATOM      2  C   UNL     1       4.032   4.715  18.949  0.00  0.00    +0.000 A 
ATOM      3  N   UNL     1       5.303   4.203  19.143  0.00  0.00    +0.000 NA
ATOM      4  C   UNL     1       6.067   5.038  18.500  0.00  0.00    +0.000 A 
ATOM      5  N   UNL     1       5.375   6.059  17.938  0.00  0.00    +0.000 N 
ATOM      6  C   UNL     1       6.138   7.076  17.246  0.00  0.00    +0.000 C 
ATOM      7  C   UNL     1       7.602   6.890  17.663  0.00  0.00    +0.000 C 
ATOM      8  S   UNL     1       7.764   5.163  18.273  0.00  0.00    +0.000 S 
ENDROOT
BRANCH   2   9
ATOM      9  C   UNL     1       2.872   3.990  19.475  0.00  0.00    +0.000 A 
ATOM     10  C   UNL     1       1.894   3.397  18.627  0.00  0.00    +0.000 A 
ATOM     11  C   UNL     1       0.898   2.771  19.344  0.00  0.00    +0.000 A 
ATOM     12  S   UNL     1       1.133   2.910  21.033  0.00  0.00    +0.000 S 
ATOM     13  C   UNL     1       2.569   3.811  20.809  0.00  0.00    +0.000 A 
ENDBRANCH   2   9
BRANCH   1  15
ATOM     14  N   UNL     1       2.976   7.997  18.097  0.00  0.00    +0.000 NA
ATOM     15  C   UNL     1       2.971   6.737  17.804  0.00  0.00    +0.000 C 
BRANCH  14  19
ATOM     16  N   UNL     1       0.002   9.998  17.839  0.00  0.00    +0.000 NA
ATOM     17  C   UNL     1       0.992   9.370  18.368  0.00  0.00    +0.000 C 
ATOM     18  N   UNL     1       1.240   9.358  19.696  0.00  0.00    +0.000 N 
ATOM     19  N   UNL     1       1.896   8.685  17.615  0.00  0.00    +0.000 N 
ATOM     20  H   UNL     1      -0.558  10.411  18.587  0.00  0.00    +0.000 HD
ATOM     21  H   UNL     1       0.911  10.161  20.213  0.00  0.00    +0.000 HD
ATOM     22  H   UNL     1       2.220   9.147  19.864  0.00  0.00    +0.000 HD
ATOM     23  H   UNL     1       1.697   8.747  16.618  0.00  0.00    +0.000 HD
ENDBRANCH  14  19
ENDBRANCH   1  15
TORSDOF 3
ENDMDL
MODEL 7
REMARK VINA RESULT:      -6.5      3.028      6.811
REMARK  Name = 
REMARK  3 active torsions:
REMARK  status: ('A' for Active; 'I' for Inactive)
REMARK    1  A    between atoms: N_4  and  N_5
REMARK    2  A    between atoms: C_6  and  C_7
REMARK    3  A    between atoms: C_8  and  C_9
REMARK                            x       y       z     vdW  Elec       q    Type
REMARK                         _______ _______ _______ _____ _____    ______ ____
ROOT
ATOM      1  C   UNL     1       3.909   5.844  18.336  0.00  0.00    +0.000 A 
ATOM      2  C   UNL     1       3.876   4.532  18.799  0.00  0.00    +0.000 A 
ATOM      3  N   UNL     1       5.050   3.855  18.520  0.00  0.00    +0.000 NA
ATOM      4  C   UNL     1       5.760   4.735  17.874  0.00  0.00    +0.000 A 
ATOM      5  N   UNL     1       5.132   5.929  17.750  0.00  0.00    +0.000 N 
ATOM      6  C   UNL     1       5.859   6.995  17.096  0.00  0.00    +0.000 C 
ATOM      7  C   UNL     1       7.328   6.559  17.038  0.00  0.00    +0.000 C 
ATOM      8  S   UNL     1       7.344   4.728  17.212  0.00  0.00    +0.000 S 
ENDROOT
BRANCH   2   9
ATOM      9  C   UNL     1       2.777   3.830  19.469  0.00  0.00    +0.000 A 
ATOM     10  C   UNL     1       1.676   3.279  18.755  0.00  0.00    +0.000 A 
ATOM     11  C   UNL     1       0.769   2.668  19.593  0.00  0.00    +0.000 A 
ATOM     12  S   UNL     1       1.237   2.769  21.235  0.00  0.00    +0.000 S 
ATOM     13  C   UNL     1       2.654   3.635  20.829  0.00  0.00    +0.000 A 
ENDBRANCH   2   9
BRANCH   1  15
ATOM     14  N   UNL     1       2.541   7.312  19.591  0.00  0.00    +0.000 NA
ATOM     15  C   UNL     1       2.919   6.873  18.436  0.00  0.00    +0.000 C 
BRANCH  14  19
ATOM     16  N   UNL     1       0.193   9.892  20.457  0.00  0.00    +0.000 NA
ATOM     17  C   UNL     1       1.053   8.946  20.598  0.00  0.00    +0.000 C 
ATOM     18  N   UNL     1       1.490   8.513  21.800  0.00  0.00    +0.000 N 
ATOM     19  N   UNL     1       1.618   8.321  19.529  0.00  0.00    +0.000 N 
ATOM     20  H   UNL     1      -0.117  10.190  21.383  0.00  0.00    +0.000 HD
ATOM     21  H   UNL     1       1.467   9.191  22.549  0.00  0.00    +0.000 HD
ATOM     22  H   UNL     1       2.394   8.059  21.698  0.00  0.00    +0.000 HD
ATOM     23  H   UNL     1       1.291   8.699  18.641  0.00  0.00    +0.000 HD
ENDBRANCH  14  19
ENDBRANCH   1  15
TORSDOF 3
ENDMDL
MODEL 8
REMARK VINA RESULT:      -6.5      3.265      4.831
REMARK  Name = 
REMARK  3 active torsions:
REMARK  status: ('A' for Active; 'I' for Inactive)
REMARK    1  A    between atoms: N_4  and  N_5
REMARK    2  A    between atoms: C_6  and  C_7
REMARK    3  A    between atoms: C_8  and  C_9
REMARK                            x       y       z     vdW  Elec       q    Type
REMARK                         _______ _______ _______ _____ _____    ______ ____
ROOT
ATOM      1  C   UNL     1       3.001   6.792  18.436  0.00  0.00    +0.000 A 
ATOM      2  C   UNL     1       2.637   6.050  19.555  0.00  0.00    +0.000 A 
ATOM      3  N   UNL     1       1.825   6.771  20.412  0.00  0.00    +0.000 NA
ATOM      4  C   UNL     1       1.731   7.933  19.834  0.00  0.00    +0.000 A 
ATOM      5  N   UNL     1       2.401   7.991  18.658  0.00  0.00    +0.000 N 
ATOM      6  C   UNL     1       2.316   9.224  17.905  0.00  0.00    +0.000 C 
ATOM      7  C   UNL     1       1.156  10.028  18.505  0.00  0.00    +0.000 C 
ATOM      8  S   UNL     1       0.886   9.381  20.204  0.00  0.00    +0.000 S 
ENDROOT
BRANCH   2   9
ATOM      9  C   UNL     1       3.036   4.685  19.914  0.00  0.00    +0.000 A 
ATOM     10  C   UNL     1       2.338   3.917  20.889  0.00  0.00    +0.000 A 
ATOM     11  C   UNL     1       2.893   2.668  21.058  0.00  0.00    +0.000 A 
ATOM     12  S   UNL     1       4.258   2.426  20.056  0.00  0.00    +0.000 S 
ATOM     13  C   UNL     1       4.112   3.996  19.393  0.00  0.00    +0.000 A 
ENDBRANCH   2   9
BRANCH   1  15
ATOM     14  N   UNL     1       5.037   6.805  17.228  0.00  0.00    +0.000 NA
ATOM     15  C   UNL     1       3.807   6.416  17.314  0.00  0.00    +0.000 C 
BRANCH  14  19
ATOM     16  N   UNL     1       7.441   5.274  15.039  0.00  0.00    +0.000 NA
ATOM     17  C   UNL     1       6.890   5.688  16.124  0.00  0.00    +0.000 C 
ATOM     18  N   UNL     1       7.424   5.496  17.350  0.00  0.00    +0.000 N 
ATOM     19  N   UNL     1       5.692   6.337  16.121  0.00  0.00    +0.000 N 
ATOM     20  H   UNL     1       8.340   4.848  15.274  0.00  0.00    +0.000 HD
ATOM     21  H   UNL     1       8.018   4.685  17.450  0.00  0.00    +0.000 HD
ATOM     22  H   UNL     1       6.696   5.549  18.058  0.00  0.00    +0.000 HD
ATOM     23  H   UNL     1       5.305   6.431  15.184  0.00  0.00    +0.000 HD
ENDBRANCH  14  19
ENDBRANCH   1  15
TORSDOF 3
ENDMDL
MODEL 9
REMARK VINA RESULT:      -6.4      4.184      6.552
REMARK  Name = 
REMARK  3 active torsions:
REMARK  status: ('A' for Active; 'I' for Inactive)
REMARK    1  A    between atoms: N_4  and  N_5
REMARK    2  A    between atoms: C_6  and  C_7
REMARK    3  A    between atoms: C_8  and  C_9
REMARK                            x       y       z     vdW  Elec       q    Type
REMARK                         _______ _______ _______ _____ _____    ______ ____
ROOT
ATOM      1  C   UNL     1       2.474   7.246  19.286  0.00  0.00    +0.000 A 
ATOM      2  C   UNL     1       3.041   7.372  18.022  0.00  0.00    +0.000 A 
ATOM      3  N   UNL     1       2.694   8.566  17.416  0.00  0.00    +0.000 NA
ATOM      4  C   UNL     1       1.908   9.130  18.287  0.00  0.00    +0.000 A 
ATOM      5  N   UNL     1       1.755   8.392  19.413  0.00  0.00    +0.000 N 
ATOM      6  C   UNL     1       0.943   8.955  20.470  0.00  0.00    +0.000 C 
ATOM      7  C   UNL     1       0.765  10.443  20.145  0.00  0.00    +0.000 C 
ATOM      8  S   UNL     1       1.082  10.634  18.345  0.00  0.00    +0.000 S 
ENDROOT
BRANCH   2   9
ATOM      9  C   UNL     1       3.880   6.411  17.299  0.00  0.00    +0.000 A 
ATOM     10  C   UNL     1       4.924   6.818  16.421  0.00  0.00    +0.000 A 
ATOM     11  C   UNL     1       5.574   5.743  15.856  0.00  0.00    +0.000 A 
ATOM     12  S   UNL     1       4.920   4.249  16.371  0.00  0.00    +0.000 S 
ATOM     13  C   UNL     1       3.761   5.037  17.351  0.00  0.00    +0.000 A 
ENDBRANCH   2   9
BRANCH   1  15
ATOM     14  N   UNL     1       1.681   5.277  20.335  0.00  0.00    +0.000 NA
ATOM     15  C   UNL     1       2.596   6.186  20.240  0.00  0.00    +0.000 C 
BRANCH  14  19
ATOM     16  N   UNL     1       1.710   2.204  22.198  0.00  0.00    +0.000 NA
ATOM     17  C   UNL     1       1.399   3.064  21.293  0.00  0.00    +0.000 C 
ATOM     18  N   UNL     1       0.533   2.806  20.290  0.00  0.00    +0.000 N 
ATOM     19  N   UNL     1       1.952   4.308  21.262  0.00  0.00    +0.000 N 
ATOM     20  H   UNL     1       1.156   1.359  22.046  0.00  0.00    +0.000 HD
ATOM     21  H   UNL     1       0.456   1.839  20.010  0.00  0.00    +0.000 HD
ATOM     22  H   UNL     1       0.707   3.436  19.511  0.00  0.00    +0.000 HD
ATOM     23  H   UNL     1       2.626   4.452  22.012  0.00  0.00    +0.000 HD
ENDBRANCH  14  19
ENDBRANCH   1  15
TORSDOF 3
ENDMDL
