MODEL 1
REMARK VINA RESULT:      -7.6      0.000      0.000
REMARK  Name = 
REMARK  3 active torsions:
REMARK  status: ('A' for Active; 'I' for Inactive)
REMARK    1  A    between atoms: C_1  and  C_2
REMARK    2  A    between atoms: C_6  and  C_7
REMARK    3  A    between atoms: C_8  and  C_9
REMARK                            x       y       z     vdW  Elec       q    Type
REMARK                         _______ _______ _______ _____ _____    ______ ____
ROOT
ATOM      1  C   UNL     1       4.702   4.128  17.199  0.00  0.00    +0.000 C 
ATOM      2  C   UNL     1       3.918   3.850  18.068  0.00  0.00    +0.000 C 
ENDROOT
BRANCH   1   8
ATOM      3  C   UNL     1       6.463   3.747  12.722  0.00  0.00    +0.000 C 
ATOM      4  C   UNL     1       6.487   4.339  14.098  0.00  0.00    +0.000 A 
ATOM      5  N   UNL     1       7.459   5.249  14.354  0.00  0.00    +0.000 NA
ATOM      6  N   UNL     1       7.534   5.820  15.580  0.00  0.00    +0.000 NA
ATOM      7  C   UNL     1       6.631   5.454  16.505  0.00  0.00    +0.000 A 
ATOM      8  C   UNL     1       5.659   4.526  16.207  0.00  0.00    +0.000 A 
ATOM      9  N   UNL     1       5.559   3.940  14.996  0.00  0.00    +0.000 NA
ENDBRANCH   1   8
BRANCH   2  10
ATOM     10  C   UNL     1       3.017   3.521  19.139  0.00  0.00    +0.000 A 
ATOM     11  C   UNL     1       1.664   3.868  19.063  0.00  0.00    +0.000 A 
ATOM     12  C   UNL     1       0.806   3.605  20.138  0.00  0.00    +0.000 A 
ATOM     13  C   UNL     1       1.294   2.981  21.286  0.00  0.00    +0.000 A 
ATOM     14  C   UNL     1       2.636   2.607  21.354  0.00  0.00    +0.000 A 
ATOM     15  C   UNL     1       3.495   2.879  20.284  0.00  0.00    +0.000 A 
ENDBRANCH   2  10
TORSDOF 2
ENDMDL
MODEL 2
REMARK VINA RESULT:      -7.5      0.076      1.248
REMARK  Name = 
REMARK  3 active torsions:
REMARK  status: ('A' for Active; 'I' for Inactive)
REMARK    1  A    between atoms: C_1  and  C_2
REMARK    2  A    between atoms: C_6  and  C_7
REMARK    3  A    between atoms: C_8  and  C_9
REMARK                            x       y       z     vdW  Elec       q    Type
REMARK                         _______ _______ _______ _____ _____    ______ ____
ROOT
ATOM      1  C   UNL     1       4.709   4.188  17.190  0.00  0.00    +0.000 C 
ATOM      2  C   UNL     1       3.933   3.940  18.074  0.00  0.00    +0.000 C 
ENDROOT
BRANCH   1   8
ATOM      3  C   UNL     1       6.399   3.709  12.695  0.00  0.00    +0.000 C 
ATOM      4  C   UNL     1       6.459   4.313  14.064  0.00  0.00    +0.000 A 
ATOM      5  N   UNL     1       7.462   5.195  14.299  0.00  0.00    +0.000 NA
ATOM      6  N   UNL     1       7.571   5.776  15.517  0.00  0.00    +0.000 NA
ATOM      7  C   UNL     1       6.668   5.447  16.458  0.00  0.00    +0.000 A 
ATOM      8  C   UNL     1       5.665   4.547  16.182  0.00  0.00    +0.000 A 
ATOM      9  N   UNL     1       5.531   3.953  14.978  0.00  0.00    +0.000 NA
ENDBRANCH   1   8
BRANCH   2  10
ATOM     10  C   UNL     1       3.043   3.639  19.163  0.00  0.00    +0.000 A 
ATOM     11  C   UNL     1       3.510   2.971  20.301  0.00  0.00    +0.000 A 
ATOM     12  C   UNL     1       2.624   2.622  21.327  0.00  0.00    +0.000 A 
ATOM     13  C   UNL     1       1.273   2.951  21.228  0.00  0.00    +0.000 A 
ATOM     14  C   UNL     1       0.809   3.642  20.109  0.00  0.00    +0.000 A 
ATOM     15  C   UNL     1       1.691   3.982  19.078  0.00  0.00    +0.000 A 
ENDBRANCH   2  10
TORSDOF 2
ENDMDL
MODEL 3
REMARK VINA RESULT:      -7.3      5.196      7.874
REMARK  Name = 
REMARK  3 active torsions:
REMARK  status: ('A' for Active; 'I' for Inactive)
REMARK    1  A    between atoms: C_1  and  C_2
REMARK    2  A    between atoms: C_6  and  C_7
REMARK    3  A    between atoms: C_8  and  C_9
REMARK                            x       y       z     vdW  Elec       q    Type
REMARK                         _______ _______ _______ _____ _____    ______ ____
ROOT
ATOM      1  C   UNL     1       8.120   8.130  18.075  0.00  0.00    +0.000 C 
ATOM      2  C   UNL     1       8.568   9.203  18.381  0.00  0.00    +0.000 C 
ENDROOT
BRANCH   1   8
ATOM      3  C   UNL     1       6.587   4.960  14.775  0.00  0.00    +0.000 C 
ATOM      4  C   UNL     1       6.924   5.327  16.187  0.00  0.00    +0.000 A 
ATOM      5  N   UNL     1       6.750   4.365  17.127  0.00  0.00    +0.000 NA
ATOM      6  N   UNL     1       7.037   4.636  18.422  0.00  0.00    +0.000 NA
ATOM      7  C   UNL     1       7.487   5.865  18.727  0.00  0.00    +0.000 A 
ATOM      8  C   UNL     1       7.650   6.815  17.746  0.00  0.00    +0.000 A 
ATOM      9  N   UNL     1       7.373   6.575  16.447  0.00  0.00    +0.000 NA
ENDBRANCH   1   8
BRANCH   2  10
ATOM     10  C   UNL     1       9.106  10.471  18.795  0.00  0.00    +0.000 A 
ATOM     11  C   UNL     1       9.145  11.552  17.907  0.00  0.00    +0.000 A 
ATOM     12  C   UNL     1       9.732  12.762  18.294  0.00  0.00    +0.000 A 
ATOM     13  C   UNL     1      10.267  12.903  19.574  0.00  0.00    +0.000 A 
ATOM     14  C   UNL     1      10.205  11.838  20.472  0.00  0.00    +0.000 A 
ATOM     15  C   UNL     1       9.628  10.624  20.082  0.00  0.00    +0.000 A 
ENDBRANCH   2  10
TORSDOF 2
ENDMDL
MODEL 4
REMARK VINA RESULT:      -7.2      5.272      7.991
REMARK  Name = 
REMARK  3 active torsions:
REMARK  status: ('A' for Active; 'I' for Inactive)
REMARK    1  A    between atoms: C_1  and  C_2
REMARK    2  A    between atoms: C_6  and  C_7
REMARK    3  A    between atoms: C_8  and  C_9
REMARK                            x       y       z     vdW  Elec       q    Type
REMARK                         _______ _______ _______ _____ _____    ______ ____
ROOT
ATOM      1  C   UNL     1       8.166   8.210  18.118  0.00  0.00    +0.000 C 
ATOM      2  C   UNL     1       8.604   9.290  18.419  0.00  0.00    +0.000 C 
ENDROOT
BRANCH   1   8
ATOM      3  C   UNL     1       6.561   5.005  14.888  0.00  0.00    +0.000 C 
ATOM      4  C   UNL     1       6.938   5.385  16.286  0.00  0.00    +0.000 A 
ATOM      5  N   UNL     1       6.802   4.427  17.237  0.00  0.00    +0.000 NA
ATOM      6  N   UNL     1       7.126   4.709  18.521  0.00  0.00    +0.000 NA
ATOM      7  C   UNL     1       7.574   5.944  18.804  0.00  0.00    +0.000 A 
ATOM      8  C   UNL     1       7.698   6.889  17.813  0.00  0.00    +0.000 A 
ATOM      9  N   UNL     1       7.383   6.638  16.525  0.00  0.00    +0.000 NA
ENDBRANCH   1   8
BRANCH   2  10
ATOM     10  C   UNL     1       9.120  10.569  18.825  0.00  0.00    +0.000 A 
ATOM     11  C   UNL     1       9.608  10.760  20.122  0.00  0.00    +0.000 A 
ATOM     12  C   UNL     1      10.046  12.025  20.532  0.00  0.00    +0.000 A 
ATOM     13  C   UNL     1      10.012  13.099  19.644  0.00  0.00    +0.000 A 
ATOM     14  C   UNL     1       9.553  12.907  18.341  0.00  0.00    +0.000 A 
ATOM     15  C   UNL     1       9.105  11.645  17.934  0.00  0.00    +0.000 A 
ENDBRANCH   2  10
TORSDOF 2
ENDMDL
MODEL 5
REMARK VINA RESULT:      -6.6      5.063      7.854
REMARK  Name = 
REMARK  3 active torsions:
REMARK  status: ('A' for Active; 'I' for Inactive)
REMARK    1  A    between atoms: C_1  and  C_2
REMARK    2  A    between atoms: C_6  and  C_7
REMARK    3  A    between atoms: C_8  and  C_9
REMARK                            x       y       z     vdW  Elec       q    Type
REMARK                         _______ _______ _______ _____ _____    ______ ____
ROOT
ATOM      1  C   UNL     1       7.657   8.380  17.715  0.00  0.00    +0.000 C 
ATOM      2  C   UNL     1       8.381   9.249  18.123  0.00  0.00    +0.000 C 
ENDROOT
BRANCH   1   8
ATOM      3  C   UNL     1       7.105   4.554  14.826  0.00  0.00    +0.000 C 
ATOM      4  C   UNL     1       6.596   5.490  15.878  0.00  0.00    +0.000 A 
ATOM      5  N   UNL     1       5.344   5.261  16.346  0.00  0.00    +0.000 NA
ATOM      6  N   UNL     1       4.827   6.073  17.299  0.00  0.00    +0.000 NA
ATOM      7  C   UNL     1       5.586   7.088  17.745  0.00  0.00    +0.000 A 
ATOM      8  C   UNL     1       6.852   7.290  17.245  0.00  0.00    +0.000 A 
ATOM      9  N   UNL     1       7.394   6.498  16.297  0.00  0.00    +0.000 NA
ENDBRANCH   1   8
BRANCH   2  10
ATOM     10  C   UNL     1       9.253  10.262  18.654  0.00  0.00    +0.000 A 
ATOM     11  C   UNL     1      10.110  10.978  17.811  0.00  0.00    +0.000 A 
ATOM     12  C   UNL     1      11.004  11.914  18.342  0.00  0.00    +0.000 A 
ATOM     13  C   UNL     1      11.034  12.151  19.716  0.00  0.00    +0.000 A 
ATOM     14  C   UNL     1      10.162  11.461  20.557  0.00  0.00    +0.000 A 
ATOM     15  C   UNL     1       9.276  10.517  20.028  0.00  0.00    +0.000 A 
ENDBRANCH   2  10
TORSDOF 2
ENDMDL
MODEL 6
REMARK VINA RESULT:      -6.5      3.791      4.361
REMARK  Name = 
REMARK  3 active torsions:
REMARK  status: ('A' for Active; 'I' for Inactive)
REMARK    1  A    between atoms: C_1  and  C_2
REMARK    2  A    between atoms: C_6  and  C_7
REMARK    3  A    between atoms: C_8  and  C_9
REMARK                            x       y       z     vdW  Elec       q    Type
REMARK                         _______ _______ _______ _____ _____    ______ ____
ROOT
ATOM      1  C   UNL     1       4.081   7.201  17.364  0.00  0.00    +0.000 C 
ATOM      2  C   UNL     1       3.170   7.768  17.907  0.00  0.00    +0.000 C 
ENDROOT
BRANCH   1   8
ATOM      3  C   UNL     1       5.895   4.070  14.171  0.00  0.00    +0.000 C 
ATOM      4  C   UNL     1       6.067   5.103  15.241  0.00  0.00    +0.000 A 
ATOM      5  N   UNL     1       7.339   5.410  15.595  0.00  0.00    +0.000 NA
ATOM      6  N   UNL     1       7.560   6.338  16.556  0.00  0.00    +0.000 NA
ATOM      7  C   UNL     1       6.495   6.922  17.129  0.00  0.00    +0.000 A 
ATOM      8  C   UNL     1       5.218   6.584  16.744  0.00  0.00    +0.000 A 
ATOM      9  N   UNL     1       4.966   5.664  15.789  0.00  0.00    +0.000 NA
ENDBRANCH   1   8
BRANCH   2  10
ATOM     10  C   UNL     1       2.106   8.446  18.598  0.00  0.00    +0.000 A 
ATOM     11  C   UNL     1       1.823   8.149  19.935  0.00  0.00    +0.000 A 
ATOM     12  C   UNL     1       0.744   8.763  20.581  0.00  0.00    +0.000 A 
ATOM     13  C   UNL     1      -0.047   9.688  19.899  0.00  0.00    +0.000 A 
ATOM     14  C   UNL     1       0.250  10.008  18.574  0.00  0.00    +0.000 A 
ATOM     15  C   UNL     1       1.322   9.386  17.925  0.00  0.00    +0.000 A 
ENDBRANCH   2  10
TORSDOF 2
ENDMDL
MODEL 7
REMARK VINA RESULT:      -6.4      3.547      3.970
REMARK  Name = 
REMARK  3 active torsions:
REMARK  status: ('A' for Active; 'I' for Inactive)
REMARK    1  A    between atoms: C_1  and  C_2
REMARK    2  A    between atoms: C_6  and  C_7
REMARK    3  A    between atoms: C_8  and  C_9
REMARK                            x       y       z     vdW  Elec       q    Type
REMARK                         _______ _______ _______ _____ _____    ______ ____
ROOT
ATOM      1  C   UNL     1       4.415   6.694  17.327  0.00  0.00    +0.000 C 
ATOM      2  C   UNL     1       3.528   7.335  17.825  0.00  0.00    +0.000 C 
ENDROOT
BRANCH   1   8
ATOM      3  C   UNL     1       6.286   4.026  13.767  0.00  0.00    +0.000 C 
ATOM      4  C   UNL     1       6.369   4.643  15.129  0.00  0.00    +0.000 A 
ATOM      5  N   UNL     1       7.499   4.406  15.840  0.00  0.00    +0.000 NA
ATOM      6  N   UNL     1       7.633   4.937  17.079  0.00  0.00    +0.000 NA
ATOM      7  C   UNL     1       6.626   5.685  17.559  0.00  0.00    +0.000 A 
ATOM      8  C   UNL     1       5.494   5.903  16.808  0.00  0.00    +0.000 A 
ATOM      9  N   UNL     1       5.331   5.388  15.571  0.00  0.00    +0.000 NA
ENDBRANCH   1   8
BRANCH   2  10
ATOM     10  C   UNL     1       2.453   8.062  18.445  0.00  0.00    +0.000 A 
ATOM     11  C   UNL     1       1.776   9.067  17.744  0.00  0.00    +0.000 A 
ATOM     12  C   UNL     1       0.776   9.816  18.375  0.00  0.00    +0.000 A 
ATOM     13  C   UNL     1       0.437   9.554  19.702  0.00  0.00    +0.000 A 
ATOM     14  C   UNL     1       1.089   8.534  20.395  0.00  0.00    +0.000 A 
ATOM     15  C   UNL     1       2.096   7.792  19.768  0.00  0.00    +0.000 A 
ENDBRANCH   2  10
TORSDOF 2
ENDMDL
MODEL 8
REMARK VINA RESULT:      -6.4      2.754      6.961
REMARK  Name = 
REMARK  3 active torsions:
REMARK  status: ('A' for Active; 'I' for Inactive)
REMARK    1  A    between atoms: C_1  and  C_2
REMARK    2  A    between atoms: C_6  and  C_7
REMARK    3  A    between atoms: C_8  and  C_9
REMARK                            x       y       z     vdW  Elec       q    Type
REMARK                         _______ _______ _______ _____ _____    ______ ____
ROOT
ATOM      1  C   UNL     1       4.562   4.386  16.582  0.00  0.00    +0.000 C 
ATOM      2  C   UNL     1       5.191   4.375  15.557  0.00  0.00    +0.000 C 
ENDROOT
BRANCH   1   8
ATOM      3  C   UNL     1       0.827   2.554  19.028  0.00  0.00    +0.000 C 
ATOM      4  C   UNL     1       2.013   3.463  18.927  0.00  0.00    +0.000 A 
ATOM      5  N   UNL     1       2.291   4.227  20.013  0.00  0.00    +0.000 NA
ATOM      6  N   UNL     1       3.351   5.069  19.983  0.00  0.00    +0.000 NA
ATOM      7  C   UNL     1       4.091   5.116  18.863  0.00  0.00    +0.000 A 
ATOM      8  C   UNL     1       3.777   4.327  17.781  0.00  0.00    +0.000 A 
ATOM      9  N   UNL     1       2.728   3.478  17.781  0.00  0.00    +0.000 NA
ENDBRANCH   1   8
BRANCH   2  10
ATOM     10  C   UNL     1       5.959   4.317  14.342  0.00  0.00    +0.000 A 
ATOM     11  C   UNL     1       7.118   5.088  14.196  0.00  0.00    +0.000 A 
ATOM     12  C   UNL     1       7.823   5.078  12.986  0.00  0.00    +0.000 A 
ATOM     13  C   UNL     1       7.383   4.288  11.926  0.00  0.00    +0.000 A 
ATOM     14  C   UNL     1       6.245   3.496  12.077  0.00  0.00    +0.000 A 
ATOM     15  C   UNL     1       5.534   3.513  13.282  0.00  0.00    +0.000 A 
ENDBRANCH   2  10
TORSDOF 2
ENDMDL
MODEL 9
REMARK VINA RESULT:      -6.3      5.513      7.674
REMARK  Name = 
REMARK  3 active torsions:
REMARK  status: ('A' for Active; 'I' for Inactive)
REMARK    1  A    between atoms: C_1  and  C_2
REMARK    2  A    between atoms: C_6  and  C_7
REMARK    3  A    between atoms: C_8  and  C_9
REMARK                            x       y       z     vdW  Elec       q    Type
REMARK                         _______ _______ _______ _____ _____    ______ ____
ROOT
ATOM      1  C   UNL     1       8.584   9.248  18.301  0.00  0.00    +0.000 C 
ATOM      2  C   UNL     1       7.970   8.255  18.012  0.00  0.00    +0.000 C 
ENDROOT
BRANCH   1   8
ATOM      3  C   UNL     1      11.233  13.132  17.213  0.00  0.00    +0.000 C 
ATOM      4  C   UNL     1      10.543  12.248  18.206  0.00  0.00    +0.000 A 
ATOM      5  N   UNL     1      10.635  12.607  19.511  0.00  0.00    +0.000 NA
ATOM      6  N   UNL     1      10.033  11.848  20.457  0.00  0.00    +0.000 NA
ATOM      7  C   UNL     1       9.362  10.754  20.057  0.00  0.00    +0.000 A 
ATOM      8  C   UNL     1       9.291  10.422  18.725  0.00  0.00    +0.000 A 
ATOM      9  N   UNL     1       9.880  11.159  17.759  0.00  0.00    +0.000 NA
ENDBRANCH   1   8
BRANCH   2  10
ATOM     10  C   UNL     1       7.259   7.044  17.701  0.00  0.00    +0.000 A 
ATOM     11  C   UNL     1       7.735   5.806  18.147  0.00  0.00    +0.000 A 
ATOM     12  C   UNL     1       7.076   4.625  17.784  0.00  0.00    +0.000 A 
ATOM     13  C   UNL     1       5.932   4.677  16.989  0.00  0.00    +0.000 A 
ATOM     14  C   UNL     1       5.438   5.911  16.567  0.00  0.00    +0.000 A 
ATOM     15  C   UNL     1       6.102   7.091  16.920  0.00  0.00    +0.000 A 
ENDBRANCH   2  10
TORSDOF 2
ENDMDL
