MODEL 1
REMARK VINA RESULT:      -8.7      0.000      0.000
REMARK  Name = 
REMARK  6 active torsions:
REMARK  status: ('A' for Active; 'I' for Inactive)
REMARK    1  A    between atoms: C_1  and  C_2
REMARK    2  A    between atoms: C_4  and  C_5
REMARK    3  A    between atoms: N_6  and  C_7
REMARK    4  A    between atoms: C_16  and  N_17
REMARK    5  A    between atoms: N_20  and  C_21
REMARK    6  A    between atoms: C_25  and  C_26
REMARK                            x       y       z     vdW  Elec       q    Type
REMARK                         _______ _______ _______ _____ _____    ______ ____
ROOT
ATOM      1  C   UNL     1      -0.053  13.074  21.784  0.00  0.00    +0.000 A 
ATOM      2  N   UNL     1      -0.558  14.066  22.577  0.00  0.00    +0.000 NA
ATOM      3  C   UNL     1      -1.692  13.806  23.236  0.00  0.00    +0.000 A 
ATOM      4  C   UNL     1      -2.265  14.806  24.008  0.00  0.00    +0.000 A 
ATOM      5  C   UNL     1      -3.455  14.597  24.700  0.00  0.00    +0.000 A 
ATOM      6  C   UNL     1      -4.072  13.352  24.623  0.00  0.00    +0.000 A 
ATOM      7  C   UNL     1      -3.493  12.339  23.853  0.00  0.00    +0.000 A 
ATOM      8  C   UNL     1      -2.312  12.548  23.145  0.00  0.00    +0.000 A 
ATOM      9  N   UNL     1      -1.778  11.558  22.402  0.00  0.00    +0.000 NA
ATOM     10  C   UNL     1      -0.619  11.786  21.721  0.00  0.00    +0.000 A 
ENDROOT
BRANCH   1  16
ATOM     11  C   UNL     1       4.438  14.390  20.644  0.00  0.00    +0.000 C 
ATOM     12  C   UNL     1       3.028  14.007  20.396  0.00  0.00    +0.000 A 
ATOM     13  C   UNL     1       2.272  14.116  19.218  0.00  0.00    +0.000 A 
ATOM     14  C   UNL     1       0.987  13.746  19.567  0.00  0.00    +0.000 A 
ATOM     15  C   UNL     1      -0.246  13.782  18.737  0.00  0.00    +0.000 C 
ATOM     16  N   UNL     1       1.023  13.462  20.931  0.00  0.00    +0.000 N 
ATOM     17  N   UNL     1       2.298  13.527  21.400  0.00  0.00    +0.000 NA
ENDBRANCH   1  16
BRANCH  10  18
ATOM     18  N   UNL     1      -0.056  10.641  21.204  0.00  0.00    +0.000 N 
ATOM     19  C   UNL     1      -0.134  10.242  19.794  0.00  0.00    +0.000 C 
ATOM     20  C   UNL     1       1.144   9.498  19.369  0.00  0.00    +0.000 C 
ATOM     21  N   UNL     1       1.383   8.359  20.275  0.00  0.00    +0.000 N 
ATOM     22  C   UNL     1       1.440   8.739  21.710  0.00  0.00    +0.000 C 
ATOM     23  C   UNL     1       0.165   9.515  22.124  0.00  0.00    +0.000 C 
BRANCH  21  24
ATOM     24  C   UNL     1       1.947   7.185  19.818  0.00  0.00    +0.000 A 
ATOM     25  C   UNL     1       2.742   7.168  18.664  0.00  0.00    +0.000 A 
ATOM     26  C   UNL     1       3.381   6.007  18.220  0.00  0.00    +0.000 A 
ATOM     27  C   UNL     1       3.241   4.820  18.929  0.00  0.00    +0.000 A 
ATOM     28  C   UNL     1       2.457   4.789  20.084  0.00  0.00    +0.000 A 
ATOM     29  C   UNL     1       1.825   5.971  20.512  0.00  0.00    +0.000 A 
BRANCH  28  30
ATOM     30  C   UNL     1       2.279   3.525  20.884  0.00  0.00    +0.000 C 
ATOM     31  F   UNL     1       1.089   2.900  20.663  0.00  0.00    +0.000 F 
ATOM     32  F   UNL     1       3.241   2.598  20.617  0.00  0.00    +0.000 F 
ATOM     33  F   UNL     1       2.339   3.745  22.228  0.00  0.00    +0.000 F 
ENDBRANCH  28  30
ENDBRANCH  21  24
ENDBRANCH  10  18
TORSDOF 4
ENDMDL
MODEL 2
REMARK VINA RESULT:      -8.6      2.727      4.833
REMARK  Name = 
REMARK  6 active torsions:
REMARK  status: ('A' for Active; 'I' for Inactive)
REMARK    1  A    between atoms: C_1  and  C_2
REMARK    2  A    between atoms: C_4  and  C_5
REMARK    3  A    between atoms: N_6  and  C_7
REMARK    4  A    between atoms: C_16  and  N_17
REMARK    5  A    between atoms: N_20  and  C_21
REMARK    6  A    between atoms: C_25  and  C_26
REMARK                            x       y       z     vdW  Elec       q    Type
REMARK                         _______ _______ _______ _____ _____    ______ ____
ROOT
ATOM      1  C   UNL     1      -0.206  12.304  18.578  0.00  0.00    +0.000 A 
ATOM      2  N   UNL     1      -0.200  13.654  18.362  0.00  0.00    +0.000 NA
ATOM      3  C   UNL     1       0.796  14.357  18.909  0.00  0.00    +0.000 A 
ATOM      4  C   UNL     1       0.806  15.737  18.757  0.00  0.00    +0.000 A 
ATOM      5  C   UNL     1       1.809  16.521  19.322  0.00  0.00    +0.000 A 
ATOM      6  C   UNL     1       2.827  15.903  20.040  0.00  0.00    +0.000 A 
ATOM      7  C   UNL     1       2.825  14.514  20.188  0.00  0.00    +0.000 A 
ATOM      8  C   UNL     1       1.816  13.725  19.640  0.00  0.00    +0.000 A 
ATOM      9  N   UNL     1       1.831  12.387  19.804  0.00  0.00    +0.000 NA
ATOM     10  C   UNL     1       0.833  11.637  19.255  0.00  0.00    +0.000 A 
ENDROOT
BRANCH   1  16
ATOM     11  C   UNL     1      -3.042   9.679  15.703  0.00  0.00    +0.000 C 
ATOM     12  C   UNL     1      -2.659  10.420  16.927  0.00  0.00    +0.000 A 
ATOM     13  C   UNL     1      -3.464  10.848  17.995  0.00  0.00    +0.000 A 
ATOM     14  C   UNL     1      -2.637  11.608  18.801  0.00  0.00    +0.000 A 
ATOM     15  C   UNL     1      -2.992  12.396  20.011  0.00  0.00    +0.000 C 
ATOM     16  N   UNL     1      -1.393  11.625  18.173  0.00  0.00    +0.000 N 
ATOM     17  N   UNL     1      -1.396  10.810  17.084  0.00  0.00    +0.000 NA
ENDBRANCH   1  16
BRANCH  10  18
ATOM     18  N   UNL     1       1.089  10.284  19.285  0.00  0.00    +0.000 N 
ATOM     19  C   UNL     1       1.411   9.476  18.104  0.00  0.00    +0.000 C 
ATOM     20  C   UNL     1       2.387   8.343  18.469  0.00  0.00    +0.000 C 
ATOM     21  N   UNL     1       1.831   7.545  19.578  0.00  0.00    +0.000 N 
ATOM     22  C   UNL     1       1.475   8.349  20.775  0.00  0.00    +0.000 C 
ATOM     23  C   UNL     1       0.518   9.505  20.394  0.00  0.00    +0.000 C 
BRANCH  21  24
ATOM     24  C   UNL     1       2.054   6.185  19.665  0.00  0.00    +0.000 A 
ATOM     25  C   UNL     1       1.695   5.467  20.814  0.00  0.00    +0.000 A 
ATOM     26  C   UNL     1       1.845   4.080  20.900  0.00  0.00    +0.000 A 
ATOM     27  C   UNL     1       2.362   3.368  19.824  0.00  0.00    +0.000 A 
ATOM     28  C   UNL     1       2.735   4.041  18.659  0.00  0.00    +0.000 A 
ATOM     29  C   UNL     1       2.572   5.438  18.596  0.00  0.00    +0.000 A 
BRANCH  28  30
ATOM     30  C   UNL     1       3.298   3.309  17.469  0.00  0.00    +0.000 C 
ATOM     31  F   UNL     1       4.459   3.842  16.998  0.00  0.00    +0.000 F 
ATOM     32  F   UNL     1       3.574   2.002  17.742  0.00  0.00    +0.000 F 
ATOM     33  F   UNL     1       2.439   3.293  16.412  0.00  0.00    +0.000 F 
ENDBRANCH  28  30
ENDBRANCH  21  24
ENDBRANCH  10  18
TORSDOF 4
ENDMDL
MODEL 3
REMARK VINA RESULT:      -8.5      2.461      4.437
REMARK  Name = 
REMARK  6 active torsions:
REMARK  status: ('A' for Active; 'I' for Inactive)
REMARK    1  A    between atoms: C_1  and  C_2
REMARK    2  A    between atoms: C_4  and  C_5
REMARK    3  A    between atoms: N_6  and  C_7
REMARK    4  A    between atoms: C_16  and  N_17
REMARK    5  A    between atoms: N_20  and  C_21
REMARK    6  A    between atoms: C_25  and  C_26
REMARK                            x       y       z     vdW  Elec       q    Type
REMARK                         _______ _______ _______ _____ _____    ______ ____
ROOT
ATOM      1  C   UNL     1      -0.262  12.377  18.619  0.00  0.00    +0.000 A 
ATOM      2  N   UNL     1      -0.329  13.741  18.542  0.00  0.00    +0.000 NA
ATOM      3  C   UNL     1       0.654  14.436  19.125  0.00  0.00    +0.000 A 
ATOM      4  C   UNL     1       0.593  15.823  19.115  0.00  0.00    +0.000 A 
ATOM      5  C   UNL     1       1.578  16.596  19.723  0.00  0.00    +0.000 A 
ATOM      6  C   UNL     1       2.651  15.962  20.341  0.00  0.00    +0.000 A 
ATOM      7  C   UNL     1       2.720  14.566  20.345  0.00  0.00    +0.000 A 
ATOM      8  C   UNL     1       1.729  13.786  19.753  0.00  0.00    +0.000 A 
ATOM      9  N   UNL     1       1.814  12.441  19.779  0.00  0.00    +0.000 NA
ATOM     10  C   UNL     1       0.833  11.699  19.190  0.00  0.00    +0.000 A 
ENDROOT
BRANCH   1  16
ATOM     11  C   UNL     1      -3.010   9.756  15.658  0.00  0.00    +0.000 C 
ATOM     12  C   UNL     1      -2.657  10.479  16.901  0.00  0.00    +0.000 A 
ATOM     13  C   UNL     1      -3.482  10.868  17.968  0.00  0.00    +0.000 A 
ATOM     14  C   UNL     1      -2.681  11.627  18.799  0.00  0.00    +0.000 A 
ATOM     15  C   UNL     1      -3.065  12.383  20.021  0.00  0.00    +0.000 C 
ATOM     16  N   UNL     1      -1.430  11.683  18.186  0.00  0.00    +0.000 N 
ATOM     17  N   UNL     1      -1.404  10.891  17.081  0.00  0.00    +0.000 NA
ENDBRANCH   1  16
BRANCH  10  18
ATOM     18  N   UNL     1       1.153  10.366  19.072  0.00  0.00    +0.000 N 
ATOM     19  C   UNL     1       1.528   9.711  17.814  0.00  0.00    +0.000 C 
ATOM     20  C   UNL     1       2.553   8.591  18.067  0.00  0.00    +0.000 C 
ATOM     21  N   UNL     1       2.023   7.648  19.070  0.00  0.00    +0.000 N 
ATOM     22  C   UNL     1       1.614   8.295  20.342  0.00  0.00    +0.000 C 
ATOM     23  C   UNL     1       0.607   9.441  20.077  0.00  0.00    +0.000 C 
BRANCH  21  24
ATOM     24  C   UNL     1       2.310   6.299  19.008  0.00  0.00    +0.000 A 
ATOM     25  C   UNL     1       2.865   5.733  17.852  0.00  0.00    +0.000 A 
ATOM     26  C   UNL     1       3.230   4.385  17.787  0.00  0.00    +0.000 A 
ATOM     27  C   UNL     1       3.050   3.561  18.892  0.00  0.00    +0.000 A 
ATOM     28  C   UNL     1       2.499   4.081  20.065  0.00  0.00    +0.000 A 
ATOM     29  C   UNL     1       2.141   5.442  20.106  0.00  0.00    +0.000 A 
BRANCH  28  30
ATOM     30  C   UNL     1       2.287   3.225  21.286  0.00  0.00    +0.000 C 
ATOM     31  F   UNL     1       1.111   2.538  21.276  0.00  0.00    +0.000 F 
ATOM     32  F   UNL     1       3.264   2.288  21.443  0.00  0.00    +0.000 F 
ATOM     33  F   UNL     1       2.283   3.952  22.439  0.00  0.00    +0.000 F 
ENDBRANCH  28  30
ENDBRANCH  21  24
ENDBRANCH  10  18
TORSDOF 4
ENDMDL
MODEL 4
REMARK VINA RESULT:      -8.3      1.703      2.181
REMARK  Name = 
REMARK  6 active torsions:
REMARK  status: ('A' for Active; 'I' for Inactive)
REMARK    1  A    between atoms: C_1  and  C_2
REMARK    2  A    between atoms: C_4  and  C_5
REMARK    3  A    between atoms: N_6  and  C_7
REMARK    4  A    between atoms: C_16  and  N_17
REMARK    5  A    between atoms: N_20  and  C_21
REMARK    6  A    between atoms: C_25  and  C_26
REMARK                            x       y       z     vdW  Elec       q    Type
REMARK                         _______ _______ _______ _____ _____    ______ ____
ROOT
ATOM      1  C   UNL     1      -0.087  13.033  21.735  0.00  0.00    +0.000 A 
ATOM      2  N   UNL     1      -0.614  14.039  22.497  0.00  0.00    +0.000 NA
ATOM      3  C   UNL     1      -1.734  13.771  23.175  0.00  0.00    +0.000 A 
ATOM      4  C   UNL     1      -2.329  14.782  23.917  0.00  0.00    +0.000 A 
ATOM      5  C   UNL     1      -3.506  14.564  24.627  0.00  0.00    +0.000 A 
ATOM      6  C   UNL     1      -4.089  13.301  24.600  0.00  0.00    +0.000 A 
ATOM      7  C   UNL     1      -3.489  12.278  23.861  0.00  0.00    +0.000 A 
ATOM      8  C   UNL     1      -2.320  12.494  23.135  0.00  0.00    +0.000 A 
ATOM      9  N   UNL     1      -1.765  11.493  22.423  0.00  0.00    +0.000 NA
ATOM     10  C   UNL     1      -0.619  11.729  21.722  0.00  0.00    +0.000 A 
ENDROOT
BRANCH   1  16
ATOM     11  C   UNL     1       4.359  14.418  20.505  0.00  0.00    +0.000 C 
ATOM     12  C   UNL     1       2.956  13.995  20.284  0.00  0.00    +0.000 A 
ATOM     13  C   UNL     1       2.184  14.051  19.113  0.00  0.00    +0.000 A 
ATOM     14  C   UNL     1       0.913  13.662  19.487  0.00  0.00    +0.000 A 
ATOM     15  C   UNL     1      -0.330  13.645  18.671  0.00  0.00    +0.000 C 
ATOM     16  N   UNL     1       0.969  13.420  20.859  0.00  0.00    +0.000 N 
ATOM     17  N   UNL     1       2.248  13.528  21.311  0.00  0.00    +0.000 NA
ENDBRANCH   1  16
BRANCH  10  18
ATOM     18  N   UNL     1      -0.028  10.582  21.241  0.00  0.00    +0.000 N 
ATOM     19  C   UNL     1      -0.093  10.140  19.844  0.00  0.00    +0.000 C 
ATOM     20  C   UNL     1       1.203   9.413  19.443  0.00  0.00    +0.000 C 
ATOM     21  N   UNL     1       1.465   8.307  20.384  0.00  0.00    +0.000 N 
ATOM     22  C   UNL     1       1.509   8.730  21.807  0.00  0.00    +0.000 C 
ATOM     23  C   UNL     1       0.216   9.489  22.194  0.00  0.00    +0.000 C 
BRANCH  21  24
ATOM     24  C   UNL     1       2.057   7.132  19.963  0.00  0.00    +0.000 A 
ATOM     25  C   UNL     1       1.733   5.908  20.562  0.00  0.00    +0.000 A 
ATOM     26  C   UNL     1       2.264   4.697  20.108  0.00  0.00    +0.000 A 
ATOM     27  C   UNL     1       3.141   4.681  19.030  0.00  0.00    +0.000 A 
ATOM     28  C   UNL     1       3.494   5.878  18.403  0.00  0.00    +0.000 A 
ATOM     29  C   UNL     1       2.944   7.084  18.877  0.00  0.00    +0.000 A 
BRANCH  28  30
ATOM     30  C   UNL     1       4.439   5.907  17.232  0.00  0.00    +0.000 C 
ATOM     31  F   UNL     1       4.271   6.987  16.419  0.00  0.00    +0.000 F 
ATOM     32  F   UNL     1       5.747   5.933  17.616  0.00  0.00    +0.000 F 
ATOM     33  F   UNL     1       4.310   4.813  16.429  0.00  0.00    +0.000 F 
ENDBRANCH  28  30
ENDBRANCH  21  24
ENDBRANCH  10  18
TORSDOF 4
ENDMDL
MODEL 5
REMARK VINA RESULT:      -8.2      5.211     10.423
REMARK  Name = 
REMARK  6 active torsions:
REMARK  status: ('A' for Active; 'I' for Inactive)
REMARK    1  A    between atoms: C_1  and  C_2
REMARK    2  A    between atoms: C_4  and  C_5
REMARK    3  A    between atoms: N_6  and  C_7
REMARK    4  A    between atoms: C_16  and  N_17
REMARK    5  A    between atoms: N_20  and  C_21
REMARK    6  A    between atoms: C_25  and  C_26
REMARK                            x       y       z     vdW  Elec       q    Type
REMARK                         _______ _______ _______ _____ _____    ______ ____
ROOT
ATOM      1  C   UNL     1       6.589   6.022  16.076  0.00  0.00    +0.000 A 
ATOM      2  N   UNL     1       7.365   5.650  15.013  0.00  0.00    +0.000 NA
ATOM      3  C   UNL     1       6.813   4.837  14.107  0.00  0.00    +0.000 A 
ATOM      4  C   UNL     1       7.586   4.395  13.042  0.00  0.00    +0.000 A 
ATOM      5  C   UNL     1       7.069   3.531  12.080  0.00  0.00    +0.000 A 
ATOM      6  C   UNL     1       5.745   3.117  12.185  0.00  0.00    +0.000 A 
ATOM      7  C   UNL     1       4.961   3.567  13.251  0.00  0.00    +0.000 A 
ATOM      8  C   UNL     1       5.477   4.417  14.226  0.00  0.00    +0.000 A 
ATOM      9  N   UNL     1       4.704   4.830  15.249  0.00  0.00    +0.000 NA
ATOM     10  C   UNL     1       5.232   5.665  16.190  0.00  0.00    +0.000 A 
ENDROOT
BRANCH   1  16
ATOM     11  C   UNL     1       8.730   9.719  18.299  0.00  0.00    +0.000 C 
ATOM     12  C   UNL     1       8.195   8.346  18.152  0.00  0.00    +0.000 A 
ATOM     13  C   UNL     1       8.400   7.221  18.967  0.00  0.00    +0.000 A 
ATOM     14  C   UNL     1       7.790   6.170  18.308  0.00  0.00    +0.000 A 
ATOM     15  C   UNL     1       7.792   4.726  18.664  0.00  0.00    +0.000 C 
ATOM     16  N   UNL     1       7.276   6.700  17.126  0.00  0.00    +0.000 N 
ATOM     17  N   UNL     1       7.442   8.050  17.095  0.00  0.00    +0.000 NA
ENDBRANCH   1  16
BRANCH  10  18
ATOM     18  N   UNL     1       4.286   6.200  17.035  0.00  0.00    +0.000 N 
ATOM     19  C   UNL     1       3.502   5.423  18.001  0.00  0.00    +0.000 C 
ATOM     20  C   UNL     1       3.205   6.259  19.259  0.00  0.00    +0.000 C 
ATOM     21  N   UNL     1       2.551   7.524  18.873  0.00  0.00    +0.000 N 
ATOM     22  C   UNL     1       3.317   8.314  17.876  0.00  0.00    +0.000 C 
ATOM     23  C   UNL     1       3.640   7.457  16.627  0.00  0.00    +0.000 C 
BRANCH  21  24
ATOM     24  C   UNL     1       1.597   8.112  19.680  0.00  0.00    +0.000 A 
ATOM     25  C   UNL     1       1.401   7.680  20.998  0.00  0.00    +0.000 A 
ATOM     26  C   UNL     1       0.492   8.304  21.857  0.00  0.00    +0.000 A 
ATOM     27  C   UNL     1      -0.251   9.391  21.413  0.00  0.00    +0.000 A 
ATOM     28  C   UNL     1      -0.091   9.856  20.106  0.00  0.00    +0.000 A 
ATOM     29  C   UNL     1       0.832   9.212  19.261  0.00  0.00    +0.000 A 
BRANCH  28  30
ATOM     30  C   UNL     1      -0.875  11.031  19.583  0.00  0.00    +0.000 C 
ATOM     31  F   UNL     1      -0.132  11.900  18.843  0.00  0.00    +0.000 F 
ATOM     32  F   UNL     1      -1.911  10.653  18.782  0.00  0.00    +0.000 F 
ATOM     33  F   UNL     1      -1.431  11.773  20.582  0.00  0.00    +0.000 F 
ENDBRANCH  28  30
ENDBRANCH  21  24
ENDBRANCH  10  18
TORSDOF 4
ENDMDL
MODEL 6
REMARK VINA RESULT:      -8.2      2.331      4.460
REMARK  Name = 
REMARK  6 active torsions:
REMARK  status: ('A' for Active; 'I' for Inactive)
REMARK    1  A    between atoms: C_1  and  C_2
REMARK    2  A    between atoms: C_4  and  C_5
REMARK    3  A    between atoms: N_6  and  C_7
REMARK    4  A    between atoms: C_16  and  N_17
REMARK    5  A    between atoms: N_20  and  C_21
REMARK    6  A    between atoms: C_25  and  C_26
REMARK                            x       y       z     vdW  Elec       q    Type
REMARK                         _______ _______ _______ _____ _____    ______ ____
ROOT
ATOM      1  C   UNL     1      -0.399  13.044  18.729  0.00  0.00    +0.000 A 
ATOM      2  N   UNL     1      -0.588  14.388  18.563  0.00  0.00    +0.000 NA
ATOM      3  C   UNL     1       0.317  15.207  19.108  0.00  0.00    +0.000 A 
ATOM      4  C   UNL     1       0.130  16.578  19.007  0.00  0.00    +0.000 A 
ATOM      5  C   UNL     1       1.030  17.477  19.573  0.00  0.00    +0.000 A 
ATOM      6  C   UNL     1       2.147  16.985  20.241  0.00  0.00    +0.000 A 
ATOM      7  C   UNL     1       2.343  15.604  20.338  0.00  0.00    +0.000 A 
ATOM      8  C   UNL     1       1.437  14.700  19.789  0.00  0.00    +0.000 A 
ATOM      9  N   UNL     1       1.644  13.373  19.903  0.00  0.00    +0.000 NA
ATOM     10  C   UNL     1       0.744  12.508  19.355  0.00  0.00    +0.000 A 
ENDROOT
BRANCH   1  16
ATOM     11  C   UNL     1      -2.947  10.173  15.822  0.00  0.00    +0.000 C 
ATOM     12  C   UNL     1      -2.623  10.903  17.069  0.00  0.00    +0.000 A 
ATOM     13  C   UNL     1      -3.434  11.157  18.187  0.00  0.00    +0.000 A 
ATOM     14  C   UNL     1      -2.692  11.990  19.002  0.00  0.00    +0.000 A 
ATOM     15  C   UNL     1      -3.104  12.659  20.264  0.00  0.00    +0.000 C 
ATOM     16  N   UNL     1      -1.492  12.219  18.332  0.00  0.00    +0.000 N 
ATOM     17  N   UNL     1      -1.424  11.466  17.201  0.00  0.00    +0.000 NA
ENDBRANCH   1  16
BRANCH  10  18
ATOM     18  N   UNL     1       1.186  11.205  19.328  0.00  0.00    +0.000 N 
ATOM     19  C   UNL     1       1.285  10.339  20.508  0.00  0.00    +0.000 C 
ATOM     20  C   UNL     1       0.998   8.874  20.133  0.00  0.00    +0.000 C 
ATOM     21  N   UNL     1       1.893   8.456  19.037  0.00  0.00    +0.000 N 
ATOM     22  C   UNL     1       1.826   9.335  17.842  0.00  0.00    +0.000 C 
ATOM     23  C   UNL     1       2.085  10.811  18.232  0.00  0.00    +0.000 C 
BRANCH  21  24
ATOM     24  C   UNL     1       2.369   7.162  18.954  0.00  0.00    +0.000 A 
ATOM     25  C   UNL     1       3.328   6.808  17.996  0.00  0.00    +0.000 A 
ATOM     26  C   UNL     1       3.878   5.524  17.936  0.00  0.00    +0.000 A 
ATOM     27  C   UNL     1       3.478   4.552  18.846  0.00  0.00    +0.000 A 
ATOM     28  C   UNL     1       2.523   4.859  19.817  0.00  0.00    +0.000 A 
ATOM     29  C   UNL     1       1.986   6.160  19.858  0.00  0.00    +0.000 A 
BRANCH  28  30
ATOM     30  C   UNL     1       2.061   3.838  20.823  0.00  0.00    +0.000 C 
ATOM     31  F   UNL     1       2.559   2.590  20.604  0.00  0.00    +0.000 F 
ATOM     32  F   UNL     1       2.419   4.162  22.098  0.00  0.00    +0.000 F 
ATOM     33  F   UNL     1       0.706   3.701  20.843  0.00  0.00    +0.000 F 
ENDBRANCH  28  30
ENDBRANCH  21  24
ENDBRANCH  10  18
TORSDOF 4
ENDMDL
MODEL 7
REMARK VINA RESULT:      -8.1      2.716      4.846
REMARK  Name = 
REMARK  6 active torsions:
REMARK  status: ('A' for Active; 'I' for Inactive)
REMARK    1  A    between atoms: C_1  and  C_2
REMARK    2  A    between atoms: C_4  and  C_5
REMARK    3  A    between atoms: N_6  and  C_7
REMARK    4  A    between atoms: C_16  and  N_17
REMARK    5  A    between atoms: N_20  and  C_21
REMARK    6  A    between atoms: C_25  and  C_26
REMARK                            x       y       z     vdW  Elec       q    Type
REMARK                         _______ _______ _______ _____ _____    ______ ____
ROOT
ATOM      1  C   UNL     1      -0.452  12.957  18.682  0.00  0.00    +0.000 A 
ATOM      2  N   UNL     1      -0.608  14.286  18.400  0.00  0.00    +0.000 NA
ATOM      3  C   UNL     1       0.297  15.130  18.906  0.00  0.00    +0.000 A 
ATOM      4  C   UNL     1       0.143  16.492  18.687  0.00  0.00    +0.000 A 
ATOM      5  C   UNL     1       1.043  17.417  19.207  0.00  0.00    +0.000 A 
ATOM      6  C   UNL     1       2.127  16.961  19.951  0.00  0.00    +0.000 A 
ATOM      7  C   UNL     1       2.290  15.590  20.168  0.00  0.00    +0.000 A 
ATOM      8  C   UNL     1       1.384  14.661  19.664  0.00  0.00    +0.000 A 
ATOM      9  N   UNL     1       1.558  13.344  19.894  0.00  0.00    +0.000 NA
ATOM     10  C   UNL     1       0.658  12.454  19.388  0.00  0.00    +0.000 A 
ENDROOT
BRANCH   1  16
ATOM     11  C   UNL     1      -3.020   9.996  15.883  0.00  0.00    +0.000 C 
ATOM     12  C   UNL     1      -2.689  10.767  17.104  0.00  0.00    +0.000 A 
ATOM     13  C   UNL     1      -3.495  11.062  18.215  0.00  0.00    +0.000 A 
ATOM     14  C   UNL     1      -2.748  11.920  18.999  0.00  0.00    +0.000 A 
ATOM     15  C   UNL     1      -3.153  12.633  20.239  0.00  0.00    +0.000 C 
ATOM     16  N   UNL     1      -1.550  12.123  18.317  0.00  0.00    +0.000 N 
ATOM     17  N   UNL     1      -1.488  11.331  17.212  0.00  0.00    +0.000 NA
ENDBRANCH   1  16
BRANCH  10  18
ATOM     18  N   UNL     1       1.073  11.145  19.483  0.00  0.00    +0.000 N 
ATOM     19  C   UNL     1       1.192  10.402  20.743  0.00  0.00    +0.000 C 
ATOM     20  C   UNL     1       0.864   8.914  20.530  0.00  0.00    +0.000 C 
ATOM     21  N   UNL     1       1.715   8.365  19.458  0.00  0.00    +0.000 N 
ATOM     22  C   UNL     1       1.628   9.118  18.181  0.00  0.00    +0.000 C 
ATOM     23  C   UNL     1       1.929  10.620  18.407  0.00  0.00    +0.000 C 
BRANCH  21  24
ATOM     24  C   UNL     1       2.162   7.058  19.495  0.00  0.00    +0.000 A 
ATOM     25  C   UNL     1       1.798   6.202  20.543  0.00  0.00    +0.000 A 
ATOM     26  C   UNL     1       2.179   4.857  20.568  0.00  0.00    +0.000 A 
ATOM     27  C   UNL     1       2.940   4.330  19.532  0.00  0.00    +0.000 A 
ATOM     28  C   UNL     1       3.328   5.146  18.467  0.00  0.00    +0.000 A 
ATOM     29  C   UNL     1       2.930   6.497  18.464  0.00  0.00    +0.000 A 
BRANCH  28  30
ATOM     30  C   UNL     1       4.151   4.616  17.324  0.00  0.00    +0.000 C 
ATOM     31  F   UNL     1       3.549   3.607  16.635  0.00  0.00    +0.000 F 
ATOM     32  F   UNL     1       4.440   5.575  16.399  0.00  0.00    +0.000 F 
ATOM     33  F   UNL     1       5.354   4.122  17.732  0.00  0.00    +0.000 F 
ENDBRANCH  28  30
ENDBRANCH  21  24
ENDBRANCH  10  18
TORSDOF 4
ENDMDL
MODEL 8
REMARK VINA RESULT:      -8.1      0.771      1.182
REMARK  Name = 
REMARK  6 active torsions:
REMARK  status: ('A' for Active; 'I' for Inactive)
REMARK    1  A    between atoms: C_1  and  C_2
REMARK    2  A    between atoms: C_4  and  C_5
REMARK    3  A    between atoms: N_6  and  C_7
REMARK    4  A    between atoms: C_16  and  N_17
REMARK    5  A    between atoms: N_20  and  C_21
REMARK    6  A    between atoms: C_25  and  C_26
REMARK                            x       y       z     vdW  Elec       q    Type
REMARK                         _______ _______ _______ _____ _____    ______ ____
ROOT
ATOM      1  C   UNL     1       0.117  13.283  21.818  0.00  0.00    +0.000 A 
ATOM      2  N   UNL     1      -0.513  14.181  22.634  0.00  0.00    +0.000 NA
ATOM      3  C   UNL     1      -1.645  13.784  23.224  0.00  0.00    +0.000 A 
ATOM      4  C   UNL     1      -2.341  14.686  24.017  0.00  0.00    +0.000 A 
ATOM      5  C   UNL     1      -3.536  14.332  24.639  0.00  0.00    +0.000 A 
ATOM      6  C   UNL     1      -4.031  13.043  24.470  0.00  0.00    +0.000 A 
ATOM      7  C   UNL     1      -3.328  12.130  23.679  0.00  0.00    +0.000 A 
ATOM      8  C   UNL     1      -2.142  12.483  23.040  0.00  0.00    +0.000 A 
ATOM      9  N   UNL     1      -1.487  11.586  22.275  0.00  0.00    +0.000 NA
ATOM     10  C   UNL     1      -0.325  11.955  21.663  0.00  0.00    +0.000 A 
ENDROOT
BRANCH   1  16
ATOM     11  C   UNL     1       4.629  14.668  20.859  0.00  0.00    +0.000 C 
ATOM     12  C   UNL     1       3.201  14.394  20.575  0.00  0.00    +0.000 A 
ATOM     13  C   UNL     1       2.424  14.781  19.471  0.00  0.00    +0.000 A 
ATOM     14  C   UNL     1       1.134  14.387  19.770  0.00  0.00    +0.000 A 
ATOM     15  C   UNL     1      -0.115  14.643  19.004  0.00  0.00    +0.000 C 
ATOM     16  N   UNL     1       1.188  13.812  21.038  0.00  0.00    +0.000 N 
ATOM     17  N   UNL     1       2.474  13.731  21.472  0.00  0.00    +0.000 NA
ENDBRANCH   1  16
BRANCH  10  18
ATOM     18  N   UNL     1       0.363  10.895  21.117  0.00  0.00    +0.000 N 
ATOM     19  C   UNL     1       1.149   9.929  21.893  0.00  0.00    +0.000 C 
ATOM     20  C   UNL     1       1.091   8.535  21.244  0.00  0.00    +0.000 C 
ATOM     21  N   UNL     1       1.518   8.622  19.835  0.00  0.00    +0.000 N 
ATOM     22  C   UNL     1       0.751   9.613  19.038  0.00  0.00    +0.000 C 
ATOM     23  C   UNL     1       0.787  11.007  19.713  0.00  0.00    +0.000 C 
BRANCH  21  24
ATOM     24  C   UNL     1       2.209   7.591  19.230  0.00  0.00    +0.000 A 
ATOM     25  C   UNL     1       2.955   7.811  18.063  0.00  0.00    +0.000 A 
ATOM     26  C   UNL     1       3.720   6.802  17.471  0.00  0.00    +0.000 A 
ATOM     27  C   UNL     1       3.760   5.534  18.040  0.00  0.00    +0.000 A 
ATOM     28  C   UNL     1       3.032   5.269  19.201  0.00  0.00    +0.000 A 
ATOM     29  C   UNL     1       2.271   6.302  19.780  0.00  0.00    +0.000 A 
BRANCH  28  30
ATOM     30  C   UNL     1       3.048   3.911  19.851  0.00  0.00    +0.000 C 
ATOM     31  F   UNL     1       2.208   3.013  19.265  0.00  0.00    +0.000 F 
ATOM     32  F   UNL     1       4.283   3.334  19.826  0.00  0.00    +0.000 F 
ATOM     33  F   UNL     1       2.688   3.956  21.164  0.00  0.00    +0.000 F 
ENDBRANCH  28  30
ENDBRANCH  21  24
ENDBRANCH  10  18
TORSDOF 4
ENDMDL
MODEL 9
REMARK VINA RESULT:      -7.8      2.210      2.812
REMARK  Name = 
REMARK  6 active torsions:
REMARK  status: ('A' for Active; 'I' for Inactive)
REMARK    1  A    between atoms: C_1  and  C_2
REMARK    2  A    between atoms: C_4  and  C_5
REMARK    3  A    between atoms: N_6  and  C_7
REMARK    4  A    between atoms: C_16  and  N_17
REMARK    5  A    between atoms: N_20  and  C_21
REMARK    6  A    between atoms: C_25  and  C_26
REMARK                            x       y       z     vdW  Elec       q    Type
REMARK                         _______ _______ _______ _____ _____    ______ ____
ROOT
ATOM      1  C   UNL     1       0.323  13.024  21.496  0.00  0.00    +0.000 A 
ATOM      2  N   UNL     1      -0.287  13.958  22.286  0.00  0.00    +0.000 NA
ATOM      3  C   UNL     1      -1.391  13.581  22.940  0.00  0.00    +0.000 A 
ATOM      4  C   UNL     1      -2.069  14.516  23.709  0.00  0.00    +0.000 A 
ATOM      5  C   UNL     1      -3.233  14.183  24.395  0.00  0.00    +0.000 A 
ATOM      6  C   UNL     1      -3.717  12.881  24.315  0.00  0.00    +0.000 A 
ATOM      7  C   UNL     1      -3.033  11.935  23.548  0.00  0.00    +0.000 A 
ATOM      8  C   UNL     1      -1.876  12.266  22.846  0.00  0.00    +0.000 A 
ATOM      9  N   UNL     1      -1.239  11.337  22.105  0.00  0.00    +0.000 NA
ATOM     10  C   UNL     1      -0.107  11.685  21.429  0.00  0.00    +0.000 A 
ENDROOT
BRANCH   1  16
ATOM     11  C   UNL     1       4.743  14.542  20.328  0.00  0.00    +0.000 C 
ATOM     12  C   UNL     1       3.330  14.161  20.096  0.00  0.00    +0.000 A 
ATOM     13  C   UNL     1       2.524  14.381  18.968  0.00  0.00    +0.000 A 
ATOM     14  C   UNL     1       1.260  13.951  19.325  0.00  0.00    +0.000 A 
ATOM     15  C   UNL     1      -0.007  14.053  18.553  0.00  0.00    +0.000 C 
ATOM     16  N   UNL     1       1.356  13.523  20.648  0.00  0.00    +0.000 N 
ATOM     17  N   UNL     1       2.649  13.561  21.070  0.00  0.00    +0.000 NA
ENDBRANCH   1  16
BRANCH  10  18
ATOM     18  N   UNL     1       0.575  10.605  20.915  0.00  0.00    +0.000 N 
ATOM     19  C   UNL     1       1.317   9.632  21.724  0.00  0.00    +0.000 C 
ATOM     20  C   UNL     1       1.249   8.232  21.088  0.00  0.00    +0.000 C 
ATOM     21  N   UNL     1       1.719   8.295  19.691  0.00  0.00    +0.000 N 
ATOM     22  C   UNL     1       0.996   9.293  18.862  0.00  0.00    +0.000 C 
ATOM     23  C   UNL     1       1.043  10.693  19.523  0.00  0.00    +0.000 C 
BRANCH  21  24
ATOM     24  C   UNL     1       2.406   7.244  19.117  0.00  0.00    +0.000 A 
ATOM     25  C   UNL     1       2.116   5.917  19.467  0.00  0.00    +0.000 A 
ATOM     26  C   UNL     1       2.747   4.833  18.850  0.00  0.00    +0.000 A 
ATOM     27  C   UNL     1       3.693   5.052  17.855  0.00  0.00    +0.000 A 
ATOM     28  C   UNL     1       4.015   6.356  17.475  0.00  0.00    +0.000 A 
ATOM     29  C   UNL     1       3.364   7.432  18.110  0.00  0.00    +0.000 A 
BRANCH  28  30
ATOM     30  C   UNL     1       5.032   6.639  16.402  0.00  0.00    +0.000 C 
ATOM     31  F   UNL     1       6.110   7.345  16.841  0.00  0.00    +0.000 F 
ATOM     32  F   UNL     1       5.535   5.501  15.846  0.00  0.00    +0.000 F 
ATOM     33  F   UNL     1       4.513   7.358  15.367  0.00  0.00    +0.000 F 
ENDBRANCH  28  30
ENDBRANCH  21  24
ENDBRANCH  10  18
TORSDOF 4
ENDMDL
