MODEL 1
REMARK VINA RESULT:      -8.5      0.000      0.000
REMARK  Name = 
REMARK  7 active torsions:
REMARK  status: ('A' for Active; 'I' for Inactive)
REMARK    1  A    between atoms: C_1  and  O_2
REMARK    2  A    between atoms: O_2  and  C_3
REMARK    3  A    between atoms: C_6  and  N_7
REMARK    4  A    between atoms: N_16  and  C_17
REMARK    5  A    between atoms: C_17  and  C_18
REMARK    6  A    between atoms: C_27  and  O_28
REMARK    7  A    between atoms: O_28  and  C_29
REMARK                            x       y       z     vdW  Elec       q    Type
REMARK                         _______ _______ _______ _____ _____    ______ ____
ROOT
ATOM      1  N   UNL     1       3.430   5.930  18.661  0.00  0.00    +0.000 N 
ATOM      2  C   UNL     1       2.660   7.080  18.820  0.00  0.00    +0.000 A 
ATOM      3  N   UNL     1       2.417   7.868  17.759  0.00  0.00    +0.000 NA
ATOM      4  C   UNL     1       1.655   8.959  17.954  0.00  0.00    +0.000 A 
ATOM      5  C   UNL     1       1.123   9.312  19.172  0.00  0.00    +0.000 A 
ATOM      6  C   UNL     1       1.432   8.453  20.207  0.00  0.00    +0.000 A 
ATOM      7  N   UNL     1       2.176   7.330  20.047  0.00  0.00    +0.000 NA
ATOM      8  C   UNL     1       0.888   8.736  21.577  0.00  0.00    +0.000 C 
ATOM      9  C   UNL     1       0.570  10.225  21.763  0.00  0.00    +0.000 C 
ATOM     10  N   UNL     1      -0.299  10.733  20.683  0.00  0.00    +0.000 NA
ATOM     11  C   UNL     1       0.369  10.591  19.370  0.00  0.00    +0.000 C 
ATOM     12  H   UNL     1       3.532   5.439  19.537  0.00  0.00    +0.000 HD
ENDROOT
BRANCH   1  16
ATOM     13  C   UNL     1       6.546   5.261  15.873  0.00  0.00    +0.000 A 
ATOM     14  C   UNL     1       6.577   6.367  16.723  0.00  0.00    +0.000 A 
ATOM     15  C   UNL     1       5.550   6.587  17.634  0.00  0.00    +0.000 A 
ATOM     16  C   UNL     1       4.473   5.699  17.742  0.00  0.00    +0.000 A 
ATOM     17  C   UNL     1       4.465   4.551  16.916  0.00  0.00    +0.000 A 
ATOM     18  C   UNL     1       5.487   4.357  15.970  0.00  0.00    +0.000 A 
BRANCH  13  20
ATOM     19  C   UNL     1       7.310   4.898  13.648  0.00  0.00    +0.000 C 
ATOM     20  O   UNL     1       7.604   5.179  15.009  0.00  0.00    +0.000 OA
ENDBRANCH  13  20
BRANCH  17  21
ATOM     21  O   UNL     1       3.393   3.700  17.066  0.00  0.00    +0.000 OA
ATOM     22  C   UNL     1       3.632   2.493  17.783  0.00  0.00    +0.000 C 
ENDBRANCH  17  21
ENDBRANCH   1  16
BRANCH  10  23
ATOM     23  C   UNL     1      -0.633  12.163  20.881  0.00  0.00    +0.000 C 
BRANCH  23  24
ATOM     24  C   UNL     1      -2.045  12.426  21.347  0.00  0.00    +0.000 A 
ATOM     25  C   UNL     1      -3.056  12.795  20.444  0.00  0.00    +0.000 A 
ATOM     26  C   UNL     1      -4.362  13.028  20.893  0.00  0.00    +0.000 A 
ATOM     27  C   UNL     1      -4.672  12.894  22.247  0.00  0.00    +0.000 A 
ATOM     28  C   UNL     1      -3.673  12.535  23.144  0.00  0.00    +0.000 A 
ATOM     29  F   UNL     1      -3.974  12.406  24.445  0.00  0.00    +0.000 F 
ATOM     30  C   UNL     1      -2.373  12.306  22.702  0.00  0.00    +0.000 A 
ATOM     31  F   UNL     1      -1.430  11.964  23.591  0.00  0.00    +0.000 F 
ENDBRANCH  23  24
ENDBRANCH  10  23
TORSDOF 5
ENDMDL
MODEL 2
REMARK VINA RESULT:      -8.1      1.179      1.466
REMARK  Name = 
REMARK  7 active torsions:
REMARK  status: ('A' for Active; 'I' for Inactive)
REMARK    1  A    between atoms: C_1  and  O_2
REMARK    2  A    between atoms: O_2  and  C_3
REMARK    3  A    between atoms: C_6  and  N_7
REMARK    4  A    between atoms: N_16  and  C_17
REMARK    5  A    between atoms: C_17  and  C_18
REMARK    6  A    between atoms: C_27  and  O_28
REMARK    7  A    between atoms: O_28  and  C_29
REMARK                            x       y       z     vdW  Elec       q    Type
REMARK                         _______ _______ _______ _____ _____    ______ ____
ROOT
ATOM      1  N   UNL     1       3.264   5.950  18.761  0.00  0.00    +0.000 N 
ATOM      2  C   UNL     1       2.531   7.108  19.011  0.00  0.00    +0.000 A 
ATOM      3  N   UNL     1       2.324   7.989  18.017  0.00  0.00    +0.000 NA
ATOM      4  C   UNL     1       1.597   9.085  18.296  0.00  0.00    +0.000 A 
ATOM      5  C   UNL     1       1.067   9.355  19.536  0.00  0.00    +0.000 A 
ATOM      6  C   UNL     1       1.339   8.404  20.499  0.00  0.00    +0.000 A 
ATOM      7  N   UNL     1       2.046   7.273  20.251  0.00  0.00    +0.000 NA
ATOM      8  C   UNL     1       0.793   8.592  21.885  0.00  0.00    +0.000 C 
ATOM      9  C   UNL     1       0.523  10.071  22.190  0.00  0.00    +0.000 C 
ATOM     10  N   UNL     1      -0.319  10.694  21.151  0.00  0.00    +0.000 NA
ATOM     11  C   UNL     1       0.354  10.638  19.834  0.00  0.00    +0.000 C 
ATOM     12  H   UNL     1       3.342   5.386  19.595  0.00  0.00    +0.000 HD
ENDROOT
BRANCH   1  16
ATOM     13  C   UNL     1       6.377   5.404  15.944  0.00  0.00    +0.000 A 
ATOM     14  C   UNL     1       6.385   6.498  16.809  0.00  0.00    +0.000 A 
ATOM     15  C   UNL     1       5.358   6.678  17.730  0.00  0.00    +0.000 A 
ATOM     16  C   UNL     1       4.306   5.760  17.833  0.00  0.00    +0.000 A 
ATOM     17  C   UNL     1       4.323   4.623  16.991  0.00  0.00    +0.000 A 
ATOM     18  C   UNL     1       5.343   4.471  16.034  0.00  0.00    +0.000 A 
BRANCH  13  20
ATOM     19  C   UNL     1       7.240   4.651  13.857  0.00  0.00    +0.000 C 
ATOM     20  O   UNL     1       7.431   5.362  15.072  0.00  0.00    +0.000 OA
ENDBRANCH  13  20
BRANCH  17  21
ATOM     21  O   UNL     1       3.275   3.742  17.135  0.00  0.00    +0.000 OA
ATOM     22  C   UNL     1       3.591   2.457  17.660  0.00  0.00    +0.000 C 
ENDBRANCH  17  21
ENDBRANCH   1  16
BRANCH  10  23
ATOM     23  C   UNL     1      -0.608  12.114  21.464  0.00  0.00    +0.000 C 
BRANCH  23  24
ATOM     24  C   UNL     1      -2.044  12.404  21.830  0.00  0.00    +0.000 A 
ATOM     25  C   UNL     1      -2.454  12.488  23.171  0.00  0.00    +0.000 A 
ATOM     26  C   UNL     1      -3.788  12.766  23.492  0.00  0.00    +0.000 A 
ATOM     27  C   UNL     1      -4.727  12.964  22.478  0.00  0.00    +0.000 A 
ATOM     28  C   UNL     1      -4.326  12.875  21.150  0.00  0.00    +0.000 A 
ATOM     29  F   UNL     1      -5.230  13.066  20.178  0.00  0.00    +0.000 F 
ATOM     30  C   UNL     1      -3.001  12.596  20.828  0.00  0.00    +0.000 A 
ATOM     31  F   UNL     1      -2.645  12.514  19.537  0.00  0.00    +0.000 F 
ENDBRANCH  23  24
ENDBRANCH  10  23
TORSDOF 5
ENDMDL
MODEL 3
REMARK VINA RESULT:      -8.1      1.138      1.372
REMARK  Name = 
REMARK  7 active torsions:
REMARK  status: ('A' for Active; 'I' for Inactive)
REMARK    1  A    between atoms: C_1  and  O_2
REMARK    2  A    between atoms: O_2  and  C_3
REMARK    3  A    between atoms: C_6  and  N_7
REMARK    4  A    between atoms: N_16  and  C_17
REMARK    5  A    between atoms: C_17  and  C_18
REMARK    6  A    between atoms: C_27  and  O_28
REMARK    7  A    between atoms: O_28  and  C_29
REMARK                            x       y       z     vdW  Elec       q    Type
REMARK                         _______ _______ _______ _____ _____    ______ ____
ROOT
ATOM      1  N   UNL     1       3.274   5.951  18.793  0.00  0.00    +0.000 N 
ATOM      2  C   UNL     1       2.553   7.142  18.866  0.00  0.00    +0.000 A 
ATOM      3  N   UNL     1       2.354   7.866  17.751  0.00  0.00    +0.000 NA
ATOM      4  C   UNL     1       1.639   8.999  17.864  0.00  0.00    +0.000 A 
ATOM      5  C   UNL     1       1.113   9.457  19.049  0.00  0.00    +0.000 A 
ATOM      6  C   UNL     1       1.377   8.658  20.143  0.00  0.00    +0.000 A 
ATOM      7  N   UNL     1       2.071   7.495  20.068  0.00  0.00    +0.000 NA
ATOM      8  C   UNL     1       0.835   9.057  21.485  0.00  0.00    +0.000 C 
ATOM      9  C   UNL     1       0.580  10.567  21.566  0.00  0.00    +0.000 C 
ATOM     10  N   UNL     1      -0.257  11.037  20.445  0.00  0.00    +0.000 NA
ATOM     11  C   UNL     1       0.414  10.777  19.152  0.00  0.00    +0.000 C 
ATOM     12  H   UNL     1       3.347   5.518  19.701  0.00  0.00    +0.000 HD
ENDROOT
BRANCH   1  16
ATOM     13  C   UNL     1       6.382   4.965  16.092  0.00  0.00    +0.000 A 
ATOM     14  C   UNL     1       6.521   6.034  16.977  0.00  0.00    +0.000 A 
ATOM     15  C   UNL     1       5.496   6.360  17.859  0.00  0.00    +0.000 A 
ATOM     16  C   UNL     1       4.312   5.614  17.903  0.00  0.00    +0.000 A 
ATOM     17  C   UNL     1       4.191   4.498  17.042  0.00  0.00    +0.000 A 
ATOM     18  C   UNL     1       5.214   4.201  16.125  0.00  0.00    +0.000 A 
BRANCH  13  20
ATOM     19  C   UNL     1       7.199   4.775  13.865  0.00  0.00    +0.000 C 
ATOM     20  O   UNL     1       7.452   4.771  15.262  0.00  0.00    +0.000 OA
ENDBRANCH  13  20
BRANCH  17  21
ATOM     21  O   UNL     1       3.015   3.787  17.130  0.00  0.00    +0.000 OA
ATOM     22  C   UNL     1       3.089   2.504  17.742  0.00  0.00    +0.000 C 
ENDBRANCH  17  21
ENDBRANCH   1  16
BRANCH  10  23
ATOM     23  C   UNL     1      -0.530  12.491  20.542  0.00  0.00    +0.000 C 
BRANCH  23  24
ATOM     24  C   UNL     1      -1.347  12.905  21.743  0.00  0.00    +0.000 A 
ATOM     25  C   UNL     1      -2.649  12.416  21.945  0.00  0.00    +0.000 A 
ATOM     26  C   UNL     1      -3.388  12.805  23.069  0.00  0.00    +0.000 A 
ATOM     27  C   UNL     1      -2.837  13.684  24.002  0.00  0.00    +0.000 A 
ATOM     28  C   UNL     1      -1.552  14.174  23.801  0.00  0.00    +0.000 A 
ATOM     29  F   UNL     1      -1.025  15.018  24.700  0.00  0.00    +0.000 F 
ATOM     30  C   UNL     1      -0.815  13.792  22.684  0.00  0.00    +0.000 A 
ATOM     31  F   UNL     1       0.422  14.284  22.517  0.00  0.00    +0.000 F 
ENDBRANCH  23  24
ENDBRANCH  10  23
TORSDOF 5
ENDMDL
MODEL 4
REMARK VINA RESULT:      -8.0      4.848     10.675
REMARK  Name = 
REMARK  7 active torsions:
REMARK  status: ('A' for Active; 'I' for Inactive)
REMARK    1  A    between atoms: C_1  and  O_2
REMARK    2  A    between atoms: O_2  and  C_3
REMARK    3  A    between atoms: C_6  and  N_7
REMARK    4  A    between atoms: N_16  and  C_17
REMARK    5  A    between atoms: C_17  and  C_18
REMARK    6  A    between atoms: C_27  and  O_28
REMARK    7  A    between atoms: O_28  and  C_29
REMARK                            x       y       z     vdW  Elec       q    Type
REMARK                         _______ _______ _______ _____ _____    ______ ____
ROOT
ATOM      1  N   UNL     1      -1.657  12.447  21.351  0.00  0.00    +0.000 N 
ATOM      2  C   UNL     1      -0.901  11.283  21.218  0.00  0.00    +0.000 A 
ATOM      3  N   UNL     1      -0.720  10.485  22.284  0.00  0.00    +0.000 NA
ATOM      4  C   UNL     1       0.002   9.364  22.108  0.00  0.00    +0.000 A 
ATOM      5  C   UNL     1       0.566   8.999  20.907  0.00  0.00    +0.000 A 
ATOM      6  C   UNL     1       0.339   9.882  19.872  0.00  0.00    +0.000 A 
ATOM      7  N   UNL     1      -0.403  11.009  20.002  0.00  0.00    +0.000 NA
ATOM      8  C   UNL     1       0.897   9.571  18.513  0.00  0.00    +0.000 C 
ATOM      9  C   UNL     1       2.116   8.645  18.600  0.00  0.00    +0.000 C 
ATOM     10  N   UNL     1       1.822   7.434  19.392  0.00  0.00    +0.000 NA
ATOM     11  C   UNL     1       1.451   7.798  20.778  0.00  0.00    +0.000 C 
ATOM     12  H   UNL     1      -1.706  12.947  20.476  0.00  0.00    +0.000 HD
ENDROOT
BRANCH   1  16
ATOM     13  C   UNL     1      -2.118  14.854  24.803  0.00  0.00    +0.000 A 
ATOM     14  C   UNL     1      -0.944  14.905  24.052  0.00  0.00    +0.000 A 
ATOM     15  C   UNL     1      -0.792  14.109  22.922  0.00  0.00    +0.000 A 
ATOM     16  C   UNL     1      -1.816  13.257  22.492  0.00  0.00    +0.000 A 
ATOM     17  C   UNL     1      -3.027  13.242  23.224  0.00  0.00    +0.000 A 
ATOM     18  C   UNL     1      -3.156  14.018  24.388  0.00  0.00    +0.000 A 
BRANCH  13  20
ATOM     19  C   UNL     1      -0.864  16.065  26.424  0.00  0.00    +0.000 C 
ATOM     20  O   UNL     1      -2.124  15.667  25.904  0.00  0.00    +0.000 OA
ENDBRANCH  13  20
BRANCH  17  21
ATOM     21  O   UNL     1      -4.010  12.398  22.757  0.00  0.00    +0.000 OA
ATOM     22  C   UNL     1      -5.095  13.004  22.063  0.00  0.00    +0.000 C 
ENDBRANCH  17  21
ENDBRANCH   1  16
BRANCH  10  23
ATOM     23  C   UNL     1       2.990   6.524  19.448  0.00  0.00    +0.000 C 
BRANCH  23  24
ATOM     24  C   UNL     1       2.784   5.184  18.782  0.00  0.00    +0.000 A 
ATOM     25  C   UNL     1       3.569   4.783  17.688  0.00  0.00    +0.000 A 
ATOM     26  C   UNL     1       3.368   3.534  17.088  0.00  0.00    +0.000 A 
ATOM     27  C   UNL     1       2.383   2.672  17.574  0.00  0.00    +0.000 A 
ATOM     28  C   UNL     1       1.601   3.069  18.652  0.00  0.00    +0.000 A 
ATOM     29  F   UNL     1       0.656   2.239  19.118  0.00  0.00    +0.000 F 
ATOM     30  C   UNL     1       1.795   4.311  19.249  0.00  0.00    +0.000 A 
ATOM     31  F   UNL     1       1.023   4.667  20.286  0.00  0.00    +0.000 F 
ENDBRANCH  23  24
ENDBRANCH  10  23
TORSDOF 5
ENDMDL
MODEL 5
REMARK VINA RESULT:      -7.9      1.156      1.522
REMARK  Name = 
REMARK  7 active torsions:
REMARK  status: ('A' for Active; 'I' for Inactive)
REMARK    1  A    between atoms: C_1  and  O_2
REMARK    2  A    between atoms: O_2  and  C_3
REMARK    3  A    between atoms: C_6  and  N_7
REMARK    4  A    between atoms: N_16  and  C_17
REMARK    5  A    between atoms: C_17  and  C_18
REMARK    6  A    between atoms: C_27  and  O_28
REMARK    7  A    between atoms: O_28  and  C_29
REMARK                            x       y       z     vdW  Elec       q    Type
REMARK                         _______ _______ _______ _____ _____    ______ ____
ROOT
ATOM      1  N   UNL     1       3.682   5.813  18.319  0.00  0.00    +0.000 N 
ATOM      2  C   UNL     1       2.936   6.962  18.573  0.00  0.00    +0.000 A 
ATOM      3  N   UNL     1       2.765   7.870  17.597  0.00  0.00    +0.000 NA
ATOM      4  C   UNL     1       2.024   8.956  17.879  0.00  0.00    +0.000 A 
ATOM      5  C   UNL     1       1.445   9.189  19.105  0.00  0.00    +0.000 A 
ATOM      6  C   UNL     1       1.682   8.211  20.049  0.00  0.00    +0.000 A 
ATOM      7  N   UNL     1       2.401   7.090  19.797  0.00  0.00    +0.000 NA
ATOM      8  C   UNL     1       1.081   8.358  21.417  0.00  0.00    +0.000 C 
ATOM      9  C   UNL     1       0.794   9.826  21.754  0.00  0.00    +0.000 C 
ATOM     10  N   UNL     1      -0.009  10.478  20.701  0.00  0.00    +0.000 NA
ATOM     11  C   UNL     1       0.716  10.461  19.411  0.00  0.00    +0.000 C 
ATOM     12  H   UNL     1       3.729   5.225  19.139  0.00  0.00    +0.000 HD
ENDROOT
BRANCH   1  16
ATOM     13  C   UNL     1       6.916   5.291  15.636  0.00  0.00    +0.000 A 
ATOM     14  C   UNL     1       5.621   5.492  15.159  0.00  0.00    +0.000 A 
ATOM     15  C   UNL     1       4.560   5.657  16.042  0.00  0.00    +0.000 A 
ATOM     16  C   UNL     1       4.761   5.652  17.428  0.00  0.00    +0.000 A 
ATOM     17  C   UNL     1       6.081   5.499  17.913  0.00  0.00    +0.000 A 
ATOM     18  C   UNL     1       7.142   5.291  17.014  0.00  0.00    +0.000 A 
BRANCH  13  20
ATOM     19  C   UNL     1       7.393   4.869  13.343  0.00  0.00    +0.000 C 
ATOM     20  O   UNL     1       7.860   5.116  14.662  0.00  0.00    +0.000 OA
ENDBRANCH  13  20
BRANCH  17  21
ATOM     21  O   UNL     1       6.232   5.513  19.281  0.00  0.00    +0.000 OA
ATOM     22  C   UNL     1       7.564   5.610  19.775  0.00  0.00    +0.000 C 
ENDBRANCH  17  21
ENDBRANCH   1  16
BRANCH  10  23
ATOM     23  C   UNL     1      -0.315  11.887  21.043  0.00  0.00    +0.000 C 
BRANCH  23  24
ATOM     24  C   UNL     1      -1.786  12.211  21.146  0.00  0.00    +0.000 A 
ATOM     25  C   UNL     1      -2.569  12.428  20.000  0.00  0.00    +0.000 A 
ATOM     26  C   UNL     1      -3.933  12.720  20.115  0.00  0.00    +0.000 A 
ATOM     27  C   UNL     1      -4.531  12.797  21.374  0.00  0.00    +0.000 A 
ATOM     28  C   UNL     1      -3.758  12.589  22.510  0.00  0.00    +0.000 A 
ATOM     29  F   UNL     1      -4.334  12.663  23.718  0.00  0.00    +0.000 F 
ATOM     30  C   UNL     1      -2.400  12.302  22.400  0.00  0.00    +0.000 A 
ATOM     31  F   UNL     1      -1.679  12.109  23.514  0.00  0.00    +0.000 F 
ENDBRANCH  23  24
ENDBRANCH  10  23
TORSDOF 5
ENDMDL
MODEL 6
REMARK VINA RESULT:      -7.9      1.568      2.063
REMARK  Name = 
REMARK  7 active torsions:
REMARK  status: ('A' for Active; 'I' for Inactive)
REMARK    1  A    between atoms: C_1  and  O_2
REMARK    2  A    between atoms: O_2  and  C_3
REMARK    3  A    between atoms: C_6  and  N_7
REMARK    4  A    between atoms: N_16  and  C_17
REMARK    5  A    between atoms: C_17  and  C_18
REMARK    6  A    between atoms: C_27  and  O_28
REMARK    7  A    between atoms: O_28  and  C_29
REMARK                            x       y       z     vdW  Elec       q    Type
REMARK                         _______ _______ _______ _____ _____    ______ ____
ROOT
ATOM      1  N   UNL     1       3.653   5.767  18.545  0.00  0.00    +0.000 N 
ATOM      2  C   UNL     1       2.900   6.923  18.746  0.00  0.00    +0.000 A 
ATOM      3  N   UNL     1       2.702   7.771  17.722  0.00  0.00    +0.000 NA
ATOM      4  C   UNL     1       1.956   8.865  17.955  0.00  0.00    +0.000 A 
ATOM      5  C   UNL     1       1.398   9.164  19.176  0.00  0.00    +0.000 A 
ATOM      6  C   UNL     1       1.663   8.246  20.172  0.00  0.00    +0.000 A 
ATOM      7  N   UNL     1       2.388   7.118  19.972  0.00  0.00    +0.000 NA
ATOM      8  C   UNL     1       1.087   8.467  21.540  0.00  0.00    +0.000 C 
ATOM      9  C   UNL     1       0.792   9.951  21.796  0.00  0.00    +0.000 C 
ATOM     10  N   UNL     1      -0.037  10.532  20.723  0.00  0.00    +0.000 NA
ATOM     11  C   UNL     1       0.663  10.446  19.422  0.00  0.00    +0.000 C 
ATOM     12  H   UNL     1       3.721   5.229  19.397  0.00  0.00    +0.000 HD
ENDROOT
BRANCH   1  16
ATOM     13  C   UNL     1       6.839   5.116  15.834  0.00  0.00    +0.000 A 
ATOM     14  C   UNL     1       5.534   5.288  15.370  0.00  0.00    +0.000 A 
ATOM     15  C   UNL     1       4.489   5.496  16.264  0.00  0.00    +0.000 A 
ATOM     16  C   UNL     1       4.715   5.564  17.643  0.00  0.00    +0.000 A 
ATOM     17  C   UNL     1       6.045   5.441  18.111  0.00  0.00    +0.000 A 
ATOM     18  C   UNL     1       7.090   5.189  17.205  0.00  0.00    +0.000 A 
BRANCH  13  20
ATOM     19  C   UNL     1       7.289   4.813  13.516  0.00  0.00    +0.000 C 
ATOM     20  O   UNL     1       7.765   4.893  14.852  0.00  0.00    +0.000 OA
ENDBRANCH  13  20
BRANCH  17  21
ATOM     21  O   UNL     1       6.221   5.526  19.474  0.00  0.00    +0.000 OA
ATOM     22  C   UNL     1       7.565   5.592  19.940  0.00  0.00    +0.000 C 
ENDBRANCH  17  21
ENDBRANCH   1  16
BRANCH  10  23
ATOM     23  C   UNL     1      -0.349  11.957  20.988  0.00  0.00    +0.000 C 
BRANCH  23  24
ATOM     24  C   UNL     1      -1.713  12.207  21.585  0.00  0.00    +0.000 A 
ATOM     25  C   UNL     1      -1.946  12.061  22.963  0.00  0.00    +0.000 A 
ATOM     26  C   UNL     1      -3.216  12.305  23.500  0.00  0.00    +0.000 A 
ATOM     27  C   UNL     1      -4.266  12.698  22.669  0.00  0.00    +0.000 A 
ATOM     28  C   UNL     1      -4.040  12.837  21.305  0.00  0.00    +0.000 A 
ATOM     29  F   UNL     1      -5.051  13.215  20.508  0.00  0.00    +0.000 F 
ATOM     30  C   UNL     1      -2.780  12.592  20.766  0.00  0.00    +0.000 A 
ATOM     31  F   UNL     1      -2.594  12.733  19.446  0.00  0.00    +0.000 F 
ENDBRANCH  23  24
ENDBRANCH  10  23
TORSDOF 5
ENDMDL
MODEL 7
REMARK VINA RESULT:      -7.8      1.170      1.236
REMARK  Name = 
REMARK  7 active torsions:
REMARK  status: ('A' for Active; 'I' for Inactive)
REMARK    1  A    between atoms: C_1  and  O_2
REMARK    2  A    between atoms: O_2  and  C_3
REMARK    3  A    between atoms: C_6  and  N_7
REMARK    4  A    between atoms: N_16  and  C_17
REMARK    5  A    between atoms: C_17  and  C_18
REMARK    6  A    between atoms: C_27  and  O_28
REMARK    7  A    between atoms: O_28  and  C_29
REMARK                            x       y       z     vdW  Elec       q    Type
REMARK                         _______ _______ _______ _____ _____    ______ ____
ROOT
ATOM      1  N   UNL     1       2.901   6.275  19.116  0.00  0.00    +0.000 N 
ATOM      2  C   UNL     1       2.196   7.451  19.364  0.00  0.00    +0.000 A 
ATOM      3  N   UNL     1       2.137   8.402  18.416  0.00  0.00    +0.000 NA
ATOM      4  C   UNL     1       1.433   9.513  18.691  0.00  0.00    +0.000 A 
ATOM      5  C   UNL     1       0.783   9.732  19.883  0.00  0.00    +0.000 A 
ATOM      6  C   UNL     1       0.907   8.709  20.802  0.00  0.00    +0.000 A 
ATOM      7  N   UNL     1       1.586   7.562  20.555  0.00  0.00    +0.000 NA
ATOM      8  C   UNL     1       0.222   8.838  22.132  0.00  0.00    +0.000 C 
ATOM      9  C   UNL     1      -0.015  10.306  22.507  0.00  0.00    +0.000 C 
ATOM     10  N   UNL     1      -0.711  11.036  21.429  0.00  0.00    +0.000 NA
ATOM     11  C   UNL     1       0.099  11.028  20.190  0.00  0.00    +0.000 C 
ATOM     12  H   UNL     1       2.863   5.656  19.913  0.00  0.00    +0.000 HD
ENDROOT
BRANCH   1  16
ATOM     13  C   UNL     1       6.268   5.700  16.615  0.00  0.00    +0.000 A 
ATOM     14  C   UNL     1       5.359   6.725  16.358  0.00  0.00    +0.000 A 
ATOM     15  C   UNL     1       4.250   6.909  17.178  0.00  0.00    +0.000 A 
ATOM     16  C   UNL     1       4.029   6.091  18.292  0.00  0.00    +0.000 A 
ATOM     17  C   UNL     1       4.978   5.083  18.583  0.00  0.00    +0.000 A 
ATOM     18  C   UNL     1       6.073   4.878  17.726  0.00  0.00    +0.000 A 
BRANCH  13  20
ATOM     19  C   UNL     1       7.114   4.755  14.601  0.00  0.00    +0.000 C 
ATOM     20  O   UNL     1       7.297   5.615  15.716  0.00  0.00    +0.000 OA
ENDBRANCH  13  20
BRANCH  17  21
ATOM     21  O   UNL     1       4.725   4.312  19.696  0.00  0.00    +0.000 OA
ATOM     22  C   UNL     1       4.352   2.958  19.462  0.00  0.00    +0.000 C 
ENDBRANCH  17  21
ENDBRANCH   1  16
BRANCH  10  23
ATOM     23  C   UNL     1      -0.970  12.446  21.805  0.00  0.00    +0.000 C 
BRANCH  23  24
ATOM     24  C   UNL     1      -2.424  12.853  21.782  0.00  0.00    +0.000 A 
ATOM     25  C   UNL     1      -2.952  13.618  20.728  0.00  0.00    +0.000 A 
ATOM     26  C   UNL     1      -4.305  13.979  20.720  0.00  0.00    +0.000 A 
ATOM     27  C   UNL     1      -5.144  13.581  21.761  0.00  0.00    +0.000 A 
ATOM     28  C   UNL     1      -4.623  12.829  22.808  0.00  0.00    +0.000 A 
ATOM     29  F   UNL     1      -5.432  12.447  23.807  0.00  0.00    +0.000 F 
ATOM     30  C   UNL     1      -3.279  12.470  22.822  0.00  0.00    +0.000 A 
ATOM     31  F   UNL     1      -2.804  11.747  23.846  0.00  0.00    +0.000 F 
ENDBRANCH  23  24
ENDBRANCH  10  23
TORSDOF 5
ENDMDL
MODEL 8
REMARK VINA RESULT:      -7.7      5.130     10.566
REMARK  Name = 
REMARK  7 active torsions:
REMARK  status: ('A' for Active; 'I' for Inactive)
REMARK    1  A    between atoms: C_1  and  O_2
REMARK    2  A    between atoms: O_2  and  C_3
REMARK    3  A    between atoms: C_6  and  N_7
REMARK    4  A    between atoms: N_16  and  C_17
REMARK    5  A    between atoms: C_17  and  C_18
REMARK    6  A    between atoms: C_27  and  O_28
REMARK    7  A    between atoms: O_28  and  C_29
REMARK                            x       y       z     vdW  Elec       q    Type
REMARK                         _______ _______ _______ _____ _____    ______ ____
ROOT
ATOM      1  N   UNL     1      -0.972  12.439  20.607  0.00  0.00    +0.000 N 
ATOM      2  C   UNL     1      -0.254  11.249  20.508  0.00  0.00    +0.000 A 
ATOM      3  N   UNL     1       0.005  10.537  21.618  0.00  0.00    +0.000 NA
ATOM      4  C   UNL     1       0.685   9.387  21.476  0.00  0.00    +0.000 A 
ATOM      5  C   UNL     1       1.134   8.908  20.267  0.00  0.00    +0.000 A 
ATOM      6  C   UNL     1       0.834   9.708  19.183  0.00  0.00    +0.000 A 
ATOM      7  N   UNL     1       0.129  10.862  19.281  0.00  0.00    +0.000 NA
ATOM      8  C   UNL     1       1.264   9.271  17.813  0.00  0.00    +0.000 C 
ATOM      9  C   UNL     1       2.468   8.323  17.873  0.00  0.00    +0.000 C 
ATOM     10  N   UNL     1       2.221   7.190  18.787  0.00  0.00    +0.000 NA
ATOM     11  C   UNL     1       1.981   7.677  20.164  0.00  0.00    +0.000 C 
ATOM     12  H   UNL     1      -1.089  12.867  19.699  0.00  0.00    +0.000 HD
ENDROOT
BRANCH   1  16
ATOM     13  C   UNL     1      -1.075  15.139  23.867  0.00  0.00    +0.000 A 
ATOM     14  C   UNL     1      -0.048  15.199  22.926  0.00  0.00    +0.000 A 
ATOM     15  C   UNL     1      -0.013  14.308  21.859  0.00  0.00    +0.000 A 
ATOM     16  C   UNL     1      -1.015  13.345  21.684  0.00  0.00    +0.000 A 
ATOM     17  C   UNL     1      -2.085  13.316  22.609  0.00  0.00    +0.000 A 
ATOM     18  C   UNL     1      -2.090  14.193  23.708  0.00  0.00    +0.000 A 
BRANCH  13  20
ATOM     19  C   UNL     1      -1.395  15.643  26.171  0.00  0.00    +0.000 C 
ATOM     20  O   UNL     1      -0.974  16.054  24.879  0.00  0.00    +0.000 OA
ENDBRANCH  13  20
BRANCH  17  21
ATOM     21  O   UNL     1      -3.053  12.362  22.390  0.00  0.00    +0.000 OA
ATOM     22  C   UNL     1      -4.390  12.830  22.254  0.00  0.00    +0.000 C 
ENDBRANCH  17  21
ENDBRANCH   1  16
BRANCH  10  23
ATOM     23  C   UNL     1       3.371   6.256  18.819  0.00  0.00    +0.000 C 
BRANCH  23  24
ATOM     24  C   UNL     1       3.001   4.792  18.806  0.00  0.00    +0.000 A 
ATOM     25  C   UNL     1       1.730   4.363  18.387  0.00  0.00    +0.000 A 
ATOM     26  C   UNL     1       1.407   3.001  18.375  0.00  0.00    +0.000 A 
ATOM     27  C   UNL     1       2.349   2.053  18.779  0.00  0.00    +0.000 A 
ATOM     28  C   UNL     1       3.605   2.475  19.199  0.00  0.00    +0.000 A 
ATOM     29  F   UNL     1       4.508   1.562  19.586  0.00  0.00    +0.000 F 
ATOM     30  C   UNL     1       3.928   3.828  19.216  0.00  0.00    +0.000 A 
ATOM     31  F   UNL     1       5.147   4.205  19.629  0.00  0.00    +0.000 F 
ENDBRANCH  23  24
ENDBRANCH  10  23
TORSDOF 5
ENDMDL
MODEL 9
REMARK VINA RESULT:      -7.6      5.146     10.275
REMARK  Name = 
REMARK  7 active torsions:
REMARK  status: ('A' for Active; 'I' for Inactive)
REMARK    1  A    between atoms: C_1  and  O_2
REMARK    2  A    between atoms: O_2  and  C_3
REMARK    3  A    between atoms: C_6  and  N_7
REMARK    4  A    between atoms: N_16  and  C_17
REMARK    5  A    between atoms: C_17  and  C_18
REMARK    6  A    between atoms: C_27  and  O_28
REMARK    7  A    between atoms: O_28  and  C_29
REMARK                            x       y       z     vdW  Elec       q    Type
REMARK                         _______ _______ _______ _____ _____    ______ ____
ROOT
ATOM      1  N   UNL     1      -0.408  12.972  20.531  0.00  0.00    +0.000 N 
ATOM      2  C   UNL     1       0.098  11.675  20.481  0.00  0.00    +0.000 A 
ATOM      3  N   UNL     1       0.089  10.916  21.590  0.00  0.00    +0.000 NA
ATOM      4  C   UNL     1       0.570   9.665  21.494  0.00  0.00    +0.000 A 
ATOM      5  C   UNL     1       1.075   9.127  20.332  0.00  0.00    +0.000 A 
ATOM      6  C   UNL     1       1.056   9.979  19.247  0.00  0.00    +0.000 A 
ATOM      7  N   UNL     1       0.556  11.239  19.297  0.00  0.00    +0.000 NA
ATOM      8  C   UNL     1       1.569   9.488  17.925  0.00  0.00    +0.000 C 
ATOM      9  C   UNL     1       2.572   8.340  18.099  0.00  0.00    +0.000 C 
ATOM     10  N   UNL     1       2.019   7.259  18.939  0.00  0.00    +0.000 NA
ATOM     11  C   UNL     1       1.699   7.767  20.292  0.00  0.00    +0.000 C 
ATOM     12  H   UNL     1      -0.334  13.423  19.630  0.00  0.00    +0.000 HD
ENDROOT
BRANCH   1  16
ATOM     13  C   UNL     1      -0.491  15.660  23.801  0.00  0.00    +0.000 A 
ATOM     14  C   UNL     1      -1.278  14.509  23.807  0.00  0.00    +0.000 A 
ATOM     15  C   UNL     1      -1.254  13.631  22.728  0.00  0.00    +0.000 A 
ATOM     16  C   UNL     1      -0.424  13.860  21.624  0.00  0.00    +0.000 A 
ATOM     17  C   UNL     1       0.413  15.000  21.640  0.00  0.00    +0.000 A 
ATOM     18  C   UNL     1       0.351  15.904  22.715  0.00  0.00    +0.000 A 
BRANCH  13  20
ATOM     19  C   UNL     1      -1.591  16.046  25.876  0.00  0.00    +0.000 C 
ATOM     20  O   UNL     1      -0.631  16.449  24.910  0.00  0.00    +0.000 OA
ENDBRANCH  13  20
BRANCH  17  21
ATOM     21  O   UNL     1       1.220  15.179  20.539  0.00  0.00    +0.000 OA
ATOM     22  C   UNL     1       2.544  14.661  20.628  0.00  0.00    +0.000 C 
ENDBRANCH  17  21
ENDBRANCH   1  16
BRANCH  10  23
ATOM     23  C   UNL     1       2.976   6.136  19.079  0.00  0.00    +0.000 C 
BRANCH  23  24
ATOM     24  C   UNL     1       2.385   4.865  19.640  0.00  0.00    +0.000 A 
ATOM     25  C   UNL     1       2.622   4.473  20.968  0.00  0.00    +0.000 A 
ATOM     26  C   UNL     1       2.059   3.295  21.474  0.00  0.00    +0.000 A 
ATOM     27  C   UNL     1       1.253   2.497  20.660  0.00  0.00    +0.000 A 
ATOM     28  C   UNL     1       1.022   2.878  19.344  0.00  0.00    +0.000 A 
ATOM     29  F   UNL     1       0.247   2.110  18.565  0.00  0.00    +0.000 F 
ATOM     30  C   UNL     1       1.582   4.047  18.837  0.00  0.00    +0.000 A 
ATOM     31  F   UNL     1       1.343   4.388  17.562  0.00  0.00    +0.000 F 
ENDBRANCH  23  24
ENDBRANCH  10  23
TORSDOF 5
ENDMDL
