MODEL 1
REMARK VINA RESULT:      -6.9      0.000      0.000
REMARK  Name = 
REMARK  9 active torsions:
REMARK  status: ('A' for Active; 'I' for Inactive)
REMARK    1  A    between atoms: C_1  and  C_2
REMARK    2  A    between atoms: C_2  and  C_3
REMARK    3  A    between atoms: C_3  and  N_4
REMARK    4  A    between atoms: N_4  and  C_5
REMARK    5  A    between atoms: N_4  and  C_8
REMARK    6  A    between atoms: C_5  and  C_6
REMARK    7  A    between atoms: C_6  and  C_7
REMARK    8  A    between atoms: C_13  and  C_14
REMARK    9  A    between atoms: C_15  and  O_16
REMARK                            x       y       z     vdW  Elec       q    Type
REMARK                         _______ _______ _______ _____ _____    ______ ____
ROOT
ATOM      1  C   UNL     1       4.885   5.325  18.318  0.00  0.00    +0.000 C 
ATOM      2  C   UNL     1       3.824   4.553  19.136  0.00  0.00    +0.000 C 
ATOM      3  C   UNL     1       3.113   5.493  20.110  0.00  0.00    +0.000 C 
ATOM      4  C   UNL     1       2.619   6.760  19.468  0.00  0.00    +0.000 A 
ATOM      5  C   UNL     1       1.702   7.565  20.163  0.00  0.00    +0.000 A 
ATOM      6  C   UNL     1       1.236   8.774  19.627  0.00  0.00    +0.000 A 
ATOM      7  C   UNL     1       0.256   9.594  20.412  0.00  0.00    +0.000 C 
ATOM      8  C   UNL     1       1.712   9.165  18.374  0.00  0.00    +0.000 A 
ATOM      9  C   UNL     1       2.630   8.379  17.677  0.00  0.00    +0.000 A 
ATOM     10  C   UNL     1       3.106   7.180  18.225  0.00  0.00    +0.000 A 
ATOM     11  C   UNL     1       4.109   6.357  17.448  0.00  0.00    +0.000 C 
ENDROOT
BRANCH   8  12
ATOM     12  O   UNL     1       1.323  10.321  17.760  0.00  0.00    +0.000 OA
ATOM     13  H   UNL     1       1.908  11.042  18.036  0.00  0.00    +0.000 HD
ENDBRANCH   8  12
BRANCH   1  14
ATOM     14  N   UNL     1       5.789   4.429  17.524  0.00  0.00    +0.000 NA
BRANCH  14  15
ATOM     15  C   UNL     1       5.417   4.438  16.091  0.00  0.00    +0.000 C 
BRANCH  15  17
ATOM     16  C   UNL     1       6.028   3.877  13.672  0.00  0.00    +0.000 C 
ATOM     17  C   UNL     1       6.539   4.235  15.060  0.00  0.00    +0.000 C 
ENDBRANCH  15  17
ENDBRANCH  14  15
BRANCH  14  18
ATOM     18  C   UNL     1       7.226   4.724  17.730  0.00  0.00    +0.000 C 
BRANCH  18  19
ATOM     19  C   UNL     1       7.556   5.845  18.730  0.00  0.00    +0.000 C 
ATOM     20  C   UNL     1       7.851   7.161  18.025  0.00  0.00    +0.000 C 
ENDBRANCH  18  19
ENDBRANCH  14  18
ENDBRANCH   1  14
TORSDOF 6
ENDMDL
MODEL 2
REMARK VINA RESULT:      -6.5      0.952      2.655
REMARK  Name = 
REMARK  9 active torsions:
REMARK  status: ('A' for Active; 'I' for Inactive)
REMARK    1  A    between atoms: C_1  and  C_2
REMARK    2  A    between atoms: C_2  and  C_3
REMARK    3  A    between atoms: C_3  and  N_4
REMARK    4  A    between atoms: N_4  and  C_5
REMARK    5  A    between atoms: N_4  and  C_8
REMARK    6  A    between atoms: C_5  and  C_6
REMARK    7  A    between atoms: C_6  and  C_7
REMARK    8  A    between atoms: C_13  and  C_14
REMARK    9  A    between atoms: C_15  and  O_16
REMARK                            x       y       z     vdW  Elec       q    Type
REMARK                         _______ _______ _______ _____ _____    ______ ____
ROOT
ATOM      1  C   UNL     1       4.664   6.333  17.574  0.00  0.00    +0.000 C 
ATOM      2  C   UNL     1       3.931   5.182  18.301  0.00  0.00    +0.000 C 
ATOM      3  C   UNL     1       3.342   5.676  19.623  0.00  0.00    +0.000 C 
ATOM      4  C   UNL     1       2.551   6.947  19.490  0.00  0.00    +0.000 A 
ATOM      5  C   UNL     1       1.719   7.348  20.548  0.00  0.00    +0.000 A 
ATOM      6  C   UNL     1       0.987   8.542  20.491  0.00  0.00    +0.000 A 
ATOM      7  C   UNL     1       0.111   8.921  21.649  0.00  0.00    +0.000 C 
ATOM      8  C   UNL     1       1.107   9.334  19.348  0.00  0.00    +0.000 A 
ATOM      9  C   UNL     1       1.937   8.953  18.294  0.00  0.00    +0.000 A 
ATOM     10  C   UNL     1       2.681   7.767  18.362  0.00  0.00    +0.000 A 
ATOM     11  C   UNL     1       3.580   7.388  17.206  0.00  0.00    +0.000 C 
ENDROOT
BRANCH   8  12
ATOM     12  O   UNL     1       0.437  10.515  19.188  0.00  0.00    +0.000 OA
ATOM     13  H   UNL     1       0.849  11.193  19.744  0.00  0.00    +0.000 HD
ENDBRANCH   8  12
BRANCH   1  14
ATOM     14  N   UNL     1       5.473   5.870  16.398  0.00  0.00    +0.000 NA
BRANCH  14  15
ATOM     15  C   UNL     1       6.923   5.937  16.695  0.00  0.00    +0.000 C 
BRANCH  15  17
ATOM     16  C   UNL     1       7.902   5.902  19.056  0.00  0.00    +0.000 C 
ATOM     17  C   UNL     1       7.365   6.757  17.918  0.00  0.00    +0.000 C 
ENDBRANCH  15  17
ENDBRANCH  14  15
BRANCH  14  18
ATOM     18  C   UNL     1       5.066   4.535  15.902  0.00  0.00    +0.000 C 
BRANCH  18  19
ATOM     19  C   UNL     1       6.142   3.727  15.156  0.00  0.00    +0.000 C 
ATOM     20  C   UNL     1       6.042   3.911  13.649  0.00  0.00    +0.000 C 
ENDBRANCH  18  19
ENDBRANCH  14  18
ENDBRANCH   1  14
TORSDOF 6
ENDMDL
MODEL 3
REMARK VINA RESULT:      -6.4      3.108      4.891
REMARK  Name = 
REMARK  9 active torsions:
REMARK  status: ('A' for Active; 'I' for Inactive)
REMARK    1  A    between atoms: C_1  and  C_2
REMARK    2  A    between atoms: C_2  and  C_3
REMARK    3  A    between atoms: C_3  and  N_4
REMARK    4  A    between atoms: N_4  and  C_5
REMARK    5  A    between atoms: N_4  and  C_8
REMARK    6  A    between atoms: C_5  and  C_6
REMARK    7  A    between atoms: C_6  and  C_7
REMARK    8  A    between atoms: C_13  and  C_14
REMARK    9  A    between atoms: C_15  and  O_16
REMARK                            x       y       z     vdW  Elec       q    Type
REMARK                         _______ _______ _______ _____ _____    ______ ____
ROOT
ATOM      1  C   UNL     1       5.184   5.537  16.957  0.00  0.00    +0.000 C 
ATOM      2  C   UNL     1       4.162   6.609  17.403  0.00  0.00    +0.000 C 
ATOM      3  C   UNL     1       2.882   5.946  17.914  0.00  0.00    +0.000 C 
ATOM      4  C   UNL     1       3.132   4.853  18.916  0.00  0.00    +0.000 A 
ATOM      5  C   UNL     1       2.058   4.369  19.680  0.00  0.00    +0.000 A 
ATOM      6  C   UNL     1       2.227   3.327  20.603  0.00  0.00    +0.000 A 
ATOM      7  C   UNL     1       1.045   2.849  21.394  0.00  0.00    +0.000 C 
ATOM      8  C   UNL     1       3.502   2.774  20.745  0.00  0.00    +0.000 A 
ATOM      9  C   UNL     1       4.575   3.238  19.985  0.00  0.00    +0.000 A 
ATOM     10  C   UNL     1       4.397   4.269  19.051  0.00  0.00    +0.000 A 
ATOM     11  C   UNL     1       5.580   4.743  18.236  0.00  0.00    +0.000 C 
ENDROOT
BRANCH   8  12
ATOM     12  O   UNL     1       3.777   1.757  21.615  0.00  0.00    +0.000 OA
ATOM     13  H   UNL     1       3.432   0.927  21.255  0.00  0.00    +0.000 HD
ENDBRANCH   8  12
BRANCH   1  14
ATOM     14  N   UNL     1       6.358   6.109  16.218  0.00  0.00    +0.000 NA
BRANCH  14  15
ATOM     15  C   UNL     1       7.388   6.601  17.161  0.00  0.00    +0.000 C 
BRANCH  15  17
ATOM     16  C   UNL     1       8.482   8.508  18.467  0.00  0.00    +0.000 C 
ATOM     17  C   UNL     1       7.495   8.119  17.376  0.00  0.00    +0.000 C 
ENDBRANCH  15  17
ENDBRANCH  14  15
BRANCH  14  18
ATOM     18  C   UNL     1       6.919   5.179  15.212  0.00  0.00    +0.000 C 
BRANCH  18  19
ATOM     19  C   UNL     1       6.046   3.969  14.839  0.00  0.00    +0.000 C 
ATOM     20  C   UNL     1       5.928   3.802  13.330  0.00  0.00    +0.000 C 
ENDBRANCH  18  19
ENDBRANCH  14  18
ENDBRANCH   1  14
TORSDOF 6
ENDMDL
MODEL 4
REMARK VINA RESULT:      -6.4      2.165      4.100
REMARK  Name = 
REMARK  9 active torsions:
REMARK  status: ('A' for Active; 'I' for Inactive)
REMARK    1  A    between atoms: C_1  and  C_2
REMARK    2  A    between atoms: C_2  and  C_3
REMARK    3  A    between atoms: C_3  and  N_4
REMARK    4  A    between atoms: N_4  and  C_5
REMARK    5  A    between atoms: N_4  and  C_8
REMARK    6  A    between atoms: C_5  and  C_6
REMARK    7  A    between atoms: C_6  and  C_7
REMARK    8  A    between atoms: C_13  and  C_14
REMARK    9  A    between atoms: C_15  and  O_16
REMARK                            x       y       z     vdW  Elec       q    Type
REMARK                         _______ _______ _______ _____ _____    ______ ____
ROOT
ATOM      1  C   UNL     1       2.640   6.466  18.354  0.00  0.00    +0.000 C 
ATOM      2  C   UNL     1       3.110   7.811  17.756  0.00  0.00    +0.000 C 
ATOM      3  C   UNL     1       2.000   8.857  17.853  0.00  0.00    +0.000 C 
ATOM      4  C   UNL     1       1.385   8.954  19.222  0.00  0.00    +0.000 A 
ATOM      5  C   UNL     1       0.574  10.058  19.530  0.00  0.00    +0.000 A 
ATOM      6  C   UNL     1      -0.052  10.180  20.778  0.00  0.00    +0.000 A 
ATOM      7  C   UNL     1      -0.906  11.382  21.055  0.00  0.00    +0.000 C 
ATOM      8  C   UNL     1       0.149   9.167  21.718  0.00  0.00    +0.000 A 
ATOM      9  C   UNL     1       0.944   8.060  21.422  0.00  0.00    +0.000 A 
ATOM     10  C   UNL     1       1.554   7.933  20.166  0.00  0.00    +0.000 A 
ATOM     11  C   UNL     1       2.402   6.715  19.873  0.00  0.00    +0.000 C 
ENDROOT
BRANCH   8  12
ATOM     12  O   UNL     1      -0.412   9.187  22.964  0.00  0.00    +0.000 OA
ATOM     13  H   UNL     1      -1.231   8.671  22.953  0.00  0.00    +0.000 HD
ENDBRANCH   8  12
BRANCH   1  14
ATOM     14  N   UNL     1       3.579   5.331  18.073  0.00  0.00    +0.000 NA
BRANCH  14  15
ATOM     15  C   UNL     1       4.380   4.996  19.273  0.00  0.00    +0.000 C 
BRANCH  15  17
ATOM     16  C   UNL     1       6.522   4.960  17.877  0.00  0.00    +0.000 C 
ATOM     17  C   UNL     1       5.891   5.275  19.225  0.00  0.00    +0.000 C 
ENDBRANCH  15  17
ENDBRANCH  14  15
BRANCH  14  18
ATOM     18  C   UNL     1       2.901   4.143  17.505  0.00  0.00    +0.000 C 
BRANCH  18  19
ATOM     19  C   UNL     1       1.413   3.974  17.857  0.00  0.00    +0.000 C 
ATOM     20  C   UNL     1       1.187   2.810  18.812  0.00  0.00    +0.000 C 
ENDBRANCH  18  19
ENDBRANCH  14  18
ENDBRANCH   1  14
TORSDOF 6
ENDMDL
MODEL 5
REMARK VINA RESULT:      -6.4      2.414      4.137
REMARK  Name = 
REMARK  9 active torsions:
REMARK  status: ('A' for Active; 'I' for Inactive)
REMARK    1  A    between atoms: C_1  and  C_2
REMARK    2  A    between atoms: C_2  and  C_3
REMARK    3  A    between atoms: C_3  and  N_4
REMARK    4  A    between atoms: N_4  and  C_5
REMARK    5  A    between atoms: N_4  and  C_8
REMARK    6  A    between atoms: C_5  and  C_6
REMARK    7  A    between atoms: C_6  and  C_7
REMARK    8  A    between atoms: C_13  and  C_14
REMARK    9  A    between atoms: C_15  and  O_16
REMARK                            x       y       z     vdW  Elec       q    Type
REMARK                         _______ _______ _______ _____ _____    ______ ____
ROOT
ATOM      1  C   UNL     1       2.125   6.785  18.617  0.00  0.00    +0.000 C 
ATOM      2  C   UNL     1       2.548   8.064  17.859  0.00  0.00    +0.000 C 
ATOM      3  C   UNL     1       1.529   9.180  18.083  0.00  0.00    +0.000 C 
ATOM      4  C   UNL     1       1.177   9.389  19.530  0.00  0.00    +0.000 A 
ATOM      5  C   UNL     1       0.493  10.557  19.905  0.00  0.00    +0.000 A 
ATOM      6  C   UNL     1       0.110  10.785  21.234  0.00  0.00    +0.000 A 
ATOM      7  C   UNL     1      -0.618  12.051  21.579  0.00  0.00    +0.000 C 
ATOM      8  C   UNL     1       0.424   9.814  22.187  0.00  0.00    +0.000 A 
ATOM      9  C   UNL     1       1.095   8.646  21.826  0.00  0.00    +0.000 A 
ATOM     10  C   UNL     1       1.460   8.413  20.493  0.00  0.00    +0.000 A 
ATOM     11  C   UNL     1       2.178   7.131  20.134  0.00  0.00    +0.000 C 
ENDROOT
BRANCH   8  12
ATOM     12  O   UNL     1       0.099   9.937  23.508  0.00  0.00    +0.000 OA
ATOM     13  H   UNL     1      -0.358   9.135  23.800  0.00  0.00    +0.000 HD
ENDBRANCH   8  12
BRANCH   1  14
ATOM     14  N   UNL     1       2.939   5.580  18.247  0.00  0.00    +0.000 NA
BRANCH  14  15
ATOM     15  C   UNL     1       2.071   4.487  17.752  0.00  0.00    +0.000 C 
BRANCH  15  17
ATOM     16  C   UNL     1       0.998   3.593  19.894  0.00  0.00    +0.000 C 
ATOM     17  C   UNL     1       1.849   3.276  18.673  0.00  0.00    +0.000 C 
ENDBRANCH  15  17
ENDBRANCH  14  15
BRANCH  14  18
ATOM     18  C   UNL     1       4.040   5.889  17.306  0.00  0.00    +0.000 C 
BRANCH  18  19
ATOM     19  C   UNL     1       5.469   5.732  17.853  0.00  0.00    +0.000 C 
ATOM     20  C   UNL     1       5.475   5.139  19.255  0.00  0.00    +0.000 C 
ENDBRANCH  18  19
ENDBRANCH  14  18
ENDBRANCH   1  14
TORSDOF 6
ENDMDL
MODEL 6
REMARK VINA RESULT:      -6.4      1.380      2.622
REMARK  Name = 
REMARK  9 active torsions:
REMARK  status: ('A' for Active; 'I' for Inactive)
REMARK    1  A    between atoms: C_1  and  C_2
REMARK    2  A    between atoms: C_2  and  C_3
REMARK    3  A    between atoms: C_3  and  N_4
REMARK    4  A    between atoms: N_4  and  C_5
REMARK    5  A    between atoms: N_4  and  C_8
REMARK    6  A    between atoms: C_5  and  C_6
REMARK    7  A    between atoms: C_6  and  C_7
REMARK    8  A    between atoms: C_13  and  C_14
REMARK    9  A    between atoms: C_15  and  O_16
REMARK                            x       y       z     vdW  Elec       q    Type
REMARK                         _______ _______ _______ _____ _____    ______ ____
ROOT
ATOM      1  C   UNL     1       3.778   5.369  19.145  0.00  0.00    +0.000 C 
ATOM      2  C   UNL     1       2.594   4.950  20.047  0.00  0.00    +0.000 C 
ATOM      3  C   UNL     1       2.094   6.144  20.860  0.00  0.00    +0.000 C 
ATOM      4  C   UNL     1       1.854   7.376  20.032  0.00  0.00    +0.000 A 
ATOM      5  C   UNL     1       1.123   8.439  20.586  0.00  0.00    +0.000 A 
ATOM      6  C   UNL     1       0.900   9.625  19.872  0.00  0.00    +0.000 A 
ATOM      7  C   UNL     1       0.111  10.728  20.511  0.00  0.00    +0.000 C 
ATOM      8  C   UNL     1       1.431   9.727  18.584  0.00  0.00    +0.000 A 
ATOM      9  C   UNL     1       2.167   8.682  18.026  0.00  0.00    +0.000 A 
ATOM     10  C   UNL     1       2.402   7.505  18.751  0.00  0.00    +0.000 A 
ATOM     11  C   UNL     1       3.213   6.395  18.120  0.00  0.00    +0.000 C 
ENDROOT
BRANCH   8  12
ATOM     12  O   UNL     1       1.272  10.835  17.801  0.00  0.00    +0.000 OA
ATOM     13  H   UNL     1       2.135  11.251  17.659  0.00  0.00    +0.000 HD
ENDBRANCH   8  12
BRANCH   1  14
ATOM     14  N   UNL     1       4.478   4.206  18.507  0.00  0.00    +0.000 NA
BRANCH  14  15
ATOM     15  C   UNL     1       5.914   4.501  18.299  0.00  0.00    +0.000 C 
BRANCH  15  17
ATOM     16  C   UNL     1       5.653   3.895  15.829  0.00  0.00    +0.000 C 
ATOM     17  C   UNL     1       6.394   4.736  16.858  0.00  0.00    +0.000 C 
ENDBRANCH  15  17
ENDBRANCH  14  15
BRANCH  14  18
ATOM     18  C   UNL     1       4.269   2.932  19.233  0.00  0.00    +0.000 C 
BRANCH  18  19
ATOM     19  C   UNL     1       3.670   1.772  18.420  0.00  0.00    +0.000 C 
ATOM     20  C   UNL     1       2.439   2.207  17.637  0.00  0.00    +0.000 C 
ENDBRANCH  18  19
ENDBRANCH  14  18
ENDBRANCH   1  14
TORSDOF 6
ENDMDL
MODEL 7
REMARK VINA RESULT:      -6.4      1.888      3.548
REMARK  Name = 
REMARK  9 active torsions:
REMARK  status: ('A' for Active; 'I' for Inactive)
REMARK    1  A    between atoms: C_1  and  C_2
REMARK    2  A    between atoms: C_2  and  C_3
REMARK    3  A    between atoms: C_3  and  N_4
REMARK    4  A    between atoms: N_4  and  C_5
REMARK    5  A    between atoms: N_4  and  C_8
REMARK    6  A    between atoms: C_5  and  C_6
REMARK    7  A    between atoms: C_6  and  C_7
REMARK    8  A    between atoms: C_13  and  C_14
REMARK    9  A    between atoms: C_15  and  O_16
REMARK                            x       y       z     vdW  Elec       q    Type
REMARK                         _______ _______ _______ _____ _____    ______ ____
ROOT
ATOM      1  C   UNL     1       3.080   5.893  18.393  0.00  0.00    +0.000 C 
ATOM      2  C   UNL     1       3.637   7.151  17.688  0.00  0.00    +0.000 C 
ATOM      3  C   UNL     1       2.558   8.230  17.591  0.00  0.00    +0.000 C 
ATOM      4  C   UNL     1       1.853   8.492  18.893  0.00  0.00    +0.000 A 
ATOM      5  C   UNL     1       1.060   9.644  19.020  0.00  0.00    +0.000 A 
ATOM      6  C   UNL     1       0.352   9.919  20.198  0.00  0.00    +0.000 A 
ATOM      7  C   UNL     1      -0.478  11.166  20.280  0.00  0.00    +0.000 C 
ATOM      8  C   UNL     1       0.453   9.011  21.254  0.00  0.00    +0.000 A 
ATOM      9  C   UNL     1       1.228   7.858  21.137  0.00  0.00    +0.000 A 
ATOM     10  C   UNL     1       1.920   7.578  19.951  0.00  0.00    +0.000 A 
ATOM     11  C   UNL     1       2.745   6.313  19.854  0.00  0.00    +0.000 C 
ENDROOT
BRANCH   8  12
ATOM     12  O   UNL     1      -0.193   9.182  22.445  0.00  0.00    +0.000 OA
ATOM     13  H   UNL     1      -0.167   8.353  22.945  0.00  0.00    +0.000 HD
ENDBRANCH   8  12
BRANCH   1  14
ATOM     14  N   UNL     1       3.998   4.709  18.305  0.00  0.00    +0.000 NA
BRANCH  14  15
ATOM     15  C   UNL     1       3.252   3.487  17.928  0.00  0.00    +0.000 C 
BRANCH  15  17
ATOM     16  C   UNL     1       0.971   2.654  18.730  0.00  0.00    +0.000 C 
ATOM     17  C   UNL     1       1.723   3.595  17.800  0.00  0.00    +0.000 C 
ENDBRANCH  15  17
ENDBRANCH  14  15
BRANCH  14  18
ATOM     18  C   UNL     1       5.166   4.944  17.425  0.00  0.00    +0.000 C 
BRANCH  18  19
ATOM     19  C   UNL     1       5.208   4.135  16.117  0.00  0.00    +0.000 C 
ATOM     20  C   UNL     1       5.651   4.992  14.938  0.00  0.00    +0.000 C 
ENDBRANCH  18  19
ENDBRANCH  14  18
ENDBRANCH   1  14
TORSDOF 6
ENDMDL
MODEL 8
REMARK VINA RESULT:      -6.4      1.052      1.294
REMARK  Name = 
REMARK  9 active torsions:
REMARK  status: ('A' for Active; 'I' for Inactive)
REMARK    1  A    between atoms: C_1  and  C_2
REMARK    2  A    between atoms: C_2  and  C_3
REMARK    3  A    between atoms: C_3  and  N_4
REMARK    4  A    between atoms: N_4  and  C_5
REMARK    5  A    between atoms: N_4  and  C_8
REMARK    6  A    between atoms: C_5  and  C_6
REMARK    7  A    between atoms: C_6  and  C_7
REMARK    8  A    between atoms: C_13  and  C_14
REMARK    9  A    between atoms: C_15  and  O_16
REMARK                            x       y       z     vdW  Elec       q    Type
REMARK                         _______ _______ _______ _____ _____    ______ ____
ROOT
ATOM      1  C   UNL     1       3.922   6.077  18.366  0.00  0.00    +0.000 C 
ATOM      2  C   UNL     1       2.799   5.406  19.189  0.00  0.00    +0.000 C 
ATOM      3  C   UNL     1       2.235   6.384  20.220  0.00  0.00    +0.000 C 
ATOM      4  C   UNL     1       1.882   7.727  19.643  0.00  0.00    +0.000 A 
ATOM      5  C   UNL     1       1.090   8.607  20.397  0.00  0.00    +0.000 A 
ATOM      6  C   UNL     1       0.761   9.885  19.923  0.00  0.00    +0.000 A 
ATOM      7  C   UNL     1      -0.090  10.784  20.770  0.00  0.00    +0.000 C 
ATOM      8  C   UNL     1       1.245  10.267  18.670  0.00  0.00    +0.000 A 
ATOM      9  C   UNL     1       2.041   9.406  17.914  0.00  0.00    +0.000 A 
ATOM     10  C   UNL     1       2.382   8.136  18.401  0.00  0.00    +0.000 A 
ATOM     11  C   UNL     1       3.255   7.230  17.561  0.00  0.00    +0.000 C 
ENDROOT
BRANCH   8  12
ATOM     12  O   UNL     1       0.983  11.486  18.113  0.00  0.00    +0.000 OA
ATOM     13  H   UNL     1       0.201  11.417  17.546  0.00  0.00    +0.000 HD
ENDBRANCH   8  12
BRANCH   1  14
ATOM     14  N   UNL     1       4.688   5.112  17.510  0.00  0.00    +0.000 NA
BRANCH  14  15
ATOM     15  C   UNL     1       5.057   5.730  16.216  0.00  0.00    +0.000 C 
BRANCH  15  17
ATOM     16  C   UNL     1       6.980   4.840  14.784  0.00  0.00    +0.000 C 
ATOM     17  C   UNL     1       5.487   4.795  15.073  0.00  0.00    +0.000 C 
ENDBRANCH  15  17
ENDBRANCH  14  15
BRANCH  14  18
ATOM     18  C   UNL     1       5.858   4.523  18.201  0.00  0.00    +0.000 C 
BRANCH  18  19
ATOM     19  C   UNL     1       6.531   5.401  19.271  0.00  0.00    +0.000 C 
ATOM     20  C   UNL     1       7.740   6.140  18.715  0.00  0.00    +0.000 C 
ENDBRANCH  18  19
ENDBRANCH  14  18
ENDBRANCH   1  14
TORSDOF 6
ENDMDL
MODEL 9
REMARK VINA RESULT:      -6.3      2.325      4.329
REMARK  Name = 
REMARK  9 active torsions:
REMARK  status: ('A' for Active; 'I' for Inactive)
REMARK    1  A    between atoms: C_1  and  C_2
REMARK    2  A    between atoms: C_2  and  C_3
REMARK    3  A    between atoms: C_3  and  N_4
REMARK    4  A    between atoms: N_4  and  C_5
REMARK    5  A    between atoms: N_4  and  C_8
REMARK    6  A    between atoms: C_5  and  C_6
REMARK    7  A    between atoms: C_6  and  C_7
REMARK    8  A    between atoms: C_13  and  C_14
REMARK    9  A    between atoms: C_15  and  O_16
REMARK                            x       y       z     vdW  Elec       q    Type
REMARK                         _______ _______ _______ _____ _____    ______ ____
ROOT
ATOM      1  C   UNL     1       2.165   6.148  19.089  0.00  0.00    +0.000 C 
ATOM      2  C   UNL     1       2.846   7.192  18.174  0.00  0.00    +0.000 C 
ATOM      3  C   UNL     1       1.971   8.439  18.044  0.00  0.00    +0.000 C 
ATOM      4  C   UNL     1       1.489   8.974  19.364  0.00  0.00    +0.000 A 
ATOM      5  C   UNL     1       0.934  10.263  19.417  0.00  0.00    +0.000 A 
ATOM      6  C   UNL     1       0.437  10.796  20.614  0.00  0.00    +0.000 A 
ATOM      7  C   UNL     1      -0.143  12.180  20.614  0.00  0.00    +0.000 C 
ATOM      8  C   UNL     1       0.502  10.007  21.764  0.00  0.00    +0.000 A 
ATOM      9  C   UNL     1       1.041   8.722  21.723  0.00  0.00    +0.000 A 
ATOM     10  C   UNL     1       1.522   8.185  20.521  0.00  0.00    +0.000 A 
ATOM     11  C   UNL     1       2.091   6.784  20.508  0.00  0.00    +0.000 C 
ENDROOT
BRANCH   8  12
ATOM     12  O   UNL     1       0.048  10.430  22.982  0.00  0.00    +0.000 OA
ATOM     13  H   UNL     1       0.111   9.701  23.616  0.00  0.00    +0.000 HD
ENDBRANCH   8  12
BRANCH   1  14
ATOM     14  N   UNL     1       2.841   4.809  19.066  0.00  0.00    +0.000 NA
BRANCH  14  15
ATOM     15  C   UNL     1       1.884   3.740  18.699  0.00  0.00    +0.000 C 
BRANCH  15  17
ATOM     16  C   UNL     1       1.525   3.100  21.149  0.00  0.00    +0.000 C 
ATOM     17  C   UNL     1       0.892   3.268  19.775  0.00  0.00    +0.000 C 
ENDBRANCH  15  17
ENDBRANCH  14  15
BRANCH  14  18
ATOM     18  C   UNL     1       4.055   4.786  18.219  0.00  0.00    +0.000 C 
BRANCH  18  19
ATOM     19  C   UNL     1       4.016   3.856  16.994  0.00  0.00    +0.000 C 
ATOM     20  C   UNL     1       5.077   4.229  15.968  0.00  0.00    +0.000 C 
ENDBRANCH  18  19
ENDBRANCH  14  18
ENDBRANCH   1  14
TORSDOF 6
ENDMDL
