MODEL 1
REMARK VINA RESULT:      -6.0      0.000      0.000
REMARK  Name = 
REMARK  3 active torsions:
REMARK  status: ('A' for Active; 'I' for Inactive)
REMARK    1  A    between atoms: C_1  and  N_2
REMARK    2  A    between atoms: C_12  and  N_13
REMARK    3  A    between atoms: C_22  and  N_23
REMARK                            x       y       z     vdW  Elec       q    Type
REMARK                         _______ _______ _______ _____ _____    ______ ____
ROOT
ATOM      1  C   UNL     1      -0.575  14.074  19.108  0.00  0.00    +0.000 C 
ATOM      2  N   UNL     1      -1.553  13.286  20.048  0.00  0.00    +0.000 N 
ATOM      3  C   UNL     1      -2.263  13.847  20.947  0.00  0.00    +0.000 C 
ATOM      4  C   UNL     1      -3.584  13.344  21.377  0.00  0.00    +0.000 C 
ATOM      5  C   UNL     1      -4.417  14.102  22.094  0.00  0.00    +0.000 C 
ATOM      6  C   UNL     1      -4.209  15.489  22.397  0.00  0.00    +0.000 C 
ATOM      7  C   UNL     1      -3.034  16.107  22.615  0.00  0.00    +0.000 C 
ATOM      8  C   UNL     1      -1.708  15.474  22.674  0.00  0.00    +0.000 C 
ATOM      9  C   UNL     1      -1.367  14.411  21.939  0.00  0.00    +0.000 C 
ATOM     10  S   UNL     1       0.099  13.373  21.773  0.00  0.00    +0.000 S 
ATOM     11  C   UNL     1      -1.143  11.878  20.560  0.00  0.00    +0.000 C 
ATOM     12  C   UNL     1      -0.965  11.323  19.134  0.00  0.00    +0.000 C 
ATOM     13  C   UNL     1      -0.161  10.393  18.612  0.00  0.00    +0.000 C 
ATOM     14  C   UNL     1       0.738   9.692  19.525  0.00  0.00    +0.000 C 
ATOM     15  N   UNL     1       1.577   8.616  19.000  0.00  0.00    +0.000 N 
ATOM     16  O   UNL     1       1.582   8.490  17.769  0.00  0.00    +0.000 OA
ATOM     17  O   UNL     1       2.163   7.923  19.828  0.00  0.00    +0.000 OA
ATOM     18  C   UNL     1       0.575   9.945  20.986  0.00  0.00    +0.000 C 
ATOM     19  C   UNL     1      -0.290  10.901  21.401  0.00  0.00    +0.000 C 
ENDROOT
BRANCH  12  20
ATOM     20  N   UNL     1      -2.156  11.506  18.273  0.00  0.00    +0.000 N 
ATOM     21  O   UNL     1      -1.937  11.817  17.099  0.00  0.00    +0.000 OA
ATOM     22  O   UNL     1      -3.247  11.204  18.756  0.00  0.00    +0.000 OA
ENDBRANCH  12  20
BRANCH  19  23
ATOM     23  N   UNL     1      -0.724  10.723  22.780  0.00  0.00    +0.000 N 
ATOM     24  O   UNL     1       0.104  10.168  23.515  0.00  0.00    +0.000 OA
ATOM     25  O   UNL     1      -1.842  11.129  23.126  0.00  0.00    +0.000 OA
ENDBRANCH  19  23
TORSDOF 2
ENDMDL
MODEL 2
REMARK VINA RESULT:      -6.0      3.097      6.090
REMARK  Name = 
REMARK  3 active torsions:
REMARK  status: ('A' for Active; 'I' for Inactive)
REMARK    1  A    between atoms: C_1  and  N_2
REMARK    2  A    between atoms: C_12  and  N_13
REMARK    3  A    between atoms: C_22  and  N_23
REMARK                            x       y       z     vdW  Elec       q    Type
REMARK                         _______ _______ _______ _____ _____    ______ ____
ROOT
ATOM      1  C   UNL     1      -0.403  14.506  19.118  0.00  0.00    +0.000 C 
ATOM      2  N   UNL     1       0.057  13.274  19.970  0.00  0.00    +0.000 N 
ATOM      3  C   UNL     1      -0.006  12.070  19.552  0.00  0.00    +0.000 C 
ATOM      4  C   UNL     1       0.938  11.011  19.964  0.00  0.00    +0.000 C 
ATOM      5  C   UNL     1       1.025   9.858  19.296  0.00  0.00    +0.000 C 
ATOM      6  C   UNL     1       0.352   9.573  18.062  0.00  0.00    +0.000 C 
ATOM      7  C   UNL     1      -0.859  10.013  17.675  0.00  0.00    +0.000 C 
ATOM      8  C   UNL     1      -1.796  10.818  18.472  0.00  0.00    +0.000 C 
ATOM      9  C   UNL     1      -1.405  11.734  19.365  0.00  0.00    +0.000 C 
ATOM     10  S   UNL     1      -2.231  12.848  20.518  0.00  0.00    +0.000 S 
ATOM     11  C   UNL     1      -0.206  13.270  21.502  0.00  0.00    +0.000 C 
ATOM     12  C   UNL     1       0.570  14.583  21.718  0.00  0.00    +0.000 C 
ATOM     13  C   UNL     1       0.442  15.584  22.595  0.00  0.00    +0.000 C 
ATOM     14  C   UNL     1      -0.605  15.461  23.606  0.00  0.00    +0.000 C 
ATOM     15  N   UNL     1      -0.724  16.502  24.626  0.00  0.00    +0.000 N 
ATOM     16  O   UNL     1      -0.022  17.506  24.454  0.00  0.00    +0.000 OA
ATOM     17  O   UNL     1      -1.476  16.264  25.568  0.00  0.00    +0.000 OA
ATOM     18  C   UNL     1      -1.337  14.165  23.690  0.00  0.00    +0.000 C 
ATOM     19  C   UNL     1      -1.108  13.212  22.755  0.00  0.00    +0.000 C 
ENDROOT
BRANCH  12  20
ATOM     20  N   UNL     1       1.949  14.554  21.180  0.00  0.00    +0.000 N 
ATOM     21  O   UNL     1       2.319  15.564  20.574  0.00  0.00    +0.000 OA
ATOM     22  O   UNL     1       2.651  13.594  21.493  0.00  0.00    +0.000 OA
ENDBRANCH  12  20
BRANCH  19  23
ATOM     23  N   UNL     1      -1.473  11.873  23.198  0.00  0.00    +0.000 N 
ATOM     24  O   UNL     1      -0.545  11.052  23.182  0.00  0.00    +0.000 OA
ATOM     25  O   UNL     1      -2.636  11.645  23.561  0.00  0.00    +0.000 OA
ENDBRANCH  19  23
TORSDOF 2
ENDMDL
MODEL 3
REMARK VINA RESULT:      -5.8      9.134     11.332
REMARK  Name = 
REMARK  3 active torsions:
REMARK  status: ('A' for Active; 'I' for Inactive)
REMARK    1  A    between atoms: C_1  and  N_2
REMARK    2  A    between atoms: C_12  and  N_13
REMARK    3  A    between atoms: C_22  and  N_23
REMARK                            x       y       z     vdW  Elec       q    Type
REMARK                         _______ _______ _______ _____ _____    ______ ____
ROOT
ATOM      1  C   UNL     1      10.343  15.094  21.514  0.00  0.00    +0.000 C 
ATOM      2  N   UNL     1       9.703  14.308  20.319  0.00  0.00    +0.000 N 
ATOM      3  C   UNL     1      10.192  14.306  19.140  0.00  0.00    +0.000 C 
ATOM      4  C   UNL     1      10.068  13.168  18.206  0.00  0.00    +0.000 C 
ATOM      5  C   UNL     1      10.828  13.082  17.110  0.00  0.00    +0.000 C 
ATOM      6  C   UNL     1      11.913  13.964  16.794  0.00  0.00    +0.000 C 
ATOM      7  C   UNL     1      12.005  15.277  17.078  0.00  0.00    +0.000 C 
ATOM      8  C   UNL     1      10.970  16.113  17.703  0.00  0.00    +0.000 C 
ATOM      9  C   UNL     1      10.110  15.658  18.619  0.00  0.00    +0.000 C 
ATOM     10  S   UNL     1       8.727  16.349  19.549  0.00  0.00    +0.000 S 
ATOM     11  C   UNL     1       8.156  14.230  20.203  0.00  0.00    +0.000 C 
ATOM     12  C   UNL     1       8.004  13.599  21.600  0.00  0.00    +0.000 C 
ATOM     13  C   UNL     1       7.044  13.660  22.528  0.00  0.00    +0.000 C 
ATOM     14  C   UNL     1       5.851  14.439  22.211  0.00  0.00    +0.000 C 
ATOM     15  N   UNL     1       4.751  14.465  23.173  0.00  0.00    +0.000 N 
ATOM     16  O   UNL     1       4.986  13.952  24.273  0.00  0.00    +0.000 OA
ATOM     17  O   UNL     1       3.694  14.959  22.786  0.00  0.00    +0.000 OA
ATOM     18  C   UNL     1       5.717  14.965  20.822  0.00  0.00    +0.000 C 
ATOM     19  C   UNL     1       6.751  14.824  19.957  0.00  0.00    +0.000 C 
ENDROOT
BRANCH  12  20
ATOM     20  N   UNL     1       8.818  12.377  21.792  0.00  0.00    +0.000 N 
ATOM     21  O   UNL     1       9.326  12.230  22.907  0.00  0.00    +0.000 OA
ATOM     22  O   UNL     1       8.810  11.551  20.880  0.00  0.00    +0.000 OA
ENDBRANCH  12  20
BRANCH  19  23
ATOM     23  N   UNL     1       6.347  14.911  18.560  0.00  0.00    +0.000 N 
ATOM     24  O   UNL     1       5.487  15.771  18.324  0.00  0.00    +0.000 OA
ATOM     25  O   UNL     1       6.872  14.162  17.725  0.00  0.00    +0.000 OA
ENDBRANCH  19  23
TORSDOF 2
ENDMDL
MODEL 4
REMARK VINA RESULT:      -5.8      2.919      4.214
REMARK  Name = 
REMARK  3 active torsions:
REMARK  status: ('A' for Active; 'I' for Inactive)
REMARK    1  A    between atoms: C_1  and  N_2
REMARK    2  A    between atoms: C_12  and  N_13
REMARK    3  A    between atoms: C_22  and  N_23
REMARK                            x       y       z     vdW  Elec       q    Type
REMARK                         _______ _______ _______ _____ _____    ______ ____
ROOT
ATOM      1  C   UNL     1      -6.354  14.475  19.357  0.00  0.00    +0.000 C 
ATOM      2  N   UNL     1      -6.085  13.515  20.566  0.00  0.00    +0.000 N 
ATOM      3  C   UNL     1      -6.416  13.792  21.767  0.00  0.00    +0.000 C 
ATOM      4  C   UNL     1      -6.788  12.772  22.768  0.00  0.00    +0.000 C 
ATOM      5  C   UNL     1      -7.402  13.105  23.906  0.00  0.00    +0.000 C 
ATOM      6  C   UNL     1      -7.891  14.416  24.220  0.00  0.00    +0.000 C 
ATOM      7  C   UNL     1      -7.354  15.595  23.854  0.00  0.00    +0.000 C 
ATOM      8  C   UNL     1      -6.097  15.794  23.118  0.00  0.00    +0.000 C 
ATOM      9  C   UNL     1      -5.644  14.946  22.190  0.00  0.00    +0.000 C 
ATOM     10  S   UNL     1      -4.180  14.839  21.142  0.00  0.00    +0.000 S 
ATOM     11  C   UNL     1      -4.768  12.692  20.603  0.00  0.00    +0.000 C 
ATOM     12  C   UNL     1      -5.055  12.023  19.245  0.00  0.00    +0.000 C 
ATOM     13  C   UNL     1      -4.265  11.575  18.265  0.00  0.00    +0.000 C 
ATOM     14  C   UNL     1      -2.822  11.678  18.464  0.00  0.00    +0.000 C 
ATOM     15  N   UNL     1      -1.930  11.129  17.445  0.00  0.00    +0.000 N 
ATOM     16  O   UNL     1      -2.473  10.762  16.396  0.00  0.00    +0.000 OA
ATOM     17  O   UNL     1      -0.739  11.054  17.740  0.00  0.00    +0.000 OA
ATOM     18  C   UNL     1      -2.339  12.115  19.805  0.00  0.00    +0.000 C 
ATOM     19  C   UNL     1      -3.236  12.528  20.732  0.00  0.00    +0.000 C 
ENDROOT
BRANCH  12  20
ATOM     20  N   UNL     1      -6.373  11.351  19.182  0.00  0.00    +0.000 N 
ATOM     21  O   UNL     1      -7.009  11.498  18.134  0.00  0.00    +0.000 OA
ATOM     22  O   UNL     1      -6.665  10.601  20.112  0.00  0.00    +0.000 OA
ENDBRANCH  12  20
BRANCH  19  23
ATOM     23  N   UNL     1      -2.730  12.452  22.096  0.00  0.00    +0.000 N 
ATOM     24  O   UNL     1      -3.563  12.082  22.935  0.00  0.00    +0.000 OA
ATOM     25  O   UNL     1      -1.547  12.737  22.326  0.00  0.00    +0.000 OA
ENDBRANCH  19  23
TORSDOF 2
ENDMDL
MODEL 5
REMARK VINA RESULT:      -5.7      2.041      2.882
REMARK  Name = 
REMARK  3 active torsions:
REMARK  status: ('A' for Active; 'I' for Inactive)
REMARK    1  A    between atoms: C_1  and  N_2
REMARK    2  A    between atoms: C_12  and  N_13
REMARK    3  A    between atoms: C_22  and  N_23
REMARK                            x       y       z     vdW  Elec       q    Type
REMARK                         _______ _______ _______ _____ _____    ______ ____
ROOT
ATOM      1  C   UNL     1      -2.679  15.303  20.629  0.00  0.00    +0.000 C 
ATOM      2  N   UNL     1      -2.742  14.175  21.715  0.00  0.00    +0.000 N 
ATOM      3  C   UNL     1      -2.533  14.385  22.956  0.00  0.00    +0.000 C 
ATOM      4  C   UNL     1      -3.176  13.607  24.035  0.00  0.00    +0.000 C 
ATOM      5  C   UNL     1      -3.166  14.034  25.301  0.00  0.00    +0.000 C 
ATOM      6  C   UNL     1      -2.684  15.315  25.730  0.00  0.00    +0.000 C 
ATOM      7  C   UNL     1      -1.665  16.020  25.204  0.00  0.00    +0.000 C 
ATOM      8  C   UNL     1      -0.766  15.588  24.124  0.00  0.00    +0.000 C 
ATOM      9  C   UNL     1      -1.154  14.803  23.114  0.00  0.00    +0.000 C 
ATOM     10  S   UNL     1      -0.355  14.059  21.677  0.00  0.00    +0.000 S 
ATOM     11  C   UNL     1      -2.213  12.756  21.367  0.00  0.00    +0.000 C 
ATOM     12  C   UNL     1      -3.167  12.608  20.166  0.00  0.00    +0.000 C 
ATOM     13  C   UNL     1      -3.071  11.962  19.000  0.00  0.00    +0.000 C 
ATOM     14  C   UNL     1      -1.856  11.190  18.757  0.00  0.00    +0.000 C 
ATOM     15  N   UNL     1      -1.751  10.412  17.525  0.00  0.00    +0.000 N 
ATOM     16  O   UNL     1      -2.645  10.600  16.691  0.00  0.00    +0.000 OA
ATOM     17  O   UNL     1      -0.811   9.623  17.451  0.00  0.00    +0.000 OA
ATOM     18  C   UNL     1      -0.893  11.042  19.887  0.00  0.00    +0.000 C 
ATOM     19  C   UNL     1      -1.106  11.730  21.034  0.00  0.00    +0.000 C 
ENDROOT
BRANCH  12  20
ATOM     20  N   UNL     1      -4.591  12.829  20.508  0.00  0.00    +0.000 N 
ATOM     21  O   UNL     1      -5.258  13.461  19.683  0.00  0.00    +0.000 OA
ATOM     22  O   UNL     1      -5.021  12.257  21.509  0.00  0.00    +0.000 OA
ENDBRANCH  12  20
BRANCH  19  23
ATOM     23  N   UNL     1      -0.426  11.152  22.185  0.00  0.00    +0.000 N 
ATOM     24  O   UNL     1       0.733  10.774  21.964  0.00  0.00    +0.000 OA
ATOM     25  O   UNL     1      -1.015  11.085  23.272  0.00  0.00    +0.000 OA
ENDBRANCH  19  23
TORSDOF 2
ENDMDL
MODEL 6
REMARK VINA RESULT:      -5.7      3.180      6.194
REMARK  Name = 
REMARK  3 active torsions:
REMARK  status: ('A' for Active; 'I' for Inactive)
REMARK    1  A    between atoms: C_1  and  N_2
REMARK    2  A    between atoms: C_12  and  N_13
REMARK    3  A    between atoms: C_22  and  N_23
REMARK                            x       y       z     vdW  Elec       q    Type
REMARK                         _______ _______ _______ _____ _____    ______ ____
ROOT
ATOM      1  C   UNL     1      -0.727  10.763  22.557  0.00  0.00    +0.000 C 
ATOM      2  N   UNL     1      -1.295  11.690  21.428  0.00  0.00    +0.000 N 
ATOM      3  C   UNL     1      -1.222  11.406  20.186  0.00  0.00    +0.000 C 
ATOM      4  C   UNL     1      -2.226  11.833  19.190  0.00  0.00    +0.000 C 
ATOM      5  C   UNL     1      -2.278  11.282  17.974  0.00  0.00    +0.000 C 
ATOM      6  C   UNL     1      -1.499  10.154  17.552  0.00  0.00    +0.000 C 
ATOM      7  C   UNL     1      -0.246   9.841  17.932  0.00  0.00    +0.000 C 
ATOM      8  C   UNL     1       0.631  10.638  18.802  0.00  0.00    +0.000 C 
ATOM      9  C   UNL     1       0.179  11.390  19.812  0.00  0.00    +0.000 C 
ATOM     10  S   UNL     1       0.920  12.495  21.029  0.00  0.00    +0.000 S 
ATOM     11  C   UNL     1      -1.177  13.232  21.581  0.00  0.00    +0.000 C 
ATOM     12  C   UNL     1      -1.938  13.236  22.921  0.00  0.00    +0.000 C 
ATOM     13  C   UNL     1      -1.868  14.014  24.005  0.00  0.00    +0.000 C 
ATOM     14  C   UNL     1      -0.924  15.128  23.975  0.00  0.00    +0.000 C 
ATOM     15  N   UNL     1      -0.877  16.042  25.115  0.00  0.00    +0.000 N 
ATOM     16  O   UNL     1      -1.534  15.701  26.106  0.00  0.00    +0.000 OA
ATOM     17  O   UNL     1      -0.222  17.071  24.966  0.00  0.00    +0.000 OA
ATOM     18  C   UNL     1      -0.235  15.415  22.684  0.00  0.00    +0.000 C 
ATOM     19  C   UNL     1      -0.398  14.566  21.642  0.00  0.00    +0.000 C 
ENDROOT
BRANCH  12  20
ATOM     20  N   UNL     1      -3.261  12.574  22.855  0.00  0.00    +0.000 N 
ATOM     21  O   UNL     1      -3.571  11.879  23.826  0.00  0.00    +0.000 OA
ATOM     22  O   UNL     1      -3.991  12.876  21.912  0.00  0.00    +0.000 OA
ENDBRANCH  12  20
BRANCH  19  23
ATOM     23  N   UNL     1      -0.109  15.177  20.352  0.00  0.00    +0.000 N 
ATOM     24  O   UNL     1       0.882  15.920  20.343  0.00  0.00    +0.000 OA
ATOM     25  O   UNL     1      -0.832  14.922  19.379  0.00  0.00    +0.000 OA
ENDBRANCH  19  23
TORSDOF 2
ENDMDL
MODEL 7
REMARK VINA RESULT:      -5.7      2.186      3.227
REMARK  Name = 
REMARK  3 active torsions:
REMARK  status: ('A' for Active; 'I' for Inactive)
REMARK    1  A    between atoms: C_1  and  N_2
REMARK    2  A    between atoms: C_12  and  N_13
REMARK    3  A    between atoms: C_22  and  N_23
REMARK                            x       y       z     vdW  Elec       q    Type
REMARK                         _______ _______ _______ _____ _____    ______ ____
ROOT
ATOM      1  C   UNL     1      -1.579  15.239  20.431  0.00  0.00    +0.000 C 
ATOM      2  N   UNL     1      -2.913  14.441  20.635  0.00  0.00    +0.000 N 
ATOM      3  C   UNL     1      -4.056  15.000  20.734  0.00  0.00    +0.000 C 
ATOM      4  C   UNL     1      -5.314  14.370  20.287  0.00  0.00    +0.000 C 
ATOM      5  C   UNL     1      -6.433  15.084  20.134  0.00  0.00    +0.000 C 
ATOM      6  C   UNL     1      -6.515  16.512  20.235  0.00  0.00    +0.000 C 
ATOM      7  C   UNL     1      -5.798  17.313  21.045  0.00  0.00    +0.000 C 
ATOM      8  C   UNL     1      -4.829  16.887  22.066  0.00  0.00    +0.000 C 
ATOM      9  C   UNL     1      -4.059  15.802  21.943  0.00  0.00    +0.000 C 
ATOM     10  S   UNL     1      -2.827  14.970  22.964  0.00  0.00    +0.000 S 
ATOM     11  C   UNL     1      -2.911  13.178  21.540  0.00  0.00    +0.000 C 
ATOM     12  C   UNL     1      -1.816  12.485  20.706  0.00  0.00    +0.000 C 
ATOM     13  C   UNL     1      -0.844  11.621  21.016  0.00  0.00    +0.000 C 
ATOM     14  C   UNL     1      -0.761  11.172  22.403  0.00  0.00    +0.000 C 
ATOM     15  N   UNL     1       0.242  10.171  22.759  0.00  0.00    +0.000 N 
ATOM     16  O   UNL     1       1.067   9.898  21.878  0.00  0.00    +0.000 OA
ATOM     17  O   UNL     1       0.149   9.674  23.880  0.00  0.00    +0.000 OA
ATOM     18  C   UNL     1      -1.859  11.575  23.328  0.00  0.00    +0.000 C 
ATOM     19  C   UNL     1      -2.806  12.441  22.895  0.00  0.00    +0.000 C 
ENDROOT
BRANCH  12  20
ATOM     20  N   UNL     1      -2.139  12.390  19.264  0.00  0.00    +0.000 N 
ATOM     21  O   UNL     1      -1.218  12.643  18.482  0.00  0.00    +0.000 OA
ATOM     22  O   UNL     1      -3.245  11.941  18.967  0.00  0.00    +0.000 OA
ENDBRANCH  12  20
BRANCH  19  23
ATOM     23  N   UNL     1      -4.042  12.373  23.664  0.00  0.00    +0.000 N 
ATOM     24  O   UNL     1      -5.069  12.261  22.981  0.00  0.00    +0.000 OA
ATOM     25  O   UNL     1      -3.995  12.417  24.901  0.00  0.00    +0.000 OA
ENDBRANCH  19  23
TORSDOF 2
ENDMDL
MODEL 8
REMARK VINA RESULT:      -5.6      2.206      3.422
REMARK  Name = 
REMARK  3 active torsions:
REMARK  status: ('A' for Active; 'I' for Inactive)
REMARK    1  A    between atoms: C_1  and  N_2
REMARK    2  A    between atoms: C_12  and  N_13
REMARK    3  A    between atoms: C_22  and  N_23
REMARK                            x       y       z     vdW  Elec       q    Type
REMARK                         _______ _______ _______ _____ _____    ______ ____
ROOT
ATOM      1  C   UNL     1      -3.320  15.654  20.706  0.00  0.00    +0.000 C 
ATOM      2  N   UNL     1      -2.963  14.630  21.837  0.00  0.00    +0.000 N 
ATOM      3  C   UNL     1      -2.500  14.976  22.975  0.00  0.00    +0.000 C 
ATOM      4  C   UNL     1      -2.752  14.226  24.222  0.00  0.00    +0.000 C 
ATOM      5  C   UNL     1      -2.505  14.764  25.420  0.00  0.00    +0.000 C 
ATOM      6  C   UNL     1      -2.125  16.129  25.642  0.00  0.00    +0.000 C 
ATOM      7  C   UNL     1      -1.370  16.905  24.842  0.00  0.00    +0.000 C 
ATOM      8  C   UNL     1      -0.698  16.492  23.601  0.00  0.00    +0.000 C 
ATOM      9  C   UNL     1      -1.196  15.576  22.764  0.00  0.00    +0.000 C 
ATOM     10  S   UNL     1      -0.661  14.810  21.221  0.00  0.00    +0.000 S 
ATOM     11  C   UNL     1      -2.334  13.262  21.453  0.00  0.00    +0.000 C 
ATOM     12  C   UNL     1      -3.512  12.888  20.534  0.00  0.00    +0.000 C 
ATOM     13  C   UNL     1      -3.602  12.156  19.420  0.00  0.00    +0.000 C 
ATOM     14  C   UNL     1      -2.381  11.522  18.931  0.00  0.00    +0.000 C 
ATOM     15  N   UNL     1      -2.459  10.654  17.758  0.00  0.00    +0.000 N 
ATOM     16  O   UNL     1      -3.542  10.653  17.160  0.00  0.00    +0.000 OA
ATOM     17  O   UNL     1      -1.460   9.986  17.501  0.00  0.00    +0.000 OA
ATOM     18  C   UNL     1      -1.168  11.599  19.796  0.00  0.00    +0.000 C 
ATOM     19  C   UNL     1      -1.201  12.357  20.918  0.00  0.00    +0.000 C 
ENDROOT
BRANCH  12  20
ATOM     20  N   UNL     1      -4.832  12.960  21.202  0.00  0.00    +0.000 N 
ATOM     21  O   UNL     1      -5.737  13.505  20.564  0.00  0.00    +0.000 OA
ATOM     22  O   UNL     1      -4.952  12.359  22.269  0.00  0.00    +0.000 OA
ENDBRANCH  12  20
BRANCH  19  23
ATOM     23  N   UNL     1      -0.193  11.975  21.898  0.00  0.00    +0.000 N 
ATOM     24  O   UNL     1      -0.615  11.867  23.058  0.00  0.00    +0.000 OA
ATOM     25  O   UNL     1       0.974  11.779  21.530  0.00  0.00    +0.000 OA
ENDBRANCH  19  23
TORSDOF 2
ENDMDL
MODEL 9
REMARK VINA RESULT:      -5.5      3.251      4.419
REMARK  Name = 
REMARK  3 active torsions:
REMARK  status: ('A' for Active; 'I' for Inactive)
REMARK    1  A    between atoms: C_1  and  N_2
REMARK    2  A    between atoms: C_12  and  N_13
REMARK    3  A    between atoms: C_22  and  N_23
REMARK                            x       y       z     vdW  Elec       q    Type
REMARK                         _______ _______ _______ _____ _____    ______ ____
ROOT
ATOM      1  C   UNL     1      -2.700  12.708  20.279  0.00  0.00    +0.000 C 
ATOM      2  N   UNL     1      -2.486  12.825  21.828  0.00  0.00    +0.000 N 
ATOM      3  C   UNL     1      -3.445  12.958  22.659  0.00  0.00    +0.000 C 
ATOM      4  C   UNL     1      -3.405  12.442  24.042  0.00  0.00    +0.000 C 
ATOM      5  C   UNL     1      -4.514  12.338  24.779  0.00  0.00    +0.000 C 
ATOM      6  C   UNL     1      -5.845  12.563  24.293  0.00  0.00    +0.000 C 
ATOM      7  C   UNL     1      -6.230  13.449  23.356  0.00  0.00    +0.000 C 
ATOM      8  C   UNL     1      -5.378  14.441  22.684  0.00  0.00    +0.000 C 
ATOM      9  C   UNL     1      -4.088  14.232  22.401  0.00  0.00    +0.000 C 
ATOM     10  S   UNL     1      -2.760  15.192  21.647  0.00  0.00    +0.000 S 
ATOM     11  C   UNL     1      -1.262  13.616  22.368  0.00  0.00    +0.000 C 
ATOM     12  C   UNL     1      -0.256  12.738  21.599  0.00  0.00    +0.000 C 
ATOM     13  C   UNL     1       0.944  12.983  21.064  0.00  0.00    +0.000 C 
ATOM     14  C   UNL     1       1.492  14.326  21.230  0.00  0.00    +0.000 C 
ATOM     15  N   UNL     1       2.834  14.606  20.722  0.00  0.00    +0.000 N 
ATOM     16  O   UNL     1       3.346  13.715  20.033  0.00  0.00    +0.000 OA
ATOM     17  O   UNL     1       3.336  15.677  21.056  0.00  0.00    +0.000 OA
ATOM     18  C   UNL     1       0.757  15.269  22.121  0.00  0.00    +0.000 C 
ATOM     19  C   UNL     1      -0.445  14.902  22.626  0.00  0.00    +0.000 C 
ENDROOT
BRANCH  12  20
ATOM     20  N   UNL     1      -0.407  11.289  21.866  0.00  0.00    +0.000 N 
ATOM     21  O   UNL     1      -0.406  10.550  20.878  0.00  0.00    +0.000 OA
ATOM     22  O   UNL     1      -0.384  10.932  23.043  0.00  0.00    +0.000 OA
ENDBRANCH  12  20
BRANCH  19  23
ATOM     23  N   UNL     1      -0.817  15.646  23.822  0.00  0.00    +0.000 N 
ATOM     24  O   UNL     1      -1.040  14.945  24.818  0.00  0.00    +0.000 OA
ATOM     25  O   UNL     1      -0.875  16.883  23.779  0.00  0.00    +0.000 OA
ENDBRANCH  19  23
TORSDOF 2
ENDMDL
