MODEL 1
REMARK VINA RESULT:      -8.2      0.000      0.000
REMARK  Name = 
REMARK  11 active torsions:
REMARK  status: ('A' for Active; 'I' for Inactive)
REMARK    1  A    between atoms: C_1  and  N_2
REMARK    2  A    between atoms: N_2  and  C_3
REMARK    3  A    between atoms: N_2  and  S_4
REMARK    4  A    between atoms: S_4  and  C_7
REMARK    5  A    between atoms: C_10  and  N_11
REMARK    6  A    between atoms: N_11  and  C_12
REMARK    7  A    between atoms: C_12  and  N_14
REMARK    8  A    between atoms: C_17  and  C_18
REMARK    9  A    between atoms: C_18  and  O_19
REMARK   10  A    between atoms: C_18  and  C_20
REMARK   11  A    between atoms: C_18  and  C_26
REMARK                            x       y       z     vdW  Elec       q    Type
REMARK                         _______ _______ _______ _____ _____    ______ ____
ROOT
ATOM      1  N   UNL     1       3.389   5.086  19.551  0.00  0.00    +0.000 N 
ATOM      2  C   UNL     1       4.146   6.235  19.039  0.00  0.00    +0.000 C 
ATOM      3  C   UNL     1       3.930   6.375  17.531  0.00  0.00    +0.000 C 
ATOM      4  C   UNL     1       4.318   5.108  16.736  0.00  0.00    +0.000 C 
ATOM      5  C   UNL     1       3.538   3.917  17.359  0.00  0.00    +0.000 C 
ATOM      6  C   UNL     1       3.660   3.814  18.880  0.00  0.00    +0.000 C 
ENDROOT
BRANCH   1   7
ATOM      7  C   UNL     1       2.193   5.327  20.241  0.00  0.00    +0.000 C 
ATOM      8  S   UNL     1       0.929   4.227  20.349  0.00  0.00    +0.000 S 
BRANCH   7   9
ATOM      9  N   UNL     1       2.232   6.569  20.882  0.00  0.00    +0.000 N 
ATOM     10  H   UNL     1       2.757   6.551  21.749  0.00  0.00    +0.000 HD
BRANCH   9  14
ATOM     11  C   UNL     1      -0.137   9.966  20.249  0.00  0.00    +0.000 A 
ATOM     12  C   UNL     1      -0.331   9.194  21.398  0.00  0.00    +0.000 A 
ATOM     13  C   UNL     1       0.468   8.062  21.606  0.00  0.00    +0.000 A 
ATOM     14  C   UNL     1       1.413   7.682  20.643  0.00  0.00    +0.000 A 
ATOM     15  C   UNL     1       1.588   8.463  19.499  0.00  0.00    +0.000 A 
ATOM     16  C   UNL     1       0.805   9.590  19.288  0.00  0.00    +0.000 A 
BRANCH  11  17
ATOM     17  S   UNL     1      -1.050  11.470  19.989  0.00  0.00    +0.000 S 
ATOM     18  O   UNL     1      -1.579  11.890  21.268  0.00  0.00    +0.000 OA
ATOM     19  O   UNL     1      -1.916  11.263  18.849  0.00  0.00    +0.000 OA
BRANCH  17  21
ATOM     20  C   UNL     1      -0.196  13.570  18.524  0.00  0.00    +0.000 C 
ATOM     21  N   UNL     1       0.183  12.562  19.526  0.00  0.00    +0.000 NA
ATOM     22  C   UNL     1       1.016  13.111  20.613  0.00  0.00    +0.000 C 
ENDBRANCH  17  21
ENDBRANCH  11  17
ENDBRANCH   9  14
ENDBRANCH   7   9
ENDBRANCH   1   7
BRANCH   4  23
ATOM     23  C   UNL     1       5.867   4.860  16.600  0.00  0.00    +0.000 C 
BRANCH  23  24
ATOM     24  C   UNL     1       6.330   4.613  15.150  0.00  0.00    +0.000 A 
ATOM     25  C   UNL     1       7.484   5.224  14.620  0.00  0.00    +0.000 A 
ATOM     26  C   UNL     1       7.827   5.091  13.272  0.00  0.00    +0.000 A 
ATOM     27  C   UNL     1       7.035   4.324  12.426  0.00  0.00    +0.000 A 
ATOM     28  C   UNL     1       5.918   3.666  12.932  0.00  0.00    +0.000 A 
ATOM     29  C   UNL     1       5.578   3.796  14.280  0.00  0.00    +0.000 A 
ENDBRANCH  23  24
BRANCH  23  30
ATOM     30  C   UNL     1       6.706   6.033  17.074  0.00  0.00    +0.000 A 
ATOM     31  C   UNL     1       7.610   6.040  18.188  0.00  0.00    +0.000 A 
ATOM     32  C   UNL     1       8.137   7.306  18.279  0.00  0.00    +0.000 A 
ATOM     33  O   UNL     1       7.631   8.091  17.296  0.00  0.00    +0.000 OA
ATOM     34  C   UNL     1       6.776   7.322  16.572  0.00  0.00    +0.000 A 
ENDBRANCH  23  30
BRANCH  23  35
ATOM     35  O   UNL     1       6.196   3.710  17.390  0.00  0.00    +0.000 OA
ATOM     36  H   UNL     1       7.033   3.896  17.842  0.00  0.00    +0.000 HD
ENDBRANCH  23  35
ENDBRANCH   4  23
TORSDOF 9
ENDMDL
MODEL 2
REMARK VINA RESULT:      -8.1      1.077      1.592
REMARK  Name = 
REMARK  11 active torsions:
REMARK  status: ('A' for Active; 'I' for Inactive)
REMARK    1  A    between atoms: C_1  and  N_2
REMARK    2  A    between atoms: N_2  and  C_3
REMARK    3  A    between atoms: N_2  and  S_4
REMARK    4  A    between atoms: S_4  and  C_7
REMARK    5  A    between atoms: C_10  and  N_11
REMARK    6  A    between atoms: N_11  and  C_12
REMARK    7  A    between atoms: C_12  and  N_14
REMARK    8  A    between atoms: C_17  and  C_18
REMARK    9  A    between atoms: C_18  and  O_19
REMARK   10  A    between atoms: C_18  and  C_20
REMARK   11  A    between atoms: C_18  and  C_26
REMARK                            x       y       z     vdW  Elec       q    Type
REMARK                         _______ _______ _______ _____ _____    ______ ____
ROOT
ATOM      1  N   UNL     1       3.367   4.876  19.462  0.00  0.00    +0.000 N 
ATOM      2  C   UNL     1       4.107   6.043  18.966  0.00  0.00    +0.000 C 
ATOM      3  C   UNL     1       3.847   6.231  17.470  0.00  0.00    +0.000 C 
ATOM      4  C   UNL     1       4.215   4.991  16.624  0.00  0.00    +0.000 C 
ATOM      5  C   UNL     1       3.456   3.778  17.231  0.00  0.00    +0.000 C 
ATOM      6  C   UNL     1       3.622   3.627  18.743  0.00  0.00    +0.000 C 
ENDROOT
BRANCH   1   7
ATOM      7  C   UNL     1       2.191   5.091  20.193  0.00  0.00    +0.000 C 
ATOM      8  S   UNL     1       0.944   3.974  20.324  0.00  0.00    +0.000 S 
BRANCH   7   9
ATOM      9  N   UNL     1       2.236   6.323  20.854  0.00  0.00    +0.000 N 
ATOM     10  H   UNL     1       2.646   6.261  21.779  0.00  0.00    +0.000 HD
BRANCH   9  14
ATOM     11  C   UNL     1       0.217   9.886  19.974  0.00  0.00    +0.000 A 
ATOM     12  C   UNL     1      -0.109   9.177  21.134  0.00  0.00    +0.000 A 
ATOM     13  C   UNL     1       0.573   7.988  21.425  0.00  0.00    +0.000 A 
ATOM     14  C   UNL     1       1.533   7.493  20.532  0.00  0.00    +0.000 A 
ATOM     15  C   UNL     1       1.841   8.213  19.376  0.00  0.00    +0.000 A 
ATOM     16  C   UNL     1       1.175   9.396  19.083  0.00  0.00    +0.000 A 
BRANCH  11  17
ATOM     17  S   UNL     1      -0.544  11.454  19.614  0.00  0.00    +0.000 S 
ATOM     18  O   UNL     1       0.295  12.138  18.654  0.00  0.00    +0.000 OA
ATOM     19  O   UNL     1      -0.897  12.067  20.875  0.00  0.00    +0.000 OA
BRANCH  17  21
ATOM     20  C   UNL     1      -3.135  11.886  18.996  0.00  0.00    +0.000 C 
ATOM     21  N   UNL     1      -1.989  10.978  18.832  0.00  0.00    +0.000 NA
ATOM     22  C   UNL     1      -1.852  10.460  17.457  0.00  0.00    +0.000 C 
ENDBRANCH  17  21
ENDBRANCH  11  17
ENDBRANCH   9  14
ENDBRANCH   7   9
ENDBRANCH   1   7
BRANCH   4  23
ATOM     23  C   UNL     1       5.760   4.752  16.435  0.00  0.00    +0.000 C 
BRANCH  23  24
ATOM     24  C   UNL     1       6.190   4.612  14.961  0.00  0.00    +0.000 A 
ATOM     25  C   UNL     1       5.456   3.839  14.039  0.00  0.00    +0.000 A 
ATOM     26  C   UNL     1       5.919   3.620  12.739  0.00  0.00    +0.000 A 
ATOM     27  C   UNL     1       7.117   4.188  12.323  0.00  0.00    +0.000 A 
ATOM     28  C   UNL     1       7.838   5.000  13.195  0.00  0.00    +0.000 A 
ATOM     29  C   UNL     1       7.373   5.222  14.493  0.00  0.00    +0.000 A 
ENDBRANCH  23  24
BRANCH  23  30
ATOM     30  C   UNL     1       6.612   5.887  16.975  0.00  0.00    +0.000 A 
ATOM     31  C   UNL     1       7.522   5.818  18.081  0.00  0.00    +0.000 A 
ATOM     32  C   UNL     1       8.061   7.071  18.247  0.00  0.00    +0.000 A 
ATOM     33  O   UNL     1       7.556   7.919  17.317  0.00  0.00    +0.000 OA
ATOM     34  C   UNL     1       6.690   7.204  16.553  0.00  0.00    +0.000 A 
ENDBRANCH  23  30
BRANCH  23  35
ATOM     35  O   UNL     1       6.103   3.547  17.131  0.00  0.00    +0.000 OA
ATOM     36  H   UNL     1       5.564   2.832  16.760  0.00  0.00    +0.000 HD
ENDBRANCH  23  35
ENDBRANCH   4  23
TORSDOF 9
ENDMDL
MODEL 3
REMARK VINA RESULT:      -8.0      0.432      1.074
REMARK  Name = 
REMARK  11 active torsions:
REMARK  status: ('A' for Active; 'I' for Inactive)
REMARK    1  A    between atoms: C_1  and  N_2
REMARK    2  A    between atoms: N_2  and  C_3
REMARK    3  A    between atoms: N_2  and  S_4
REMARK    4  A    between atoms: S_4  and  C_7
REMARK    5  A    between atoms: C_10  and  N_11
REMARK    6  A    between atoms: N_11  and  C_12
REMARK    7  A    between atoms: C_12  and  N_14
REMARK    8  A    between atoms: C_17  and  C_18
REMARK    9  A    between atoms: C_18  and  O_19
REMARK   10  A    between atoms: C_18  and  C_20
REMARK   11  A    between atoms: C_18  and  C_26
REMARK                            x       y       z     vdW  Elec       q    Type
REMARK                         _______ _______ _______ _____ _____    ______ ____
ROOT
ATOM      1  N   UNL     1       3.324   5.087  19.544  0.00  0.00    +0.000 N 
ATOM      2  C   UNL     1       4.128   6.197  19.019  0.00  0.00    +0.000 C 
ATOM      3  C   UNL     1       3.888   6.353  17.516  0.00  0.00    +0.000 C 
ATOM      4  C   UNL     1       4.196   5.070  16.711  0.00  0.00    +0.000 C 
ATOM      5  C   UNL     1       3.371   3.917  17.348  0.00  0.00    +0.000 C 
ATOM      6  C   UNL     1       3.518   3.804  18.865  0.00  0.00    +0.000 C 
ENDROOT
BRANCH   1   7
ATOM      7  C   UNL     1       2.156   5.385  20.259  0.00  0.00    +0.000 C 
ATOM      8  S   UNL     1       0.880   4.314  20.469  0.00  0.00    +0.000 S 
BRANCH   7   9
ATOM      9  N   UNL     1       2.236   6.659  20.830  0.00  0.00    +0.000 N 
ATOM     10  H   UNL     1       2.769   6.673  21.692  0.00  0.00    +0.000 HD
BRANCH   9  14
ATOM     11  C   UNL     1      -0.041  10.082  20.025  0.00  0.00    +0.000 A 
ATOM     12  C   UNL     1      -0.229   9.396  21.228  0.00  0.00    +0.000 A 
ATOM     13  C   UNL     1       0.539   8.254  21.493  0.00  0.00    +0.000 A 
ATOM     14  C   UNL     1       1.447   7.780  20.536  0.00  0.00    +0.000 A 
ATOM     15  C   UNL     1       1.616   8.476  19.338  0.00  0.00    +0.000 A 
ATOM     16  C   UNL     1       0.864   9.613  19.070  0.00  0.00    +0.000 A 
BRANCH  11  17
ATOM     17  S   UNL     1      -0.913  11.595  19.686  0.00  0.00    +0.000 S 
ATOM     18  O   UNL     1      -1.744  11.889  20.833  0.00  0.00    +0.000 OA
ATOM     19  O   UNL     1      -1.474  11.486  18.358  0.00  0.00    +0.000 OA
BRANCH  17  21
ATOM     20  C   UNL     1       0.166  13.869  18.712  0.00  0.00    +0.000 C 
ATOM     21  N   UNL     1       0.360  12.737  19.630  0.00  0.00    +0.000 NA
ATOM     22  C   UNL     1       0.941  13.136  20.927  0.00  0.00    +0.000 C 
ENDBRANCH  17  21
ENDBRANCH  11  17
ENDBRANCH   9  14
ENDBRANCH   7   9
ENDBRANCH   1   7
BRANCH   4  23
ATOM     23  C   UNL     1       5.728   4.745  16.543  0.00  0.00    +0.000 C 
BRANCH  23  24
ATOM     24  C   UNL     1       6.184   4.653  15.072  0.00  0.00    +0.000 A 
ATOM     25  C   UNL     1       5.461   3.920  14.110  0.00  0.00    +0.000 A 
ATOM     26  C   UNL     1       5.946   3.743  12.812  0.00  0.00    +0.000 A 
ATOM     27  C   UNL     1       7.156   4.314  12.439  0.00  0.00    +0.000 A 
ATOM     28  C   UNL     1       7.867   5.088  13.351  0.00  0.00    +0.000 A 
ATOM     29  C   UNL     1       7.380   5.269  14.647  0.00  0.00    +0.000 A 
ENDBRANCH  23  24
BRANCH  23  30
ATOM     30  C   UNL     1       6.635   5.796  17.158  0.00  0.00    +0.000 A 
ATOM     31  C   UNL     1       6.739   7.170  16.759  0.00  0.00    +0.000 A 
ATOM     32  C   UNL     1       7.692   7.756  17.557  0.00  0.00    +0.000 A 
ATOM     33  O   UNL     1       8.188   6.846  18.431  0.00  0.00    +0.000 OA
ATOM     34  C   UNL     1       7.548   5.672  18.191  0.00  0.00    +0.000 A 
ENDBRANCH  23  30
BRANCH  23  35
ATOM     35  O   UNL     1       5.980   3.487  17.182  0.00  0.00    +0.000 OA
ATOM     36  H   UNL     1       6.941   3.390  17.265  0.00  0.00    +0.000 HD
ENDBRANCH  23  35
ENDBRANCH   4  23
TORSDOF 9
ENDMDL
MODEL 4
REMARK VINA RESULT:      -8.0      1.110      1.484
REMARK  Name = 
REMARK  11 active torsions:
REMARK  status: ('A' for Active; 'I' for Inactive)
REMARK    1  A    between atoms: C_1  and  N_2
REMARK    2  A    between atoms: N_2  and  C_3
REMARK    3  A    between atoms: N_2  and  S_4
REMARK    4  A    between atoms: S_4  and  C_7
REMARK    5  A    between atoms: C_10  and  N_11
REMARK    6  A    between atoms: N_11  and  C_12
REMARK    7  A    between atoms: C_12  and  N_14
REMARK    8  A    between atoms: C_17  and  C_18
REMARK    9  A    between atoms: C_18  and  O_19
REMARK   10  A    between atoms: C_18  and  C_20
REMARK   11  A    between atoms: C_18  and  C_26
REMARK                            x       y       z     vdW  Elec       q    Type
REMARK                         _______ _______ _______ _____ _____    ______ ____
ROOT
ATOM      1  N   UNL     1       3.281   4.907  19.562  0.00  0.00    +0.000 N 
ATOM      2  C   UNL     1       4.113   6.048  19.160  0.00  0.00    +0.000 C 
ATOM      3  C   UNL     1       3.956   6.309  17.661  0.00  0.00    +0.000 C 
ATOM      4  C   UNL     1       4.307   5.084  16.786  0.00  0.00    +0.000 C 
ATOM      5  C   UNL     1       3.447   3.893  17.295  0.00  0.00    +0.000 C 
ATOM      6  C   UNL     1       3.512   3.674  18.807  0.00  0.00    +0.000 C 
ENDROOT
BRANCH   1   7
ATOM      7  C   UNL     1       2.076   5.160  20.231  0.00  0.00    +0.000 C 
ATOM      8  S   UNL     1       0.760   4.118  20.230  0.00  0.00    +0.000 S 
BRANCH   7   9
ATOM      9  N   UNL     1       2.152   6.355  20.954  0.00  0.00    +0.000 N 
ATOM     10  H   UNL     1       2.451   6.219  21.913  0.00  0.00    +0.000 HD
BRANCH   9  14
ATOM     11  C   UNL     1       0.580  10.121  20.008  0.00  0.00    +0.000 A 
ATOM     12  C   UNL     1       0.401   9.602  21.294  0.00  0.00    +0.000 A 
ATOM     13  C   UNL     1       0.934   8.343  21.605  0.00  0.00    +0.000 A 
ATOM     14  C   UNL     1       1.591   7.596  20.619  0.00  0.00    +0.000 A 
ATOM     15  C   UNL     1       1.754   8.129  19.339  0.00  0.00    +0.000 A 
ATOM     16  C   UNL     1       1.237   9.378  19.024  0.00  0.00    +0.000 A 
BRANCH  11  17
ATOM     17  S   UNL     1       0.018  11.757  19.593  0.00  0.00    +0.000 S 
ATOM     18  O   UNL     1       0.744  12.186  18.419  0.00  0.00    +0.000 OA
ATOM     19  O   UNL     1       0.022  12.541  20.809  0.00  0.00    +0.000 OA
BRANCH  17  21
ATOM     20  C   UNL     1      -2.621  12.222  19.916  0.00  0.00    +0.000 C 
ATOM     21  N   UNL     1      -1.610  11.474  19.152  0.00  0.00    +0.000 NA
ATOM     22  C   UNL     1      -1.899  11.422  17.706  0.00  0.00    +0.000 C 
ENDBRANCH  17  21
ENDBRANCH  11  17
ENDBRANCH   9  14
ENDBRANCH   7   9
ENDBRANCH   1   7
BRANCH   4  23
ATOM     23  C   UNL     1       5.845   4.765  16.680  0.00  0.00    +0.000 C 
BRANCH  23  24
ATOM     24  C   UNL     1       6.344   4.598  15.230  0.00  0.00    +0.000 A 
ATOM     25  C   UNL     1       7.482   5.275  14.749  0.00  0.00    +0.000 A 
ATOM     26  C   UNL     1       7.854   5.212  13.404  0.00  0.00    +0.000 A 
ATOM     27  C   UNL     1       7.109   4.451  12.512  0.00  0.00    +0.000 A 
ATOM     28  C   UNL     1       6.011   3.728  12.968  0.00  0.00    +0.000 A 
ATOM     29  C   UNL     1       5.642   3.787  14.313  0.00  0.00    +0.000 A 
ENDBRANCH  23  24
BRANCH  23  30
ATOM     30  C   UNL     1       6.726   5.856  17.262  0.00  0.00    +0.000 A 
ATOM     31  C   UNL     1       6.807   7.216  16.812  0.00  0.00    +0.000 A 
ATOM     32  C   UNL     1       7.742   7.850  17.595  0.00  0.00    +0.000 A 
ATOM     33  O   UNL     1       8.247   6.984  18.508  0.00  0.00    +0.000 OA
ATOM     34  C   UNL     1       7.631   5.789  18.308  0.00  0.00    +0.000 A 
ENDBRANCH  23  30
BRANCH  23  35
ATOM     35  O   UNL     1       6.089   3.546  17.393  0.00  0.00    +0.000 OA
ATOM     36  H   UNL     1       7.041   3.367  17.348  0.00  0.00    +0.000 HD
ENDBRANCH  23  35
ENDBRANCH   4  23
TORSDOF 9
ENDMDL
MODEL 5
REMARK VINA RESULT:      -7.9      0.450      1.085
REMARK  Name = 
REMARK  11 active torsions:
REMARK  status: ('A' for Active; 'I' for Inactive)
REMARK    1  A    between atoms: C_1  and  N_2
REMARK    2  A    between atoms: N_2  and  C_3
REMARK    3  A    between atoms: N_2  and  S_4
REMARK    4  A    between atoms: S_4  and  C_7
REMARK    5  A    between atoms: C_10  and  N_11
REMARK    6  A    between atoms: N_11  and  C_12
REMARK    7  A    between atoms: C_12  and  N_14
REMARK    8  A    between atoms: C_17  and  C_18
REMARK    9  A    between atoms: C_18  and  O_19
REMARK   10  A    between atoms: C_18  and  C_20
REMARK   11  A    between atoms: C_18  and  C_26
REMARK                            x       y       z     vdW  Elec       q    Type
REMARK                         _______ _______ _______ _____ _____    ______ ____
ROOT
ATOM      1  N   UNL     1       3.298   4.997  19.574  0.00  0.00    +0.000 N 
ATOM      2  C   UNL     1       4.118   6.137  19.145  0.00  0.00    +0.000 C 
ATOM      3  C   UNL     1       3.959   6.361  17.640  0.00  0.00    +0.000 C 
ATOM      4  C   UNL     1       4.322   5.119  16.794  0.00  0.00    +0.000 C 
ATOM      5  C   UNL     1       3.474   3.932  17.331  0.00  0.00    +0.000 C 
ATOM      6  C   UNL     1       3.540   3.749  18.847  0.00  0.00    +0.000 C 
ENDROOT
BRANCH   1   7
ATOM      7  C   UNL     1       2.090   5.254  20.237  0.00  0.00    +0.000 C 
ATOM      8  S   UNL     1       0.768   4.218  20.223  0.00  0.00    +0.000 S 
BRANCH   7   9
ATOM      9  N   UNL     1       2.168   6.444  20.966  0.00  0.00    +0.000 N 
ATOM     10  H   UNL     1       2.548   6.314  21.896  0.00  0.00    +0.000 HD
BRANCH   9  14
ATOM     11  C   UNL     1       0.158  10.010  20.072  0.00  0.00    +0.000 A 
ATOM     12  C   UNL     1       1.049   9.468  19.140  0.00  0.00    +0.000 A 
ATOM     13  C   UNL     1       1.714   8.272  19.444  0.00  0.00    +0.000 A 
ATOM     14  C   UNL     1       1.525   7.660  20.691  0.00  0.00    +0.000 A 
ATOM     15  C   UNL     1       0.636   8.220  21.609  0.00  0.00    +0.000 A 
ATOM     16  C   UNL     1      -0.033   9.401  21.315  0.00  0.00    +0.000 A 
BRANCH  11  17
ATOM     17  S   UNL     1      -0.791  11.466  19.693  0.00  0.00    +0.000 S 
ATOM     18  O   UNL     1      -1.693  11.702  20.799  0.00  0.00    +0.000 OA
ATOM     19  O   UNL     1      -1.280  11.328  18.339  0.00  0.00    +0.000 OA
BRANCH  17  21
ATOM     20  C   UNL     1       0.453  13.549  18.510  0.00  0.00    +0.000 C 
ATOM     21  N   UNL     1       0.408  12.686  19.701  0.00  0.00    +0.000 NA
ATOM     22  C   UNL     1       0.578  13.432  20.963  0.00  0.00    +0.000 C 
ENDBRANCH  17  21
ENDBRANCH  11  17
ENDBRANCH   9  14
ENDBRANCH   7   9
ENDBRANCH   1   7
BRANCH   4  23
ATOM     23  C   UNL     1       5.863   4.813  16.695  0.00  0.00    +0.000 C 
BRANCH  23  24
ATOM     24  C   UNL     1       6.366   4.630  15.248  0.00  0.00    +0.000 A 
ATOM     25  C   UNL     1       7.496   5.314  14.758  0.00  0.00    +0.000 A 
ATOM     26  C   UNL     1       7.871   5.235  13.415  0.00  0.00    +0.000 A 
ATOM     27  C   UNL     1       7.137   4.450  12.534  0.00  0.00    +0.000 A 
ATOM     28  C   UNL     1       6.048   3.720  13.000  0.00  0.00    +0.000 A 
ATOM     29  C   UNL     1       5.675   3.796  14.344  0.00  0.00    +0.000 A 
ENDBRANCH  23  24
BRANCH  23  30
ATOM     30  C   UNL     1       6.732   5.921  17.263  0.00  0.00    +0.000 A 
ATOM     31  C   UNL     1       6.803   7.274  16.793  0.00  0.00    +0.000 A 
ATOM     32  C   UNL     1       7.730   7.929  17.568  0.00  0.00    +0.000 A 
ATOM     33  O   UNL     1       8.240   7.081  18.495  0.00  0.00    +0.000 OA
ATOM     34  C   UNL     1       7.636   5.878  18.311  0.00  0.00    +0.000 A 
ENDBRANCH  23  30
BRANCH  23  35
ATOM     35  O   UNL     1       6.117   3.607  17.427  0.00  0.00    +0.000 OA
ATOM     36  H   UNL     1       5.401   3.503  18.073  0.00  0.00    +0.000 HD
ENDBRANCH  23  35
ENDBRANCH   4  23
TORSDOF 9
ENDMDL
MODEL 6
REMARK VINA RESULT:      -7.9      0.949      1.727
REMARK  Name = 
REMARK  11 active torsions:
REMARK  status: ('A' for Active; 'I' for Inactive)
REMARK    1  A    between atoms: C_1  and  N_2
REMARK    2  A    between atoms: N_2  and  C_3
REMARK    3  A    between atoms: N_2  and  S_4
REMARK    4  A    between atoms: S_4  and  C_7
REMARK    5  A    between atoms: C_10  and  N_11
REMARK    6  A    between atoms: N_11  and  C_12
REMARK    7  A    between atoms: C_12  and  N_14
REMARK    8  A    between atoms: C_17  and  C_18
REMARK    9  A    between atoms: C_18  and  O_19
REMARK   10  A    between atoms: C_18  and  C_20
REMARK   11  A    between atoms: C_18  and  C_26
REMARK                            x       y       z     vdW  Elec       q    Type
REMARK                         _______ _______ _______ _____ _____    ______ ____
ROOT
ATOM      1  N   UNL     1       3.278   4.992  19.570  0.00  0.00    +0.000 N 
ATOM      2  C   UNL     1       4.094   6.115  19.092  0.00  0.00    +0.000 C 
ATOM      3  C   UNL     1       3.867   6.329  17.595  0.00  0.00    +0.000 C 
ATOM      4  C   UNL     1       4.172   5.074  16.745  0.00  0.00    +0.000 C 
ATOM      5  C   UNL     1       3.333   3.905  17.332  0.00  0.00    +0.000 C 
ATOM      6  C   UNL     1       3.468   3.734  18.845  0.00  0.00    +0.000 C 
ENDROOT
BRANCH   1   7
ATOM      7  C   UNL     1       2.107   5.273  20.287  0.00  0.00    +0.000 C 
ATOM      8  S   UNL     1       0.813   4.213  20.432  0.00  0.00    +0.000 S 
BRANCH   7   9
ATOM      9  N   UNL     1       2.199   6.516  20.920  0.00  0.00    +0.000 N 
ATOM     10  H   UNL     1       2.641   6.465  21.831  0.00  0.00    +0.000 HD
BRANCH   9  14
ATOM     11  C   UNL     1       0.062   9.965  19.875  0.00  0.00    +0.000 A 
ATOM     12  C   UNL     1       1.102   9.522  19.052  0.00  0.00    +0.000 A 
ATOM     13  C   UNL     1       1.810   8.365  19.406  0.00  0.00    +0.000 A 
ATOM     14  C   UNL     1       1.509   7.694  20.599  0.00  0.00    +0.000 A 
ATOM     15  C   UNL     1       0.471   8.155  21.410  0.00  0.00    +0.000 A 
ATOM     16  C   UNL     1      -0.240   9.297  21.065  0.00  0.00    +0.000 A 
BRANCH  11  17
ATOM     17  S   UNL     1      -0.935  11.365  19.419  0.00  0.00    +0.000 S 
ATOM     18  O   UNL     1      -2.164  10.860  18.845  0.00  0.00    +0.000 OA
ATOM     19  O   UNL     1      -0.088  12.285  18.692  0.00  0.00    +0.000 OA
BRANCH  17  21
ATOM     20  C   UNL     1      -0.221  12.874  21.540  0.00  0.00    +0.000 C 
ATOM     21  N   UNL     1      -1.291  12.061  20.940  0.00  0.00    +0.000 NA
ATOM     22  C   UNL     1      -2.629  12.666  21.088  0.00  0.00    +0.000 C 
ENDBRANCH  17  21
ENDBRANCH  11  17
ENDBRANCH   9  14
ENDBRANCH   7   9
ENDBRANCH   1   7
BRANCH   4  23
ATOM     23  C   UNL     1       5.702   4.744  16.576  0.00  0.00    +0.000 C 
BRANCH  23  24
ATOM     24  C   UNL     1       6.155   4.643  15.105  0.00  0.00    +0.000 A 
ATOM     25  C   UNL     1       5.414   3.929  14.142  0.00  0.00    +0.000 A 
ATOM     26  C   UNL     1       5.894   3.742  12.844  0.00  0.00    +0.000 A 
ATOM     27  C   UNL     1       7.118   4.283  12.471  0.00  0.00    +0.000 A 
ATOM     28  C   UNL     1       7.848   5.038  13.384  0.00  0.00    +0.000 A 
ATOM     29  C   UNL     1       7.366   5.229  14.681  0.00  0.00    +0.000 A 
ENDBRANCH  23  24
BRANCH  23  30
ATOM     30  C   UNL     1       6.613   5.795  17.184  0.00  0.00    +0.000 A 
ATOM     31  C   UNL     1       6.729   7.164  16.770  0.00  0.00    +0.000 A 
ATOM     32  C   UNL     1       7.683   7.752  17.566  0.00  0.00    +0.000 A 
ATOM     33  O   UNL     1       8.168   6.848  18.453  0.00  0.00    +0.000 OA
ATOM     34  C   UNL     1       7.520   5.676  18.223  0.00  0.00    +0.000 A 
ENDBRANCH  23  30
BRANCH  23  35
ATOM     35  O   UNL     1       5.951   3.488  17.221  0.00  0.00    +0.000 OA
ATOM     36  H   UNL     1       6.157   2.841  16.529  0.00  0.00    +0.000 HD
ENDBRANCH  23  35
ENDBRANCH   4  23
TORSDOF 9
ENDMDL
MODEL 7
REMARK VINA RESULT:      -7.7      1.230      1.774
REMARK  Name = 
REMARK  11 active torsions:
REMARK  status: ('A' for Active; 'I' for Inactive)
REMARK    1  A    between atoms: C_1  and  N_2
REMARK    2  A    between atoms: N_2  and  C_3
REMARK    3  A    between atoms: N_2  and  S_4
REMARK    4  A    between atoms: S_4  and  C_7
REMARK    5  A    between atoms: C_10  and  N_11
REMARK    6  A    between atoms: N_11  and  C_12
REMARK    7  A    between atoms: C_12  and  N_14
REMARK    8  A    between atoms: C_17  and  C_18
REMARK    9  A    between atoms: C_18  and  O_19
REMARK   10  A    between atoms: C_18  and  C_20
REMARK   11  A    between atoms: C_18  and  C_26
REMARK                            x       y       z     vdW  Elec       q    Type
REMARK                         _______ _______ _______ _____ _____    ______ ____
ROOT
ATOM      1  N   UNL     1       3.906   5.830  18.903  0.00  0.00    +0.000 N 
ATOM      2  C   UNL     1       3.863   5.916  17.438  0.00  0.00    +0.000 C 
ATOM      3  C   UNL     1       4.148   4.545  16.824  0.00  0.00    +0.000 C 
ATOM      4  C   UNL     1       5.504   3.946  17.264  0.00  0.00    +0.000 C 
ATOM      5  C   UNL     1       5.520   3.938  18.818  0.00  0.00    +0.000 C 
ATOM      6  C   UNL     1       5.142   5.275  19.456  0.00  0.00    +0.000 C 
ENDROOT
BRANCH   1   7
ATOM      7  C   UNL     1       2.695   5.808  19.607  0.00  0.00    +0.000 C 
ATOM      8  S   UNL     1       1.653   4.492  19.650  0.00  0.00    +0.000 S 
BRANCH   7   9
ATOM      9  N   UNL     1       2.515   6.995  20.323  0.00  0.00    +0.000 N 
ATOM     10  H   UNL     1       2.778   6.913  21.299  0.00  0.00    +0.000 HD
BRANCH   9  14
ATOM     11  C   UNL     1       0.362  10.425  19.249  0.00  0.00    +0.000 A 
ATOM     12  C   UNL     1       0.282   9.942  20.558  0.00  0.00    +0.000 A 
ATOM     13  C   UNL     1       1.009   8.797  20.912  0.00  0.00    +0.000 A 
ATOM     14  C   UNL     1       1.763   8.117  19.946  0.00  0.00    +0.000 A 
ATOM     15  C   UNL     1       1.825   8.612  18.642  0.00  0.00    +0.000 A 
ATOM     16  C   UNL     1       1.114   9.749  18.284  0.00  0.00    +0.000 A 
BRANCH  11  17
ATOM     17  S   UNL     1      -0.455  11.932  18.775  0.00  0.00    +0.000 S 
ATOM     18  O   UNL     1      -1.513  11.587  17.851  0.00  0.00    +0.000 OA
ATOM     19  O   UNL     1       0.570  12.890  18.422  0.00  0.00    +0.000 OA
BRANCH  17  21
ATOM     20  C   UNL     1      -0.502  13.559  20.928  0.00  0.00    +0.000 C 
ATOM     21  N   UNL     1      -1.163  12.434  20.250  0.00  0.00    +0.000 NA
ATOM     22  C   UNL     1      -2.635  12.527  20.272  0.00  0.00    +0.000 C 
ENDBRANCH  17  21
ENDBRANCH  11  17
ENDBRANCH   9  14
ENDBRANCH   7   9
ENDBRANCH   1   7
BRANCH   4  23
ATOM     23  C   UNL     1       6.769   4.621  16.612  0.00  0.00    +0.000 C 
BRANCH  23  24
ATOM     24  C   UNL     1       6.780   4.558  15.071  0.00  0.00    +0.000 A 
ATOM     25  C   UNL     1       5.883   3.745  14.351  0.00  0.00    +0.000 A 
ATOM     26  C   UNL     1       5.981   3.602  12.964  0.00  0.00    +0.000 A 
ATOM     27  C   UNL     1       6.966   4.286  12.263  0.00  0.00    +0.000 A 
ATOM     28  C   UNL     1       7.834   5.137  12.941  0.00  0.00    +0.000 A 
ATOM     29  C   UNL     1       7.733   5.284  14.326  0.00  0.00    +0.000 A 
ENDBRANCH  23  24
BRANCH  23  30
ATOM     30  C   UNL     1       6.892   6.100  16.934  0.00  0.00    +0.000 A 
ATOM     31  C   UNL     1       7.792   6.694  17.880  0.00  0.00    +0.000 A 
ATOM     32  C   UNL     1       7.553   8.048  17.877  0.00  0.00    +0.000 A 
ATOM     33  O   UNL     1       6.570   8.343  16.991  0.00  0.00    +0.000 OA
ATOM     34  C   UNL     1       6.179   7.172  16.423  0.00  0.00    +0.000 A 
ENDBRANCH  23  30
BRANCH  23  35
ATOM     35  O   UNL     1       7.930   3.943  17.110  0.00  0.00    +0.000 OA
ATOM     36  H   UNL     1       7.686   3.528  17.952  0.00  0.00    +0.000 HD
ENDBRANCH  23  35
ENDBRANCH   4  23
TORSDOF 9
ENDMDL
MODEL 8
REMARK VINA RESULT:      -7.6      0.741      1.245
REMARK  Name = 
REMARK  11 active torsions:
REMARK  status: ('A' for Active; 'I' for Inactive)
REMARK    1  A    between atoms: C_1  and  N_2
REMARK    2  A    between atoms: N_2  and  C_3
REMARK    3  A    between atoms: N_2  and  S_4
REMARK    4  A    between atoms: S_4  and  C_7
REMARK    5  A    between atoms: C_10  and  N_11
REMARK    6  A    between atoms: N_11  and  C_12
REMARK    7  A    between atoms: C_12  and  N_14
REMARK    8  A    between atoms: C_17  and  C_18
REMARK    9  A    between atoms: C_18  and  O_19
REMARK   10  A    between atoms: C_18  and  C_20
REMARK   11  A    between atoms: C_18  and  C_26
REMARK                            x       y       z     vdW  Elec       q    Type
REMARK                         _______ _______ _______ _____ _____    ______ ____
ROOT
ATOM      1  N   UNL     1       3.322   5.150  19.528  0.00  0.00    +0.000 N 
ATOM      2  C   UNL     1       4.114   6.280  19.028  0.00  0.00    +0.000 C 
ATOM      3  C   UNL     1       3.923   6.426  17.517  0.00  0.00    +0.000 C 
ATOM      4  C   UNL     1       4.293   5.150  16.727  0.00  0.00    +0.000 C 
ATOM      5  C   UNL     1       3.476   3.977  17.338  0.00  0.00    +0.000 C 
ATOM      6  C   UNL     1       3.574   3.871  18.860  0.00  0.00    +0.000 C 
ENDROOT
BRANCH   1   7
ATOM      7  C   UNL     1       2.122   5.419  20.200  0.00  0.00    +0.000 C 
ATOM      8  S   UNL     1       0.825   4.355  20.276  0.00  0.00    +0.000 S 
BRANCH   7   9
ATOM      9  N   UNL     1       2.186   6.652  20.856  0.00  0.00    +0.000 N 
ATOM     10  H   UNL     1       2.600   6.589  21.779  0.00  0.00    +0.000 HD
BRANCH   9  14
ATOM     11  C   UNL     1       0.055  10.102  19.803  0.00  0.00    +0.000 A 
ATOM     12  C   UNL     1       1.089   9.652  18.978  0.00  0.00    +0.000 A 
ATOM     13  C   UNL     1       1.796   8.494  19.334  0.00  0.00    +0.000 A 
ATOM     14  C   UNL     1       1.498   7.830  20.531  0.00  0.00    +0.000 A 
ATOM     15  C   UNL     1       0.465   8.299  21.345  0.00  0.00    +0.000 A 
ATOM     16  C   UNL     1      -0.245   9.441  20.997  0.00  0.00    +0.000 A 
BRANCH  11  17
ATOM     17  S   UNL     1      -0.941  11.503  19.344  0.00  0.00    +0.000 S 
ATOM     18  O   UNL     1      -2.307  11.046  19.213  0.00  0.00    +0.000 OA
ATOM     19  O   UNL     1      -0.267  12.179  18.258  0.00  0.00    +0.000 OA
BRANCH  17  21
ATOM     20  C   UNL     1      -1.731  12.144  21.844  0.00  0.00    +0.000 C 
ATOM     21  N   UNL     1      -0.829  12.492  20.735  0.00  0.00    +0.000 NA
ATOM     22  C   UNL     1       0.533  12.841  21.184  0.00  0.00    +0.000 C 
ENDBRANCH  17  21
ENDBRANCH  11  17
ENDBRANCH   9  14
ENDBRANCH   7   9
ENDBRANCH   1   7
BRANCH   4  23
ATOM     23  C   UNL     1       5.838   4.866  16.613  0.00  0.00    +0.000 C 
BRANCH  23  24
ATOM     24  C   UNL     1       6.317   4.617  15.169  0.00  0.00    +0.000 A 
ATOM     25  C   UNL     1       7.458   5.254  14.641  0.00  0.00    +0.000 A 
ATOM     26  C   UNL     1       7.813   5.116  13.296  0.00  0.00    +0.000 A 
ATOM     27  C   UNL     1       7.048   4.319  12.454  0.00  0.00    +0.000 A 
ATOM     28  C   UNL     1       5.947   3.636  12.959  0.00  0.00    +0.000 A 
ATOM     29  C   UNL     1       5.594   3.770  14.303  0.00  0.00    +0.000 A 
ENDBRANCH  23  24
BRANCH  23  30
ATOM     30  C   UNL     1       6.697   6.016  17.107  0.00  0.00    +0.000 A 
ATOM     31  C   UNL     1       7.585   5.993  18.234  0.00  0.00    +0.000 A 
ATOM     32  C   UNL     1       8.140   7.246  18.342  0.00  0.00    +0.000 A 
ATOM     33  O   UNL     1       7.665   8.050  17.359  0.00  0.00    +0.000 OA
ATOM     34  C   UNL     1       6.803   7.307  16.617  0.00  0.00    +0.000 A 
ENDBRANCH  23  30
BRANCH  23  35
ATOM     35  O   UNL     1       6.126   3.703  17.401  0.00  0.00    +0.000 OA
ATOM     36  H   UNL     1       7.016   3.816  17.771  0.00  0.00    +0.000 HD
ENDBRANCH  23  35
ENDBRANCH   4  23
TORSDOF 9
ENDMDL
MODEL 9
REMARK VINA RESULT:      -7.5      6.274     10.543
REMARK  Name = 
REMARK  11 active torsions:
REMARK  status: ('A' for Active; 'I' for Inactive)
REMARK    1  A    between atoms: C_1  and  N_2
REMARK    2  A    between atoms: N_2  and  C_3
REMARK    3  A    between atoms: N_2  and  S_4
REMARK    4  A    between atoms: S_4  and  C_7
REMARK    5  A    between atoms: C_10  and  N_11
REMARK    6  A    between atoms: N_11  and  C_12
REMARK    7  A    between atoms: C_12  and  N_14
REMARK    8  A    between atoms: C_17  and  C_18
REMARK    9  A    between atoms: C_18  and  O_19
REMARK   10  A    between atoms: C_18  and  C_20
REMARK   11  A    between atoms: C_18  and  C_26
REMARK                            x       y       z     vdW  Elec       q    Type
REMARK                         _______ _______ _______ _____ _____    ______ ____
ROOT
ATOM      1  N   UNL     1       3.176  14.432  19.517  0.00  0.00    +0.000 N 
ATOM      2  C   UNL     1       2.370  14.026  18.359  0.00  0.00    +0.000 C 
ATOM      3  C   UNL     1       0.882  14.186  18.673  0.00  0.00    +0.000 C 
ATOM      4  C   UNL     1       0.430  13.390  19.918  0.00  0.00    +0.000 C 
ATOM      5  C   UNL     1       1.355  13.810  21.095  0.00  0.00    +0.000 C 
ATOM      6  C   UNL     1       2.847  13.752  20.771  0.00  0.00    +0.000 C 
ENDROOT
BRANCH   1   7
ATOM      7  C   UNL     1       3.807  15.683  19.488  0.00  0.00    +0.000 C 
ATOM      8  S   UNL     1       3.355  16.989  20.442  0.00  0.00    +0.000 S 
BRANCH   7   9
ATOM      9  N   UNL     1       4.901  15.667  18.618  0.00  0.00    +0.000 N 
ATOM     10  H   UNL     1       4.669  15.988  17.685  0.00  0.00    +0.000 HD
BRANCH   9  14
ATOM     11  C   UNL     1       8.611  13.778  19.081  0.00  0.00    +0.000 A 
ATOM     12  C   UNL     1       7.976  13.755  17.835  0.00  0.00    +0.000 A 
ATOM     13  C   UNL     1       6.737  14.393  17.687  0.00  0.00    +0.000 A 
ATOM     14  C   UNL     1       6.122  14.999  18.790  0.00  0.00    +0.000 A 
ATOM     15  C   UNL     1       6.770  15.006  20.027  0.00  0.00    +0.000 A 
ATOM     16  C   UNL     1       8.001  14.383  20.182  0.00  0.00    +0.000 A 
BRANCH  11  17
ATOM     17  S   UNL     1      10.232  13.076  19.297  0.00  0.00    +0.000 S 
ATOM     18  O   UNL     1      10.803  13.652  20.494  0.00  0.00    +0.000 OA
ATOM     19  O   UNL     1      10.914  13.155  18.024  0.00  0.00    +0.000 OA
BRANCH  17  21
ATOM     20  C   UNL     1       9.259  11.142  20.908  0.00  0.00    +0.000 C 
ATOM     21  N   UNL     1       9.871  11.432  19.603  0.00  0.00    +0.000 NA
ATOM     22  C   UNL     1       9.255  10.678  18.494  0.00  0.00    +0.000 C 
ENDBRANCH  17  21
ENDBRANCH  11  17
ENDBRANCH   9  14
ENDBRANCH   7   9
ENDBRANCH   1   7
BRANCH   4  23
ATOM     23  C   UNL     1       0.328  11.832  19.707  0.00  0.00    +0.000 C 
BRANCH  23  24
ATOM     24  C   UNL     1       0.208  11.036  21.023  0.00  0.00    +0.000 A 
ATOM     25  C   UNL     1       1.058   9.951  21.319  0.00  0.00    +0.000 A 
ATOM     26  C   UNL     1       0.863   9.161  22.455  0.00  0.00    +0.000 A 
ATOM     27  C   UNL     1      -0.173   9.452  23.333  0.00  0.00    +0.000 A 
ATOM     28  C   UNL     1      -0.996  10.548  23.095  0.00  0.00    +0.000 A 
ATOM     29  C   UNL     1      -0.799  11.341  21.962  0.00  0.00    +0.000 A 
ENDBRANCH  23  24
BRANCH  23  30
ATOM     30  C   UNL     1      -0.886  11.415  18.897  0.00  0.00    +0.000 A 
ATOM     31  C   UNL     1      -1.036  10.198  18.152  0.00  0.00    +0.000 A 
ATOM     32  C   UNL     1      -2.270  10.238  17.549  0.00  0.00    +0.000 A 
ATOM     33  O   UNL     1      -2.906  11.392  17.869  0.00  0.00    +0.000 OA
ATOM     34  C   UNL     1      -2.074  12.094  18.682  0.00  0.00    +0.000 A 
ENDBRANCH  23  30
BRANCH  23  35
ATOM     35  O   UNL     1       1.511  11.407  19.018  0.00  0.00    +0.000 OA
ATOM     36  H   UNL     1       1.935  10.724  19.561  0.00  0.00    +0.000 HD
ENDBRANCH  23  35
ENDBRANCH   4  23
TORSDOF 9
ENDMDL
