MODEL 1
REMARK VINA RESULT:      -8.2      0.000      0.000
REMARK  Name = 
REMARK  4 active torsions:
REMARK  status: ('A' for Active; 'I' for Inactive)
REMARK    1  A    between atoms: C_1  and  O_2
REMARK    2  A    between atoms: O_2  and  C_3
REMARK    3  A    between atoms: C_7  and  N_8
REMARK    4  A    between atoms: C_12  and  C_14
REMARK                            x       y       z     vdW  Elec       q    Type
REMARK                         _______ _______ _______ _____ _____    ______ ____
ROOT
ATOM      1  C   UNL     1       1.316  12.412  20.096  0.00  0.00    +0.000 C 
ATOM      2  C   UNL     1       2.427  13.452  20.334  0.00  0.00    +0.000 C 
ATOM      3  C   UNL     1       2.001  14.481  21.379  0.00  0.00    +0.000 C 
ATOM      4  C   UNL     1       0.688  15.151  20.979  0.00  0.00    +0.000 C 
ATOM      5  N   UNL     1      -0.321  14.125  20.756  0.00  0.00    +0.000 N 
ATOM      6  C   UNL     1      -1.552  14.160  21.379  0.00  0.00    +0.000 A 
ATOM      7  N   UNL     1      -1.915  13.147  22.121  0.00  0.00    +0.000 NA
ATOM      8  C   UNL     1      -3.138  13.195  22.816  0.00  0.00    +0.000 A 
ATOM      9  N   UNL     1      -3.373  12.130  23.612  0.00  0.00    +0.000 NA
ATOM     10  C   UNL     1      -4.529  12.128  24.317  0.00  0.00    +0.000 A 
ATOM     11  C   UNL     1      -5.479  13.137  24.261  0.00  0.00    +0.000 A 
ATOM     12  C   UNL     1      -5.235  14.231  23.441  0.00  0.00    +0.000 A 
ATOM     13  C   UNL     1      -4.041  14.254  22.720  0.00  0.00    +0.000 A 
ATOM     14  N   UNL     1      -3.665  15.307  21.882  0.00  0.00    +0.000 N 
ATOM     15  C   UNL     1      -4.337  16.457  21.556  0.00  0.00    +0.000 A 
ATOM     16  C   UNL     1      -3.568  17.166  20.660  0.00  0.00    +0.000 A 
ATOM     17  C   UNL     1      -2.381  16.423  20.447  0.00  0.00    +0.000 A 
ATOM     18  C   UNL     1      -2.457  15.284  21.224  0.00  0.00    +0.000 A 
ATOM     19  C   UNL     1      -0.005  13.106  19.759  0.00  0.00    +0.000 C 
ENDROOT
BRANCH   1  24
ATOM     20  N   UNL     1       1.997   7.445  19.427  0.00  0.00    +0.000 N 
ATOM     21  C   UNL     1       2.585   8.163  18.283  0.00  0.00    +0.000 C 
ATOM     22  C   UNL     1       1.623   9.288  17.853  0.00  0.00    +0.000 C 
ATOM     23  N   UNL     1       1.283  10.167  18.983  0.00  0.00    +0.000 N 
ATOM     24  C   UNL     1       1.683  11.490  18.939  0.00  0.00    +0.000 C 
ATOM     25  O   UNL     1       2.270  11.945  17.953  0.00  0.00    +0.000 OA
ATOM     26  C   UNL     1       0.735   9.444  20.148  0.00  0.00    +0.000 C 
ATOM     27  C   UNL     1       1.678   8.300  20.589  0.00  0.00    +0.000 C 
BRANCH  20  32
ATOM     28  C   UNL     1       2.564   3.852  18.622  0.00  0.00    +0.000 A 
ATOM     29  C   UNL     1       2.136   3.256  19.807  0.00  0.00    +0.000 A 
ATOM     30  C   UNL     1       1.692   4.042  20.862  0.00  0.00    +0.000 A 
ATOM     31  C   UNL     1       1.674   5.433  20.733  0.00  0.00    +0.000 A 
ATOM     32  C   UNL     1       2.090   6.071  19.555  0.00  0.00    +0.000 A 
ATOM     33  C   UNL     1       2.536   5.247  18.506  0.00  0.00    +0.000 A 
BRANCH  28  35
ATOM     34  C   UNL     1       3.442   1.706  18.099  0.00  0.00    +0.000 C 
ATOM     35  O   UNL     1       2.978   2.975  17.655  0.00  0.00    +0.000 OA
ENDBRANCH  28  35
ENDBRANCH  20  32
ENDBRANCH   1  24
TORSDOF 3
ENDMDL
MODEL 2
REMARK VINA RESULT:      -7.9      2.612      4.499
REMARK  Name = 
REMARK  4 active torsions:
REMARK  status: ('A' for Active; 'I' for Inactive)
REMARK    1  A    between atoms: C_1  and  O_2
REMARK    2  A    between atoms: O_2  and  C_3
REMARK    3  A    between atoms: C_7  and  N_8
REMARK    4  A    between atoms: C_12  and  C_14
REMARK                            x       y       z     vdW  Elec       q    Type
REMARK                         _______ _______ _______ _____ _____    ______ ____
ROOT
ATOM      1  C   UNL     1      -0.437  10.570  19.496  0.00  0.00    +0.000 C 
ATOM      2  C   UNL     1      -1.696  10.144  18.720  0.00  0.00    +0.000 C 
ATOM      3  C   UNL     1      -2.416  11.355  18.132  0.00  0.00    +0.000 C 
ATOM      4  C   UNL     1      -2.751  12.371  19.223  0.00  0.00    +0.000 C 
ATOM      5  N   UNL     1      -1.530  12.729  19.931  0.00  0.00    +0.000 N 
ATOM      6  C   UNL     1      -1.142  14.043  20.103  0.00  0.00    +0.000 A 
ATOM      7  N   UNL     1       0.025  14.422  19.651  0.00  0.00    +0.000 NA
ATOM      8  C   UNL     1       0.409  15.772  19.760  0.00  0.00    +0.000 A 
ATOM      9  N   UNL     1       1.597  16.065  19.189  0.00  0.00    +0.000 NA
ATOM     10  C   UNL     1       2.011  17.353  19.250  0.00  0.00    +0.000 A 
ATOM     11  C   UNL     1       1.301  18.373  19.866  0.00  0.00    +0.000 A 
ATOM     12  C   UNL     1       0.080  18.068  20.453  0.00  0.00    +0.000 A 
ATOM     13  C   UNL     1      -0.367  16.749  20.385  0.00  0.00    +0.000 A 
ATOM     14  N   UNL     1      -1.588  16.319  20.911  0.00  0.00    +0.000 N 
ATOM     15  C   UNL     1      -2.545  17.017  21.602  0.00  0.00    +0.000 A 
ATOM     16  C   UNL     1      -3.553  16.144  21.943  0.00  0.00    +0.000 A 
ATOM     17  C   UNL     1      -3.199  14.873  21.428  0.00  0.00    +0.000 A 
ATOM     18  C   UNL     1      -1.986  15.009  20.781  0.00  0.00    +0.000 A 
ATOM     19  C   UNL     1      -0.784  11.633  20.541  0.00  0.00    +0.000 C 
ENDROOT
BRANCH   1  24
ATOM     20  N   UNL     1       2.761   6.829  18.328  0.00  0.00    +0.000 N 
ATOM     21  C   UNL     1       2.058   6.480  19.575  0.00  0.00    +0.000 C 
ATOM     22  C   UNL     1       1.987   7.731  20.472  0.00  0.00    +0.000 C 
ATOM     23  N   UNL     1       1.387   8.871  19.762  0.00  0.00    +0.000 N 
ATOM     24  C   UNL     1       0.181   9.376  20.215  0.00  0.00    +0.000 C 
ATOM     25  O   UNL     1      -0.362   8.916  21.223  0.00  0.00    +0.000 OA
ATOM     26  C   UNL     1       2.063   9.194  18.490  0.00  0.00    +0.000 C 
ATOM     27  C   UNL     1       2.158   7.949  17.577  0.00  0.00    +0.000 C 
BRANCH  20  32
ATOM     28  C   UNL     1       5.520   5.519  16.194  0.00  0.00    +0.000 A 
ATOM     29  C   UNL     1       5.372   4.149  16.400  0.00  0.00    +0.000 A 
ATOM     30  C   UNL     1       4.385   3.675  17.255  0.00  0.00    +0.000 A 
ATOM     31  C   UNL     1       3.540   4.576  17.909  0.00  0.00    +0.000 A 
ATOM     32  C   UNL     1       3.653   5.962  17.724  0.00  0.00    +0.000 A 
ATOM     33  C   UNL     1       4.663   6.409  16.854  0.00  0.00    +0.000 A 
BRANCH  28  35
ATOM     34  C   UNL     1       7.051   4.826  14.514  0.00  0.00    +0.000 C 
ATOM     35  O   UNL     1       6.525   5.865  15.331  0.00  0.00    +0.000 OA
ENDBRANCH  28  35
ENDBRANCH  20  32
ENDBRANCH   1  24
TORSDOF 3
ENDMDL
MODEL 3
REMARK VINA RESULT:      -7.9      1.705      2.308
REMARK  Name = 
REMARK  4 active torsions:
REMARK  status: ('A' for Active; 'I' for Inactive)
REMARK    1  A    between atoms: C_1  and  O_2
REMARK    2  A    between atoms: O_2  and  C_3
REMARK    3  A    between atoms: C_7  and  N_8
REMARK    4  A    between atoms: C_12  and  C_14
REMARK                            x       y       z     vdW  Elec       q    Type
REMARK                         _______ _______ _______ _____ _____    ______ ____
ROOT
ATOM      1  C   UNL     1      -0.808  12.757  20.596  0.00  0.00    +0.000 C 
ATOM      2  C   UNL     1       0.416  13.497  21.166  0.00  0.00    +0.000 C 
ATOM      3  C   UNL     1       0.034  14.334  22.384  0.00  0.00    +0.000 C 
ATOM      4  C   UNL     1      -1.095  15.305  22.044  0.00  0.00    +0.000 C 
ATOM      5  N   UNL     1      -2.219  14.557  21.500  0.00  0.00    +0.000 N 
ATOM      6  C   UNL     1      -3.497  14.682  22.009  0.00  0.00    +0.000 A 
ATOM      7  N   UNL     1      -4.107  13.616  22.456  0.00  0.00    +0.000 NA
ATOM      8  C   UNL     1      -5.383  13.736  23.037  0.00  0.00    +0.000 A 
ATOM      9  N   UNL     1      -5.883  12.585  23.536  0.00  0.00    +0.000 NA
ATOM     10  C   UNL     1      -7.103  12.643  24.120  0.00  0.00    +0.000 A 
ATOM     11  C   UNL     1      -7.865  13.797  24.225  0.00  0.00    +0.000 A 
ATOM     12  C   UNL     1      -7.349  14.980  23.710  0.00  0.00    +0.000 A 
ATOM     13  C   UNL     1      -6.087  14.938  23.118  0.00  0.00    +0.000 A 
ATOM     14  N   UNL     1      -5.445  16.061  22.588  0.00  0.00    +0.000 N 
ATOM     15  C   UNL     1      -5.879  17.358  22.486  0.00  0.00    +0.000 A 
ATOM     16  C   UNL     1      -4.901  18.090  21.852  0.00  0.00    +0.000 A 
ATOM     17  C   UNL     1      -3.830  17.206  21.570  0.00  0.00    +0.000 A 
ATOM     18  C   UNL     1      -4.184  15.960  22.047  0.00  0.00    +0.000 A 
ATOM     19  C   UNL     1      -1.949  13.739  20.321  0.00  0.00    +0.000 C 
ENDROOT
BRANCH   1  24
ATOM     20  N   UNL     1       1.554   8.498  19.229  0.00  0.00    +0.000 N 
ATOM     21  C   UNL     1       1.461   9.387  18.057  0.00  0.00    +0.000 C 
ATOM     22  C   UNL     1       0.055  10.017  18.021  0.00  0.00    +0.000 C 
ATOM     23  N   UNL     1      -0.269  10.688  19.290  0.00  0.00    +0.000 N 
ATOM     24  C   UNL     1      -0.453  12.058  19.289  0.00  0.00    +0.000 C 
ATOM     25  O   UNL     1      -0.398  12.706  18.240  0.00  0.00    +0.000 OA
ATOM     26  C   UNL     1      -0.133   9.811  20.470  0.00  0.00    +0.000 C 
ATOM     27  C   UNL     1       1.268   9.156  20.520  0.00  0.00    +0.000 C 
BRANCH  20  32
ATOM     28  C   UNL     1       2.750   5.086  20.125  0.00  0.00    +0.000 A 
ATOM     29  C   UNL     1       3.679   4.868  19.110  0.00  0.00    +0.000 A 
ATOM     30  C   UNL     1       3.883   5.833  18.132  0.00  0.00    +0.000 A 
ATOM     31  C   UNL     1       3.153   7.023  18.168  0.00  0.00    +0.000 A 
ATOM     32  C   UNL     1       2.213   7.284  19.176  0.00  0.00    +0.000 A 
ATOM     33  C   UNL     1       2.028   6.286  20.149  0.00  0.00    +0.000 A 
BRANCH  28  35
ATOM     34  C   UNL     1       1.446   3.289  20.975  0.00  0.00    +0.000 C 
ATOM     35  O   UNL     1       2.637   4.064  21.030  0.00  0.00    +0.000 OA
ENDBRANCH  28  35
ENDBRANCH  20  32
ENDBRANCH   1  24
TORSDOF 3
ENDMDL
MODEL 4
REMARK VINA RESULT:      -7.9      1.505      1.784
REMARK  Name = 
REMARK  4 active torsions:
REMARK  status: ('A' for Active; 'I' for Inactive)
REMARK    1  A    between atoms: C_1  and  O_2
REMARK    2  A    between atoms: O_2  and  C_3
REMARK    3  A    between atoms: C_7  and  N_8
REMARK    4  A    between atoms: C_12  and  C_14
REMARK                            x       y       z     vdW  Elec       q    Type
REMARK                         _______ _______ _______ _____ _____    ______ ____
ROOT
ATOM      1  C   UNL     1      -0.423  12.696  20.645  0.00  0.00    +0.000 C 
ATOM      2  C   UNL     1       0.746  13.555  21.162  0.00  0.00    +0.000 C 
ATOM      3  C   UNL     1       0.298  14.461  22.306  0.00  0.00    +0.000 C 
ATOM      4  C   UNL     1      -0.885  15.328  21.882  0.00  0.00    +0.000 C 
ATOM      5  N   UNL     1      -1.954  14.470  21.392  0.00  0.00    +0.000 N 
ATOM      6  C   UNL     1      -3.243  14.554  21.880  0.00  0.00    +0.000 A 
ATOM      7  N   UNL     1      -3.791  13.491  22.408  0.00  0.00    +0.000 NA
ATOM      8  C   UNL     1      -5.079  13.577  22.968  0.00  0.00    +0.000 A 
ATOM      9  N   UNL     1      -5.512  12.441  23.555  0.00  0.00    +0.000 NA
ATOM     10  C   UNL     1      -6.740  12.469  24.124  0.00  0.00    +0.000 A 
ATOM     11  C   UNL     1      -7.574  13.577  24.130  0.00  0.00    +0.000 A 
ATOM     12  C   UNL     1      -7.126  14.745  23.525  0.00  0.00    +0.000 A 
ATOM     13  C   UNL     1      -5.856  14.735  22.948  0.00  0.00    +0.000 A 
ATOM     14  N   UNL     1      -5.280  15.850  22.333  0.00  0.00    +0.000 N 
ATOM     15  C   UNL     1      -5.792  17.105  22.124  0.00  0.00    +0.000 A 
ATOM     16  C   UNL     1      -4.853  17.844  21.439  0.00  0.00    +0.000 A 
ATOM     17  C   UNL     1      -3.727  17.010  21.237  0.00  0.00    +0.000 A 
ATOM     18  C   UNL     1      -4.009  15.785  21.811  0.00  0.00    +0.000 A 
ATOM     19  C   UNL     1      -1.620  13.579  20.284  0.00  0.00    +0.000 C 
ENDROOT
BRANCH   1  24
ATOM     20  N   UNL     1       1.655   8.194  19.646  0.00  0.00    +0.000 N 
ATOM     21  C   UNL     1       1.758   9.041  18.445  0.00  0.00    +0.000 C 
ATOM     22  C   UNL     1       0.427   9.793  18.250  0.00  0.00    +0.000 C 
ATOM     23  N   UNL     1       0.046  10.538  19.461  0.00  0.00    +0.000 N 
ATOM     24  C   UNL     1      -0.010  11.918  19.401  0.00  0.00    +0.000 C 
ATOM     25  O   UNL     1       0.207  12.518  18.344  0.00  0.00    +0.000 OA
ATOM     26  C   UNL     1      -0.015   9.698  20.674  0.00  0.00    +0.000 C 
ATOM     27  C   UNL     1       1.307   8.923  20.883  0.00  0.00    +0.000 C 
BRANCH  20  32
ATOM     28  C   UNL     1       3.636   5.163  18.768  0.00  0.00    +0.000 A 
ATOM     29  C   UNL     1       3.190   4.276  19.745  0.00  0.00    +0.000 A 
ATOM     30  C   UNL     1       2.264   4.692  20.694  0.00  0.00    +0.000 A 
ATOM     31  C   UNL     1       1.780   6.002  20.666  0.00  0.00    +0.000 A 
ATOM     32  C   UNL     1       2.200   6.924  19.695  0.00  0.00    +0.000 A 
ATOM     33  C   UNL     1       3.139   6.473  18.751  0.00  0.00    +0.000 A 
BRANCH  28  35
ATOM     34  C   UNL     1       5.897   4.574  18.332  0.00  0.00    +0.000 C 
ATOM     35  O   UNL     1       4.546   4.640  17.890  0.00  0.00    +0.000 OA
ENDBRANCH  28  35
ENDBRANCH  20  32
ENDBRANCH   1  24
TORSDOF 3
ENDMDL
MODEL 5
REMARK VINA RESULT:      -7.8      0.992      1.028
REMARK  Name = 
REMARK  4 active torsions:
REMARK  status: ('A' for Active; 'I' for Inactive)
REMARK    1  A    between atoms: C_1  and  O_2
REMARK    2  A    between atoms: O_2  and  C_3
REMARK    3  A    between atoms: C_7  and  N_8
REMARK    4  A    between atoms: C_12  and  C_14
REMARK                            x       y       z     vdW  Elec       q    Type
REMARK                         _______ _______ _______ _____ _____    ______ ____
ROOT
ATOM      1  C   UNL     1       0.642  12.439  20.362  0.00  0.00    +0.000 C 
ATOM      2  C   UNL     1       1.778  13.429  20.680  0.00  0.00    +0.000 C 
ATOM      3  C   UNL     1       1.335  14.460  21.715  0.00  0.00    +0.000 C 
ATOM      4  C   UNL     1       0.075  15.188  21.253  0.00  0.00    +0.000 C 
ATOM      5  N   UNL     1      -0.960  14.208  20.955  0.00  0.00    +0.000 N 
ATOM      6  C   UNL     1      -2.222  14.285  21.508  0.00  0.00    +0.000 A 
ATOM      7  N   UNL     1      -2.668  13.277  22.211  0.00  0.00    +0.000 NA
ATOM      8  C   UNL     1      -3.926  13.365  22.836  0.00  0.00    +0.000 A 
ATOM      9  N   UNL     1      -4.249  12.300  23.600  0.00  0.00    +0.000 NA
ATOM     10  C   UNL     1      -5.443  12.336  24.238  0.00  0.00    +0.000 A 
ATOM     11  C   UNL     1      -6.347  13.384  24.145  0.00  0.00    +0.000 A 
ATOM     12  C   UNL     1      -6.012  14.478  23.358  0.00  0.00    +0.000 A 
ATOM     13  C   UNL     1      -4.779  14.462  22.707  0.00  0.00    +0.000 A 
ATOM     14  N   UNL     1      -4.313  15.511  21.909  0.00  0.00    +0.000 N 
ATOM     15  C   UNL     1      -4.918  16.692  21.564  0.00  0.00    +0.000 A 
ATOM     16  C   UNL     1      -4.071  17.381  20.725  0.00  0.00    +0.000 A 
ATOM     17  C   UNL     1      -2.905  16.593  20.568  0.00  0.00    +0.000 A 
ATOM     18  C   UNL     1      -3.071  15.447  21.320  0.00  0.00    +0.000 A 
ATOM     19  C   UNL     1      -0.629  13.192  19.961  0.00  0.00    +0.000 C 
ENDROOT
BRANCH   1  24
ATOM     20  N   UNL     1       1.927   7.577  19.819  0.00  0.00    +0.000 N 
ATOM     21  C   UNL     1       2.323   8.312  18.604  0.00  0.00    +0.000 C 
ATOM     22  C   UNL     1       1.188   9.280  18.216  0.00  0.00    +0.000 C 
ATOM     23  N   UNL     1       0.823  10.159  19.338  0.00  0.00    +0.000 N 
ATOM     24  C   UNL     1       1.037  11.520  19.212  0.00  0.00    +0.000 C 
ATOM     25  O   UNL     1       1.480  12.000  18.165  0.00  0.00    +0.000 OA
ATOM     26  C   UNL     1       0.469   9.426  20.570  0.00  0.00    +0.000 C 
ATOM     27  C   UNL     1       1.588   8.437  20.971  0.00  0.00    +0.000 C 
BRANCH  20  32
ATOM     28  C   UNL     1       3.655   4.282  19.634  0.00  0.00    +0.000 A 
ATOM     29  C   UNL     1       2.701   3.461  20.232  0.00  0.00    +0.000 A 
ATOM     30  C   UNL     1       1.515   4.004  20.710  0.00  0.00    +0.000 A 
ATOM     31  C   UNL     1       1.280   5.376  20.589  0.00  0.00    +0.000 A 
ATOM     32  C   UNL     1       2.213   6.235  19.988  0.00  0.00    +0.000 A 
ATOM     33  C   UNL     1       3.404   5.655  19.517  0.00  0.00    +0.000 A 
BRANCH  28  35
ATOM     34  C   UNL     1       5.720   4.407  18.465  0.00  0.00    +0.000 C 
ATOM     35  O   UNL     1       4.781   3.634  19.203  0.00  0.00    +0.000 OA
ENDBRANCH  28  35
ENDBRANCH  20  32
ENDBRANCH   1  24
TORSDOF 3
ENDMDL
MODEL 6
REMARK VINA RESULT:      -7.8      2.587      3.959
REMARK  Name = 
REMARK  4 active torsions:
REMARK  status: ('A' for Active; 'I' for Inactive)
REMARK    1  A    between atoms: C_1  and  O_2
REMARK    2  A    between atoms: O_2  and  C_3
REMARK    3  A    between atoms: C_7  and  N_8
REMARK    4  A    between atoms: C_12  and  C_14
REMARK                            x       y       z     vdW  Elec       q    Type
REMARK                         _______ _______ _______ _____ _____    ______ ____
ROOT
ATOM      1  C   UNL     1      -0.204  10.450  20.343  0.00  0.00    +0.000 C 
ATOM      2  C   UNL     1      -1.023  10.342  19.044  0.00  0.00    +0.000 C 
ATOM      3  C   UNL     1      -1.613  11.695  18.652  0.00  0.00    +0.000 C 
ATOM      4  C   UNL     1      -2.450  12.273  19.791  0.00  0.00    +0.000 C 
ATOM      5  N   UNL     1      -1.633  12.342  20.995  0.00  0.00    +0.000 N 
ATOM      6  C   UNL     1      -1.499  13.508  21.723  0.00  0.00    +0.000 A 
ATOM      7  N   UNL     1      -0.303  14.000  21.913  0.00  0.00    +0.000 NA
ATOM      8  C   UNL     1      -0.153  15.221  22.597  0.00  0.00    +0.000 A 
ATOM      9  N   UNL     1       1.117  15.674  22.666  0.00  0.00    +0.000 NA
ATOM     10  C   UNL     1       1.319  16.853  23.300  0.00  0.00    +0.000 A 
ATOM     11  C   UNL     1       0.314  17.608  23.886  0.00  0.00    +0.000 A 
ATOM     12  C   UNL     1      -0.992  17.139  23.814  0.00  0.00    +0.000 A 
ATOM     13  C   UNL     1      -1.218  15.934  23.151  0.00  0.00    +0.000 A 
ATOM     14  N   UNL     1      -2.485  15.369  22.986  0.00  0.00    +0.000 N 
ATOM     15  C   UNL     1      -3.708  15.800  23.434  0.00  0.00    +0.000 A 
ATOM     16  C   UNL     1      -4.657  14.880  23.049  0.00  0.00    +0.000 A 
ATOM     17  C   UNL     1      -3.986  13.861  22.329  0.00  0.00    +0.000 A 
ATOM     18  C   UNL     1      -2.645  14.192  22.291  0.00  0.00    +0.000 A 
ATOM     19  C   UNL     1      -1.041  11.089  21.453  0.00  0.00    +0.000 C 
ENDROOT
BRANCH   1  24
ATOM     20  N   UNL     1       2.625   6.678  18.511  0.00  0.00    +0.000 N 
ATOM     21  C   UNL     1       1.823   6.167  19.637  0.00  0.00    +0.000 C 
ATOM     22  C   UNL     1       1.842   7.208  20.774  0.00  0.00    +0.000 C 
ATOM     23  N   UNL     1       1.407   8.531  20.300  0.00  0.00    +0.000 N 
ATOM     24  C   UNL     1       0.242   9.070  20.813  0.00  0.00    +0.000 C 
ATOM     25  O   UNL     1      -0.401   8.481  21.687  0.00  0.00    +0.000 OA
ATOM     26  C   UNL     1       2.180   9.026  19.144  0.00  0.00    +0.000 C 
ATOM     27  C   UNL     1       2.188   7.991  17.994  0.00  0.00    +0.000 C 
BRANCH  20  32
ATOM     28  C   UNL     1       5.254   5.524  16.137  0.00  0.00    +0.000 A 
ATOM     29  C   UNL     1       5.022   4.150  16.150  0.00  0.00    +0.000 A 
ATOM     30  C   UNL     1       4.023   3.619  16.956  0.00  0.00    +0.000 A 
ATOM     31  C   UNL     1       3.250   4.466  17.754  0.00  0.00    +0.000 A 
ATOM     32  C   UNL     1       3.448   5.855  17.765  0.00  0.00    +0.000 A 
ATOM     33  C   UNL     1       4.468   6.360  16.940  0.00  0.00    +0.000 A 
BRANCH  28  35
ATOM     34  C   UNL     1       6.991   4.904  14.639  0.00  0.00    +0.000 C 
ATOM     35  O   UNL     1       6.262   5.928  15.304  0.00  0.00    +0.000 OA
ENDBRANCH  28  35
ENDBRANCH  20  32
ENDBRANCH   1  24
TORSDOF 3
ENDMDL
MODEL 7
REMARK VINA RESULT:      -7.7      5.703      9.969
REMARK  Name = 
REMARK  4 active torsions:
REMARK  status: ('A' for Active; 'I' for Inactive)
REMARK    1  A    between atoms: C_1  and  O_2
REMARK    2  A    between atoms: O_2  and  C_3
REMARK    3  A    between atoms: C_7  and  N_8
REMARK    4  A    between atoms: C_12  and  C_14
REMARK                            x       y       z     vdW  Elec       q    Type
REMARK                         _______ _______ _______ _____ _____    ______ ____
ROOT
ATOM      1  C   UNL     1       3.676  14.474  19.488  0.00  0.00    +0.000 C 
ATOM      2  C   UNL     1       3.034  15.737  18.885  0.00  0.00    +0.000 C 
ATOM      3  C   UNL     1       4.053  16.539  18.079  0.00  0.00    +0.000 C 
ATOM      4  C   UNL     1       5.271  16.886  18.933  0.00  0.00    +0.000 C 
ATOM      5  N   UNL     1       5.830  15.661  19.486  0.00  0.00    +0.000 N 
ATOM      6  C   UNL     1       7.164  15.335  19.345  0.00  0.00    +0.000 A 
ATOM      7  N   UNL     1       7.482  14.207  18.766  0.00  0.00    +0.000 NA
ATOM      8  C   UNL     1       8.837  13.889  18.556  0.00  0.00    +0.000 A 
ATOM      9  N   UNL     1       9.046  12.739  17.880  0.00  0.00    +0.000 NA
ATOM     10  C   UNL     1      10.331  12.391  17.636  0.00  0.00    +0.000 A 
ATOM     11  C   UNL     1      11.432  13.129  18.043  0.00  0.00    +0.000 A 
ATOM     12  C   UNL     1      11.214  14.311  18.740  0.00  0.00    +0.000 A 
ATOM     13  C   UNL     1       9.895  14.691  18.985  0.00  0.00    +0.000 A 
ATOM     14  N   UNL     1       9.542  15.869  19.650  0.00  0.00    +0.000 N 
ATOM     15  C   UNL     1      10.335  16.835  20.214  0.00  0.00    +0.000 A 
ATOM     16  C   UNL     1       9.518  17.783  20.786  0.00  0.00    +0.000 A 
ATOM     17  C   UNL     1       8.180  17.383  20.549  0.00  0.00    +0.000 A 
ATOM     18  C   UNL     1       8.220  16.203  19.832  0.00  0.00    +0.000 A 
ATOM     19  C   UNL     1       4.929  14.837  20.288  0.00  0.00    +0.000 C 
ENDROOT
BRANCH   1  24
ATOM     20  N   UNL     1      -0.995  12.560  19.161  0.00  0.00    +0.000 N 
ATOM     21  C   UNL     1      -0.645  12.716  20.583  0.00  0.00    +0.000 C 
ATOM     22  C   UNL     1       0.808  12.246  20.792  0.00  0.00    +0.000 C 
ATOM     23  N   UNL     1       1.735  12.938  19.883  0.00  0.00    +0.000 N 
ATOM     24  C   UNL     1       2.699  13.769  20.423  0.00  0.00    +0.000 C 
ATOM     25  O   UNL     1       2.818  13.895  21.645  0.00  0.00    +0.000 OA
ATOM     26  C   UNL     1       1.360  12.821  18.459  0.00  0.00    +0.000 C 
ATOM     27  C   UNL     1      -0.100  13.274  18.227  0.00  0.00    +0.000 C 
BRANCH  20  32
ATOM     28  C   UNL     1      -3.738  11.141  17.078  0.00  0.00    +0.000 A 
ATOM     29  C   UNL     1      -4.831  11.357  17.914  0.00  0.00    +0.000 A 
ATOM     30  C   UNL     1      -4.649  11.943  19.161  0.00  0.00    +0.000 A 
ATOM     31  C   UNL     1      -3.368  12.315  19.574  0.00  0.00    +0.000 A 
ATOM     32  C   UNL     1      -2.243  12.120  18.758  0.00  0.00    +0.000 A 
ATOM     33  C   UNL     1      -2.460  11.523  17.504  0.00  0.00    +0.000 A 
BRANCH  28  35
ATOM     34  C   UNL     1      -2.967  10.385  14.960  0.00  0.00    +0.000 C 
ATOM     35  O   UNL     1      -4.042  10.558  15.876  0.00  0.00    +0.000 OA
ENDBRANCH  28  35
ENDBRANCH  20  32
ENDBRANCH   1  24
TORSDOF 3
ENDMDL
MODEL 8
REMARK VINA RESULT:      -7.7      2.420      3.873
REMARK  Name = 
REMARK  4 active torsions:
REMARK  status: ('A' for Active; 'I' for Inactive)
REMARK    1  A    between atoms: C_1  and  O_2
REMARK    2  A    between atoms: O_2  and  C_3
REMARK    3  A    between atoms: C_7  and  N_8
REMARK    4  A    between atoms: C_12  and  C_14
REMARK                            x       y       z     vdW  Elec       q    Type
REMARK                         _______ _______ _______ _____ _____    ______ ____
ROOT
ATOM      1  C   UNL     1      -1.274  11.919  21.841  0.00  0.00    +0.000 C 
ATOM      2  C   UNL     1      -1.664  11.680  20.370  0.00  0.00    +0.000 C 
ATOM      3  C   UNL     1      -2.582  12.788  19.858  0.00  0.00    +0.000 C 
ATOM      4  C   UNL     1      -3.817  12.924  20.747  0.00  0.00    +0.000 C 
ATOM      5  N   UNL     1      -3.393  13.135  22.124  0.00  0.00    +0.000 N 
ATOM      6  C   UNL     1      -3.859  14.192  22.880  0.00  0.00    +0.000 A 
ATOM      7  N   UNL     1      -2.999  15.036  23.386  0.00  0.00    +0.000 NA
ATOM      8  C   UNL     1      -3.460  16.155  24.104  0.00  0.00    +0.000 A 
ATOM      9  N   UNL     1      -2.489  17.000  24.512  0.00  0.00    +0.000 NA
ATOM     10  C   UNL     1      -2.876  18.102  25.196  0.00  0.00    +0.000 A 
ATOM     11  C   UNL     1      -4.193  18.406  25.508  0.00  0.00    +0.000 A 
ATOM     12  C   UNL     1      -5.190  17.534  25.089  0.00  0.00    +0.000 A 
ATOM     13  C   UNL     1      -4.807  16.402  24.370  0.00  0.00    +0.000 A 
ATOM     14  N   UNL     1      -5.713  15.463  23.869  0.00  0.00    +0.000 N 
ATOM     15  C   UNL     1      -7.078  15.404  23.987  0.00  0.00    +0.000 A 
ATOM     16  C   UNL     1      -7.517  14.265  23.351  0.00  0.00    +0.000 A 
ATOM     17  C   UNL     1      -6.377  13.617  22.817  0.00  0.00    +0.000 A 
ATOM     18  C   UNL     1      -5.274  14.383  23.138  0.00  0.00    +0.000 A 
ATOM     19  C   UNL     1      -2.524  12.114  22.702  0.00  0.00    +0.000 C 
ENDROOT
BRANCH   1  24
ATOM     20  N   UNL     1       1.690   8.280  19.955  0.00  0.00    +0.000 N 
ATOM     21  C   UNL     1       1.269   7.893  21.313  0.00  0.00    +0.000 C 
ATOM     22  C   UNL     1       1.359   9.126  22.233  0.00  0.00    +0.000 C 
ATOM     23  N   UNL     1       0.600  10.262  21.687  0.00  0.00    +0.000 N 
ATOM     24  C   UNL     1      -0.495  10.729  22.389  0.00  0.00    +0.000 C 
ATOM     25  O   UNL     1      -0.808  10.239  23.478  0.00  0.00    +0.000 OA
ATOM     26  C   UNL     1       0.991  10.623  20.309  0.00  0.00    +0.000 C 
ATOM     27  C   UNL     1       0.921   9.396  19.370  0.00  0.00    +0.000 C 
BRANCH  20  32
ATOM     28  C   UNL     1       3.651   5.336  18.783  0.00  0.00    +0.000 A 
ATOM     29  C   UNL     1       4.137   5.821  17.571  0.00  0.00    +0.000 A 
ATOM     30  C   UNL     1       3.795   7.097  17.143  0.00  0.00    +0.000 A 
ATOM     31  C   UNL     1       2.962   7.895  17.932  0.00  0.00    +0.000 A 
ATOM     32  C   UNL     1       2.456   7.446  19.161  0.00  0.00    +0.000 A 
ATOM     33  C   UNL     1       2.819   6.149  19.565  0.00  0.00    +0.000 A 
BRANCH  28  35
ATOM     34  C   UNL     1       3.039   3.078  19.202  0.00  0.00    +0.000 C 
ATOM     35  O   UNL     1       4.056   4.067  19.099  0.00  0.00    +0.000 OA
ENDBRANCH  28  35
ENDBRANCH  20  32
ENDBRANCH   1  24
TORSDOF 3
ENDMDL
MODEL 9
REMARK VINA RESULT:      -7.7      1.274      1.634
REMARK  Name = 
REMARK  4 active torsions:
REMARK  status: ('A' for Active; 'I' for Inactive)
REMARK    1  A    between atoms: C_1  and  O_2
REMARK    2  A    between atoms: O_2  and  C_3
REMARK    3  A    between atoms: C_7  and  N_8
REMARK    4  A    between atoms: C_12  and  C_14
REMARK                            x       y       z     vdW  Elec       q    Type
REMARK                         _______ _______ _______ _____ _____    ______ ____
ROOT
ATOM      1  C   UNL     1       0.338  12.666  20.396  0.00  0.00    +0.000 C 
ATOM      2  C   UNL     1       1.488  13.582  20.852  0.00  0.00    +0.000 C 
ATOM      3  C   UNL     1       1.031  14.529  21.959  0.00  0.00    +0.000 C 
ATOM      4  C   UNL     1      -0.184  15.341  21.513  0.00  0.00    +0.000 C 
ATOM      5  N   UNL     1      -1.234  14.429  21.082  0.00  0.00    +0.000 N 
ATOM      6  C   UNL     1      -2.518  14.499  21.587  0.00  0.00    +0.000 A 
ATOM      7  N   UNL     1      -3.025  13.448  22.173  0.00  0.00    +0.000 NA
ATOM      8  C   UNL     1      -4.307  13.522  22.750  0.00  0.00    +0.000 A 
ATOM      9  N   UNL     1      -4.698  12.404  23.398  0.00  0.00    +0.000 NA
ATOM     10  C   UNL     1      -5.917  12.423  23.985  0.00  0.00    +0.000 A 
ATOM     11  C   UNL     1      -6.783  13.506  23.952  0.00  0.00    +0.000 A 
ATOM     12  C   UNL     1      -6.379  14.656  23.284  0.00  0.00    +0.000 A 
ATOM     13  C   UNL     1      -5.119  14.655  22.687  0.00  0.00    +0.000 A 
ATOM     14  N   UNL     1      -4.585  15.755  22.010  0.00  0.00    +0.000 N 
ATOM     15  C   UNL     1      -5.137  16.984  21.751  0.00  0.00    +0.000 A 
ATOM     16  C   UNL     1      -4.232  17.716  21.016  0.00  0.00    +0.000 A 
ATOM     17  C   UNL     1      -3.084  16.906  20.836  0.00  0.00    +0.000 A 
ATOM     18  C   UNL     1      -3.321  15.703  21.471  0.00  0.00    +0.000 A 
ATOM     19  C   UNL     1      -0.890  13.496  20.013  0.00  0.00    +0.000 C 
ENDROOT
BRANCH   1  24
ATOM     20  N   UNL     1       1.859   7.922  19.525  0.00  0.00    +0.000 N 
ATOM     21  C   UNL     1       2.192   8.750  18.352  0.00  0.00    +0.000 C 
ATOM     22  C   UNL     1       1.001   9.679  18.046  0.00  0.00    +0.000 C 
ATOM     23  N   UNL     1       0.614  10.467  19.227  0.00  0.00    +0.000 N 
ATOM     24  C   UNL     1       0.755  11.842  19.184  0.00  0.00    +0.000 C 
ATOM     25  O   UNL     1       1.151  12.409  18.161  0.00  0.00    +0.000 OA
ATOM     26  C   UNL     1       0.324   9.641  20.416  0.00  0.00    +0.000 C 
ATOM     27  C   UNL     1       1.501   8.689  20.735  0.00  0.00    +0.000 C 
BRANCH  20  32
ATOM     28  C   UNL     1       2.391   4.479  20.845  0.00  0.00    +0.000 A 
ATOM     29  C   UNL     1       3.086   3.904  19.783  0.00  0.00    +0.000 A 
ATOM     30  C   UNL     1       3.348   4.646  18.638  0.00  0.00    +0.000 A 
ATOM     31  C   UNL     1       2.914   5.971  18.554  0.00  0.00    +0.000 A 
ATOM     32  C   UNL     1       2.217   6.588  19.604  0.00  0.00    +0.000 A 
ATOM     33  C   UNL     1       1.966   5.810  20.748  0.00  0.00    +0.000 A 
BRANCH  28  35
ATOM     34  C   UNL     1       1.373   2.509  21.701  0.00  0.00    +0.000 C 
ATOM     35  O   UNL     1       2.194   3.651  21.918  0.00  0.00    +0.000 OA
ENDBRANCH  28  35
ENDBRANCH  20  32
ENDBRANCH   1  24
TORSDOF 3
ENDMDL
