MODEL 1
REMARK VINA RESULT:      -7.4      0.000      0.000
REMARK  Name = 
REMARK  12 active torsions:
REMARK  status: ('A' for Active; 'I' for Inactive)
REMARK    1  A    between atoms: C_1  and  C_2
REMARK    2  A    between atoms: C_4  and  C_5
REMARK    3  A    between atoms: C_5  and  P_6
REMARK    4  A    between atoms: P_6  and  O_8
REMARK    5  A    between atoms: P_6  and  O_9
REMARK    6  A    between atoms: C_11  and  C_12
REMARK    7  A    between atoms: C_13  and  O_14
REMARK    8  A    between atoms: O_14  and  C_15
REMARK    9  A    between atoms: C_18  and  O_19
REMARK   10  A    between atoms: C_20  and  C_21
REMARK   11  A    between atoms: C_21  and  C_22
REMARK   12  A    between atoms: C_21  and  C_23
REMARK                            x       y       z     vdW  Elec       q    Type
REMARK                         _______ _______ _______ _____ _____    ______ ____
ROOT
ATOM      1  C   UNL     1       3.286   7.591  17.235  0.00  0.00    +0.000 C 
ATOM      2  C   UNL     1       2.586   7.045  18.450  0.00  0.00    +0.000 A 
ATOM      3  C   UNL     1       2.193   7.977  19.423  0.00  0.00    +0.000 A 
ATOM      4  C   UNL     1       1.646   7.577  20.648  0.00  0.00    +0.000 A 
ATOM      5  C   UNL     1       1.428   6.214  20.885  0.00  0.00    +0.000 A 
ATOM      6  C   UNL     1       1.778   5.261  19.919  0.00  0.00    +0.000 A 
ATOM      7  C   UNL     1       1.593   3.801  20.239  0.00  0.00    +0.000 C 
ATOM      8  C   UNL     1       2.344   5.675  18.691  0.00  0.00    +0.000 A 
ENDROOT
BRANCH   4   9
ATOM      9  C   UNL     1       1.463   8.596  21.726  0.00  0.00    +0.000 C 
BRANCH   9  10
ATOM     10  P   UNL     1      -0.019   9.513  21.976  0.00  0.00    +0.000 P 
ATOM     11  O   UNL     1      -0.651  10.188  20.801  0.00  0.00    +0.000 OA
BRANCH  10  12
ATOM     12  O   UNL     1      -1.014   8.391  22.562  0.00  0.00    +0.000 OA
ATOM     13  H   UNL     1      -0.837   8.186  23.500  0.00  0.00    +0.000 HD
ENDBRANCH  10  12
BRANCH  10  14
ATOM     14  O   UNL     1       0.101  10.491  23.245  0.00  0.00    +0.000 OA
ATOM     15  H   UNL     1      -0.005  10.018  24.091  0.00  0.00    +0.000 HD
ENDBRANCH  10  14
ENDBRANCH   9  10
ENDBRANCH   4   9
BRANCH   8  16
ATOM     16  O   UNL     1       2.740   4.658  17.840  0.00  0.00    +0.000 OA
BRANCH  16  17
ATOM     17  C   UNL     1       4.079   4.477  17.575  0.00  0.00    +0.000 A 
ATOM     18  C   UNL     1       4.940   4.547  18.668  0.00  0.00    +0.000 A 
ATOM     19  C   UNL     1       6.319   4.478  18.474  0.00  0.00    +0.000 A 
ATOM     20  C   UNL     1       6.831   4.334  17.182  0.00  0.00    +0.000 A 
ATOM     21  C   UNL     1       5.984   4.207  16.072  0.00  0.00    +0.000 A 
ATOM     22  C   UNL     1       4.594   4.242  16.298  0.00  0.00    +0.000 A 
BRANCH  21  23
ATOM     23  C   UNL     1       6.523   4.064  14.658  0.00  0.00    +0.000 C 
ATOM     24  C   UNL     1       5.395   3.761  13.666  0.00  0.00    +0.000 C 
ATOM     25  C   UNL     1       7.307   5.306  14.211  0.00  0.00    +0.000 C 
ENDBRANCH  21  23
BRANCH  20  26
ATOM     26  O   UNL     1       8.186   4.319  16.992  0.00  0.00    +0.000 OA
ATOM     27  H   UNL     1       8.402   3.640  16.333  0.00  0.00    +0.000 HD
ENDBRANCH  20  26
ENDBRANCH  16  17
ENDBRANCH   8  16
TORSDOF 8
ENDMDL
MODEL 2
REMARK VINA RESULT:      -7.3      2.909      4.627
REMARK  Name = 
REMARK  12 active torsions:
REMARK  status: ('A' for Active; 'I' for Inactive)
REMARK    1  A    between atoms: C_1  and  C_2
REMARK    2  A    between atoms: C_4  and  C_5
REMARK    3  A    between atoms: C_5  and  P_6
REMARK    4  A    between atoms: P_6  and  O_8
REMARK    5  A    between atoms: P_6  and  O_9
REMARK    6  A    between atoms: C_11  and  C_12
REMARK    7  A    between atoms: C_13  and  O_14
REMARK    8  A    between atoms: O_14  and  C_15
REMARK    9  A    between atoms: C_18  and  O_19
REMARK   10  A    between atoms: C_20  and  C_21
REMARK   11  A    between atoms: C_21  and  C_22
REMARK   12  A    between atoms: C_21  and  C_23
REMARK                            x       y       z     vdW  Elec       q    Type
REMARK                         _______ _______ _______ _____ _____    ______ ____
ROOT
ATOM      1  C   UNL     1       2.450   8.441  17.554  0.00  0.00    +0.000 C 
ATOM      2  C   UNL     1       1.398   8.875  18.539  0.00  0.00    +0.000 A 
ATOM      3  C   UNL     1       0.401   9.737  18.057  0.00  0.00    +0.000 A 
ATOM      4  C   UNL     1      -0.557  10.303  18.906  0.00  0.00    +0.000 A 
ATOM      5  C   UNL     1      -0.558   9.953  20.261  0.00  0.00    +0.000 A 
ATOM      6  C   UNL     1       0.403   9.068  20.767  0.00  0.00    +0.000 A 
ATOM      7  C   UNL     1       0.412   8.771  22.243  0.00  0.00    +0.000 C 
ATOM      8  C   UNL     1       1.376   8.513  19.903  0.00  0.00    +0.000 A 
ENDROOT
BRANCH   4   9
ATOM      9  C   UNL     1      -1.443  11.385  18.378  0.00  0.00    +0.000 C 
BRANCH   9  10
ATOM     10  P   UNL     1      -2.794  11.107  17.283  0.00  0.00    +0.000 P 
ATOM     11  O   UNL     1      -3.481   9.780  17.313  0.00  0.00    +0.000 OA
BRANCH  10  12
ATOM     12  O   UNL     1      -3.825  12.265  17.721  0.00  0.00    +0.000 OA
ATOM     13  H   UNL     1      -3.851  12.397  18.688  0.00  0.00    +0.000 HD
ENDBRANCH  10  12
BRANCH  10  14
ATOM     14  O   UNL     1      -2.446  11.576  15.786  0.00  0.00    +0.000 OA
ATOM     15  H   UNL     1      -3.183  12.054  15.364  0.00  0.00    +0.000 HD
ENDBRANCH  10  14
ENDBRANCH   9  10
ENDBRANCH   4   9
BRANCH   8  16
ATOM     16  O   UNL     1       2.337   7.723  20.509  0.00  0.00    +0.000 OA
BRANCH  16  17
ATOM     17  C   UNL     1       2.431   6.391  20.174  0.00  0.00    +0.000 A 
ATOM     18  C   UNL     1       1.464   5.547  20.717  0.00  0.00    +0.000 A 
ATOM     19  C   UNL     1       1.548   4.170  20.513  0.00  0.00    +0.000 A 
ATOM     20  C   UNL     1       2.600   3.644  19.762  0.00  0.00    +0.000 A 
ATOM     21  C   UNL     1       3.556   4.476  19.160  0.00  0.00    +0.000 A 
ATOM     22  C   UNL     1       3.429   5.866  19.350  0.00  0.00    +0.000 A 
BRANCH  21  23
ATOM     23  C   UNL     1       4.715   3.919  18.351  0.00  0.00    +0.000 C 
ATOM     24  C   UNL     1       4.387   3.906  16.854  0.00  0.00    +0.000 C 
ATOM     25  C   UNL     1       6.018   4.690  18.604  0.00  0.00    +0.000 C 
ENDBRANCH  21  23
BRANCH  20  26
ATOM     26  O   UNL     1       2.706   2.287  19.608  0.00  0.00    +0.000 OA
ATOM     27  H   UNL     1       3.420   1.964  20.181  0.00  0.00    +0.000 HD
ENDBRANCH  20  26
ENDBRANCH  16  17
ENDBRANCH   8  16
TORSDOF 8
ENDMDL
MODEL 3
REMARK VINA RESULT:      -7.3      0.556      1.122
REMARK  Name = 
REMARK  12 active torsions:
REMARK  status: ('A' for Active; 'I' for Inactive)
REMARK    1  A    between atoms: C_1  and  C_2
REMARK    2  A    between atoms: C_4  and  C_5
REMARK    3  A    between atoms: C_5  and  P_6
REMARK    4  A    between atoms: P_6  and  O_8
REMARK    5  A    between atoms: P_6  and  O_9
REMARK    6  A    between atoms: C_11  and  C_12
REMARK    7  A    between atoms: C_13  and  O_14
REMARK    8  A    between atoms: O_14  and  C_15
REMARK    9  A    between atoms: C_18  and  O_19
REMARK   10  A    between atoms: C_20  and  C_21
REMARK   11  A    between atoms: C_21  and  C_22
REMARK   12  A    between atoms: C_21  and  C_23
REMARK                            x       y       z     vdW  Elec       q    Type
REMARK                         _______ _______ _______ _____ _____    ______ ____
ROOT
ATOM      1  C   UNL     1       3.131   7.839  17.337  0.00  0.00    +0.000 C 
ATOM      2  C   UNL     1       2.468   7.255  18.555  0.00  0.00    +0.000 A 
ATOM      3  C   UNL     1       2.087   8.158  19.560  0.00  0.00    +0.000 A 
ATOM      4  C   UNL     1       1.575   7.721  20.788  0.00  0.00    +0.000 A 
ATOM      5  C   UNL     1       1.380   6.351  20.996  0.00  0.00    +0.000 A 
ATOM      6  C   UNL     1       1.719   5.426  20.000  0.00  0.00    +0.000 A 
ATOM      7  C   UNL     1       1.561   3.956  20.289  0.00  0.00    +0.000 C 
ATOM      8  C   UNL     1       2.250   5.877  18.769  0.00  0.00    +0.000 A 
ENDROOT
BRANCH   4   9
ATOM      9  C   UNL     1       1.405   8.712  21.894  0.00  0.00    +0.000 C 
BRANCH   9  10
ATOM     10  P   UNL     1       0.343  10.113  21.810  0.00  0.00    +0.000 P 
ATOM     11  O   UNL     1      -0.295  10.607  23.069  0.00  0.00    +0.000 OA
BRANCH  10  12
ATOM     12  O   UNL     1       1.324  11.244  21.215  0.00  0.00    +0.000 OA
ATOM     13  H   UNL     1       2.212  11.218  21.618  0.00  0.00    +0.000 HD
ENDBRANCH  10  12
BRANCH  10  14
ATOM     14  O   UNL     1      -0.714   9.979  20.607  0.00  0.00    +0.000 OA
ATOM     15  H   UNL     1      -0.691  10.745  20.004  0.00  0.00    +0.000 HD
ENDBRANCH  10  14
ENDBRANCH   9  10
ENDBRANCH   4   9
BRANCH   8  16
ATOM     16  O   UNL     1       2.638   4.886  17.884  0.00  0.00    +0.000 OA
BRANCH  16  17
ATOM     17  C   UNL     1       3.978   4.669  17.652  0.00  0.00    +0.000 A 
ATOM     18  C   UNL     1       4.820   4.768  18.757  0.00  0.00    +0.000 A 
ATOM     19  C   UNL     1       6.201   4.666  18.592  0.00  0.00    +0.000 A 
ATOM     20  C   UNL     1       6.733   4.461  17.317  0.00  0.00    +0.000 A 
ATOM     21  C   UNL     1       5.904   4.305  16.196  0.00  0.00    +0.000 A 
ATOM     22  C   UNL     1       4.511   4.375  16.395  0.00  0.00    +0.000 A 
BRANCH  21  23
ATOM     23  C   UNL     1       6.466   4.096  14.800  0.00  0.00    +0.000 C 
ATOM     24  C   UNL     1       5.349   3.785  13.797  0.00  0.00    +0.000 C 
ATOM     25  C   UNL     1       7.290   5.300  14.323  0.00  0.00    +0.000 C 
ENDBRANCH  21  23
BRANCH  20  26
ATOM     26  O   UNL     1       8.091   4.413  17.153  0.00  0.00    +0.000 OA
ATOM     27  H   UNL     1       8.483   5.200  17.566  0.00  0.00    +0.000 HD
ENDBRANCH  20  26
ENDBRANCH  16  17
ENDBRANCH   8  16
TORSDOF 8
ENDMDL
MODEL 4
REMARK VINA RESULT:      -7.1      1.251      2.475
REMARK  Name = 
REMARK  12 active torsions:
REMARK  status: ('A' for Active; 'I' for Inactive)
REMARK    1  A    between atoms: C_1  and  C_2
REMARK    2  A    between atoms: C_4  and  C_5
REMARK    3  A    between atoms: C_5  and  P_6
REMARK    4  A    between atoms: P_6  and  O_8
REMARK    5  A    between atoms: P_6  and  O_9
REMARK    6  A    between atoms: C_11  and  C_12
REMARK    7  A    between atoms: C_13  and  O_14
REMARK    8  A    between atoms: O_14  and  C_15
REMARK    9  A    between atoms: C_18  and  O_19
REMARK   10  A    between atoms: C_20  and  C_21
REMARK   11  A    between atoms: C_21  and  C_22
REMARK   12  A    between atoms: C_21  and  C_23
REMARK                            x       y       z     vdW  Elec       q    Type
REMARK                         _______ _______ _______ _____ _____    ______ ____
ROOT
ATOM      1  C   UNL     1       3.109   7.435  17.054  0.00  0.00    +0.000 C 
ATOM      2  C   UNL     1       2.498   7.185  18.407  0.00  0.00    +0.000 A 
ATOM      3  C   UNL     1       1.963   8.299  19.072  0.00  0.00    +0.000 A 
ATOM      4  C   UNL     1       1.480   8.213  20.383  0.00  0.00    +0.000 A 
ATOM      5  C   UNL     1       1.473   6.969  21.026  0.00  0.00    +0.000 A 
ATOM      6  C   UNL     1       1.969   5.831  20.376  0.00  0.00    +0.000 A 
ATOM      7  C   UNL     1       2.011   4.527  21.127  0.00  0.00    +0.000 C 
ATOM      8  C   UNL     1       2.469   5.933  19.057  0.00  0.00    +0.000 A 
ENDROOT
BRANCH   4   9
ATOM      9  C   UNL     1       1.138   9.472  21.112  0.00  0.00    +0.000 C 
BRANCH   9  10
ATOM     10  P   UNL     1       0.209   9.525  22.607  0.00  0.00    +0.000 P 
ATOM     11  O   UNL     1       0.942   9.486  23.910  0.00  0.00    +0.000 OA
BRANCH  10  12
ATOM     12  O   UNL     1      -0.577  10.923  22.465  0.00  0.00    +0.000 OA
ATOM     13  H   UNL     1       0.026  11.683  22.357  0.00  0.00    +0.000 HD
ENDBRANCH  10  12
BRANCH  10  14
ATOM     14  O   UNL     1      -1.021   8.492  22.573  0.00  0.00    +0.000 OA
ATOM     15  H   UNL     1      -0.961   7.816  23.274  0.00  0.00    +0.000 HD
ENDBRANCH  10  14
ENDBRANCH   9  10
ENDBRANCH   4   9
BRANCH   8  16
ATOM     16  O   UNL     1       3.020   4.777  18.534  0.00  0.00    +0.000 OA
BRANCH  16  17
ATOM     17  C   UNL     1       4.225   4.838  17.869  0.00  0.00    +0.000 A 
ATOM     18  C   UNL     1       4.283   4.193  16.635  0.00  0.00    +0.000 A 
ATOM     19  C   UNL     1       5.492   4.119  15.945  0.00  0.00    +0.000 A 
ATOM     20  C   UNL     1       6.640   4.696  16.493  0.00  0.00    +0.000 A 
ATOM     21  C   UNL     1       6.596   5.396  17.707  0.00  0.00    +0.000 A 
ATOM     22  C   UNL     1       5.355   5.490  18.367  0.00  0.00    +0.000 A 
BRANCH  21  23
ATOM     23  C   UNL     1       7.838   6.018  18.325  0.00  0.00    +0.000 C 
ATOM     24  C   UNL     1       7.893   7.525  18.052  0.00  0.00    +0.000 C 
ATOM     25  C   UNL     1       7.929   5.745  19.833  0.00  0.00    +0.000 C 
ENDBRANCH  21  23
BRANCH  20  26
ATOM     26  O   UNL     1       7.835   4.574  15.836  0.00  0.00    +0.000 OA
ATOM     27  H   UNL     1       7.793   5.092  15.015  0.00  0.00    +0.000 HD
ENDBRANCH  20  26
ENDBRANCH  16  17
ENDBRANCH   8  16
TORSDOF 8
ENDMDL
MODEL 5
REMARK VINA RESULT:      -7.0      3.074      4.967
REMARK  Name = 
REMARK  12 active torsions:
REMARK  status: ('A' for Active; 'I' for Inactive)
REMARK    1  A    between atoms: C_1  and  C_2
REMARK    2  A    between atoms: C_4  and  C_5
REMARK    3  A    between atoms: C_5  and  P_6
REMARK    4  A    between atoms: P_6  and  O_8
REMARK    5  A    between atoms: P_6  and  O_9
REMARK    6  A    between atoms: C_11  and  C_12
REMARK    7  A    between atoms: C_13  and  O_14
REMARK    8  A    between atoms: O_14  and  C_15
REMARK    9  A    between atoms: C_18  and  O_19
REMARK   10  A    between atoms: C_20  and  C_21
REMARK   11  A    between atoms: C_21  and  C_22
REMARK   12  A    between atoms: C_21  and  C_23
REMARK                            x       y       z     vdW  Elec       q    Type
REMARK                         _______ _______ _______ _____ _____    ______ ____
ROOT
ATOM      1  C   UNL     1       0.344   8.441  22.009  0.00  0.00    +0.000 C 
ATOM      2  C   UNL     1       0.626   8.914  20.610  0.00  0.00    +0.000 A 
ATOM      3  C   UNL     1      -0.211   9.920  20.103  0.00  0.00    +0.000 A 
ATOM      4  C   UNL     1      -0.123  10.353  18.775  0.00  0.00    +0.000 A 
ATOM      5  C   UNL     1       0.867   9.812  17.946  0.00  0.00    +0.000 A 
ATOM      6  C   UNL     1       1.741   8.831  18.432  0.00  0.00    +0.000 A 
ATOM      7  C   UNL     1       2.746   8.223  17.489  0.00  0.00    +0.000 C 
ATOM      8  C   UNL     1       1.633   8.390  19.771  0.00  0.00    +0.000 A 
ENDROOT
BRANCH   4   9
ATOM      9  C   UNL     1      -1.186  11.255  18.236  0.00  0.00    +0.000 C 
BRANCH   9  10
ATOM     10  P   UNL     1      -2.555  10.704  17.276  0.00  0.00    +0.000 P 
ATOM     11  O   UNL     1      -3.270   9.458  17.694  0.00  0.00    +0.000 OA
BRANCH  10  12
ATOM     12  O   UNL     1      -3.556  11.962  17.364  0.00  0.00    +0.000 OA
ATOM     13  H   UNL     1      -3.304  12.685  16.758  0.00  0.00    +0.000 HD
ENDBRANCH  10  12
BRANCH  10  14
ATOM     14  O   UNL     1      -2.215  10.709  15.706  0.00  0.00    +0.000 OA
ATOM     15  H   UNL     1      -2.946  10.356  15.165  0.00  0.00    +0.000 HD
ENDBRANCH  10  14
ENDBRANCH   9  10
ENDBRANCH   4   9
BRANCH   8  16
ATOM     16  O   UNL     1       2.479   7.356  20.132  0.00  0.00    +0.000 OA
BRANCH  16  17
ATOM     17  C   UNL     1       2.142   6.059  19.810  0.00  0.00    +0.000 A 
ATOM     18  C   UNL     1       1.218   5.435  20.645  0.00  0.00    +0.000 A 
ATOM     19  C   UNL     1       0.901   4.091  20.452  0.00  0.00    +0.000 A 
ATOM     20  C   UNL     1       1.510   3.377  19.418  0.00  0.00    +0.000 A 
ATOM     21  C   UNL     1       2.403   3.996  18.531  0.00  0.00    +0.000 A 
ATOM     22  C   UNL     1       2.679   5.364  18.724  0.00  0.00    +0.000 A 
BRANCH  21  23
ATOM     23  C   UNL     1       3.086   3.232  17.409  0.00  0.00    +0.000 C 
ATOM     24  C   UNL     1       4.143   4.098  16.715  0.00  0.00    +0.000 C 
ATOM     25  C   UNL     1       3.712   1.920  17.903  0.00  0.00    +0.000 C 
ENDBRANCH  21  23
BRANCH  20  26
ATOM     26  O   UNL     1       1.235   2.045  19.265  0.00  0.00    +0.000 OA
ATOM     27  H   UNL     1       0.306   1.889  19.504  0.00  0.00    +0.000 HD
ENDBRANCH  20  26
ENDBRANCH  16  17
ENDBRANCH   8  16
TORSDOF 8
ENDMDL
MODEL 6
REMARK VINA RESULT:      -7.0      0.896      2.051
REMARK  Name = 
REMARK  12 active torsions:
REMARK  status: ('A' for Active; 'I' for Inactive)
REMARK    1  A    between atoms: C_1  and  C_2
REMARK    2  A    between atoms: C_4  and  C_5
REMARK    3  A    between atoms: C_5  and  P_6
REMARK    4  A    between atoms: P_6  and  O_8
REMARK    5  A    between atoms: P_6  and  O_9
REMARK    6  A    between atoms: C_11  and  C_12
REMARK    7  A    between atoms: C_13  and  O_14
REMARK    8  A    between atoms: O_14  and  C_15
REMARK    9  A    between atoms: C_18  and  O_19
REMARK   10  A    between atoms: C_20  and  C_21
REMARK   11  A    between atoms: C_21  and  C_22
REMARK   12  A    between atoms: C_21  and  C_23
REMARK                            x       y       z     vdW  Elec       q    Type
REMARK                         _______ _______ _______ _____ _____    ______ ____
ROOT
ATOM      1  C   UNL     1       1.547   4.259  20.505  0.00  0.00    +0.000 C 
ATOM      2  C   UNL     1       1.737   5.723  20.217  0.00  0.00    +0.000 A 
ATOM      3  C   UNL     1       1.316   6.621  21.210  0.00  0.00    +0.000 A 
ATOM      4  C   UNL     1       1.329   8.006  21.005  0.00  0.00    +0.000 A 
ATOM      5  C   UNL     1       1.833   8.512  19.801  0.00  0.00    +0.000 A 
ATOM      6  C   UNL     1       2.293   7.643  18.803  0.00  0.00    +0.000 A 
ATOM      7  C   UNL     1       2.762   8.223  17.495  0.00  0.00    +0.000 C 
ATOM      8  C   UNL     1       2.262   6.245  19.015  0.00  0.00    +0.000 A 
ENDROOT
BRANCH   4   9
ATOM      9  C   UNL     1       0.657   8.892  22.004  0.00  0.00    +0.000 C 
BRANCH   9  10
ATOM     10  P   UNL     1       0.301  10.594  21.732  0.00  0.00    +0.000 P 
ATOM     11  O   UNL     1       1.394  11.486  21.238  0.00  0.00    +0.000 OA
BRANCH  10  12
ATOM     12  O   UNL     1      -0.879  10.520  20.638  0.00  0.00    +0.000 OA
ATOM     13  H   UNL     1      -1.571   9.873  20.876  0.00  0.00    +0.000 HD
ENDBRANCH  10  12
BRANCH  10  14
ATOM     14  O   UNL     1      -0.491  11.236  22.974  0.00  0.00    +0.000 OA
ATOM     15  H   UNL     1      -1.063  11.980  22.707  0.00  0.00    +0.000 HD
ENDBRANCH  10  14
ENDBRANCH   9  10
ENDBRANCH   4   9
BRANCH   8  16
ATOM     16  O   UNL     1       2.651   5.466  17.939  0.00  0.00    +0.000 OA
BRANCH  16  17
ATOM     17  C   UNL     1       3.967   5.076  17.824  0.00  0.00    +0.000 A 
ATOM     18  C   UNL     1       4.717   5.078  18.998  0.00  0.00    +0.000 A 
ATOM     19  C   UNL     1       6.083   4.797  18.953  0.00  0.00    +0.000 A 
ATOM     20  C   UNL     1       6.691   4.511  17.729  0.00  0.00    +0.000 A 
ATOM     21  C   UNL     1       5.948   4.450  16.541  0.00  0.00    +0.000 A 
ATOM     22  C   UNL     1       4.563   4.701  16.618  0.00  0.00    +0.000 A 
BRANCH  21  23
ATOM     23  C   UNL     1       6.595   4.154  15.198  0.00  0.00    +0.000 C 
ATOM     24  C   UNL     1       5.554   3.688  14.175  0.00  0.00    +0.000 C 
ATOM     25  C   UNL     1       7.374   5.360  14.655  0.00  0.00    +0.000 C 
ENDBRANCH  21  23
BRANCH  20  26
ATOM     26  O   UNL     1       8.040   4.287  17.683  0.00  0.00    +0.000 OA
ATOM     27  H   UNL     1       8.485   5.111  17.424  0.00  0.00    +0.000 HD
ENDBRANCH  20  26
ENDBRANCH  16  17
ENDBRANCH   8  16
TORSDOF 8
ENDMDL
MODEL 7
REMARK VINA RESULT:      -7.0      1.200      2.309
REMARK  Name = 
REMARK  12 active torsions:
REMARK  status: ('A' for Active; 'I' for Inactive)
REMARK    1  A    between atoms: C_1  and  C_2
REMARK    2  A    between atoms: C_4  and  C_5
REMARK    3  A    between atoms: C_5  and  P_6
REMARK    4  A    between atoms: P_6  and  O_8
REMARK    5  A    between atoms: P_6  and  O_9
REMARK    6  A    between atoms: C_11  and  C_12
REMARK    7  A    between atoms: C_13  and  O_14
REMARK    8  A    between atoms: O_14  and  C_15
REMARK    9  A    between atoms: C_18  and  O_19
REMARK   10  A    between atoms: C_20  and  C_21
REMARK   11  A    between atoms: C_21  and  C_22
REMARK   12  A    between atoms: C_21  and  C_23
REMARK                            x       y       z     vdW  Elec       q    Type
REMARK                         _______ _______ _______ _____ _____    ______ ____
ROOT
ATOM      1  C   UNL     1       3.118   7.552  17.342  0.00  0.00    +0.000 C 
ATOM      2  C   UNL     1       2.503   7.067  18.627  0.00  0.00    +0.000 A 
ATOM      3  C   UNL     1       2.039   8.051  19.514  0.00  0.00    +0.000 A 
ATOM      4  C   UNL     1       1.561   7.727  20.790  0.00  0.00    +0.000 A 
ATOM      5  C   UNL     1       1.487   6.381  21.168  0.00  0.00    +0.000 A 
ATOM      6  C   UNL     1       1.911   5.373  20.292  0.00  0.00    +0.000 A 
ATOM      7  C   UNL     1       1.881   3.943  20.762  0.00  0.00    +0.000 C 
ATOM      8  C   UNL     1       2.406   5.713  19.011  0.00  0.00    +0.000 A 
ENDROOT
BRANCH   4   9
ATOM      9  C   UNL     1       1.299   8.828  21.765  0.00  0.00    +0.000 C 
BRANCH   9  10
ATOM     10  P   UNL     1       0.320  10.248  21.412  0.00  0.00    +0.000 P 
ATOM     11  O   UNL     1      -0.658  10.183  20.283  0.00  0.00    +0.000 OA
BRANCH  10  12
ATOM     12  O   UNL     1      -0.464  10.471  22.801  0.00  0.00    +0.000 OA
ATOM     13  H   UNL     1      -0.199  11.295  23.252  0.00  0.00    +0.000 HD
ENDBRANCH  10  12
BRANCH  10  14
ATOM     14  O   UNL     1       1.214  11.582  21.362  0.00  0.00    +0.000 OA
ATOM     15  H   UNL     1       0.903  12.264  21.987  0.00  0.00    +0.000 HD
ENDBRANCH  10  14
ENDBRANCH   9  10
ENDBRANCH   4   9
BRANCH   8  16
ATOM     16  O   UNL     1       2.884   4.658  18.254  0.00  0.00    +0.000 OA
BRANCH  16  17
ATOM     17  C   UNL     1       4.117   4.761  17.648  0.00  0.00    +0.000 A 
ATOM     18  C   UNL     1       4.238   4.170  16.392  0.00  0.00    +0.000 A 
ATOM     19  C   UNL     1       5.479   4.138  15.755  0.00  0.00    +0.000 A 
ATOM     20  C   UNL     1       6.593   4.702  16.379  0.00  0.00    +0.000 A 
ATOM     21  C   UNL     1       6.486   5.349  17.618  0.00  0.00    +0.000 A 
ATOM     22  C   UNL     1       5.215   5.402  18.224  0.00  0.00    +0.000 A 
BRANCH  21  23
ATOM     23  C   UNL     1       7.691   5.956  18.318  0.00  0.00    +0.000 C 
ATOM     24  C   UNL     1       7.788   7.461  18.042  0.00  0.00    +0.000 C 
ATOM     25  C   UNL     1       7.673   5.692  19.830  0.00  0.00    +0.000 C 
ENDBRANCH  21  23
BRANCH  20  26
ATOM     26  O   UNL     1       7.818   4.622  15.772  0.00  0.00    +0.000 OA
ATOM     27  H   UNL     1       8.405   5.289  16.165  0.00  0.00    +0.000 HD
ENDBRANCH  20  26
ENDBRANCH  16  17
ENDBRANCH   8  16
TORSDOF 8
ENDMDL
MODEL 8
REMARK VINA RESULT:      -7.0      1.554      3.019
REMARK  Name = 
REMARK  12 active torsions:
REMARK  status: ('A' for Active; 'I' for Inactive)
REMARK    1  A    between atoms: C_1  and  C_2
REMARK    2  A    between atoms: C_4  and  C_5
REMARK    3  A    between atoms: C_5  and  P_6
REMARK    4  A    between atoms: P_6  and  O_8
REMARK    5  A    between atoms: P_6  and  O_9
REMARK    6  A    between atoms: C_11  and  C_12
REMARK    7  A    between atoms: C_13  and  O_14
REMARK    8  A    between atoms: O_14  and  C_15
REMARK    9  A    between atoms: C_18  and  O_19
REMARK   10  A    between atoms: C_20  and  C_21
REMARK   11  A    between atoms: C_21  and  C_22
REMARK   12  A    between atoms: C_21  and  C_23
REMARK                            x       y       z     vdW  Elec       q    Type
REMARK                         _______ _______ _______ _____ _____    ______ ____
ROOT
ATOM      1  C   UNL     1       2.236   4.497  20.112  0.00  0.00    +0.000 C 
ATOM      2  C   UNL     1       2.159   5.987  19.918  0.00  0.00    +0.000 A 
ATOM      3  C   UNL     1       1.760   6.748  21.028  0.00  0.00    +0.000 A 
ATOM      4  C   UNL     1       1.535   8.126  20.934  0.00  0.00    +0.000 A 
ATOM      5  C   UNL     1       1.773   8.774  19.715  0.00  0.00    +0.000 A 
ATOM      6  C   UNL     1       2.205   8.048  18.598  0.00  0.00    +0.000 A 
ATOM      7  C   UNL     1       2.382   8.769  17.288  0.00  0.00    +0.000 C 
ATOM      8  C   UNL     1       2.415   6.653  18.700  0.00  0.00    +0.000 A 
ENDROOT
BRANCH   4   9
ATOM      9  C   UNL     1       0.895   8.835  22.083  0.00  0.00    +0.000 C 
BRANCH   9  10
ATOM     10  P   UNL     1       0.064  10.382  21.950  0.00  0.00    +0.000 P 
ATOM     11  O   UNL     1      -0.571  10.963  23.172  0.00  0.00    +0.000 OA
BRANCH  10  12
ATOM     12  O   UNL     1       1.241  11.352  21.433  0.00  0.00    +0.000 OA
ATOM     13  H   UNL     1       0.918  12.244  21.205  0.00  0.00    +0.000 HD
ENDBRANCH  10  12
BRANCH  10  14
ATOM     14  O   UNL     1      -0.921  10.414  20.681  0.00  0.00    +0.000 OA
ATOM     15  H   UNL     1      -1.860  10.342  20.935  0.00  0.00    +0.000 HD
ENDBRANCH  10  14
ENDBRANCH   9  10
ENDBRANCH   4   9
BRANCH   8  16
ATOM     16  O   UNL     1       2.752   6.009  17.522  0.00  0.00    +0.000 OA
BRANCH  16  17
ATOM     17  C   UNL     1       4.055   5.614  17.313  0.00  0.00    +0.000 A 
ATOM     18  C   UNL     1       4.240   4.305  16.872  0.00  0.00    +0.000 A 
ATOM     19  C   UNL     1       5.530   3.793  16.736  0.00  0.00    +0.000 A 
ATOM     20  C   UNL     1       6.631   4.597  17.038  0.00  0.00    +0.000 A 
ATOM     21  C   UNL     1       6.472   5.933  17.432  0.00  0.00    +0.000 A 
ATOM     22  C   UNL     1       5.161   6.439  17.526  0.00  0.00    +0.000 A 
BRANCH  21  23
ATOM     23  C   UNL     1       7.658   6.818  17.778  0.00  0.00    +0.000 C 
ATOM     24  C   UNL     1       7.312   8.300  17.597  0.00  0.00    +0.000 C 
ATOM     25  C   UNL     1       8.174   6.561  19.200  0.00  0.00    +0.000 C 
ENDBRANCH  21  23
BRANCH  20  26
ATOM     26  O   UNL     1       7.892   4.072  16.951  0.00  0.00    +0.000 OA
ATOM     27  H   UNL     1       8.156   3.748  17.828  0.00  0.00    +0.000 HD
ENDBRANCH  20  26
ENDBRANCH  16  17
ENDBRANCH   8  16
TORSDOF 8
ENDMDL
MODEL 9
REMARK VINA RESULT:      -6.9      4.007      8.695
REMARK  Name = 
REMARK  12 active torsions:
REMARK  status: ('A' for Active; 'I' for Inactive)
REMARK    1  A    between atoms: C_1  and  C_2
REMARK    2  A    between atoms: C_4  and  C_5
REMARK    3  A    between atoms: C_5  and  P_6
REMARK    4  A    between atoms: P_6  and  O_8
REMARK    5  A    between atoms: P_6  and  O_9
REMARK    6  A    between atoms: C_11  and  C_12
REMARK    7  A    between atoms: C_13  and  O_14
REMARK    8  A    between atoms: O_14  and  C_15
REMARK    9  A    between atoms: C_18  and  O_19
REMARK   10  A    between atoms: C_20  and  C_21
REMARK   11  A    between atoms: C_21  and  C_22
REMARK   12  A    between atoms: C_21  and  C_23
REMARK                            x       y       z     vdW  Elec       q    Type
REMARK                         _______ _______ _______ _____ _____    ______ ____
ROOT
ATOM      1  C   UNL     1       0.565   8.814  22.142  0.00  0.00    +0.000 C 
ATOM      2  C   UNL     1       1.182   8.152  20.940  0.00  0.00    +0.000 A 
ATOM      3  C   UNL     1       1.533   6.800  21.075  0.00  0.00    +0.000 A 
ATOM      4  C   UNL     1       2.223   6.113  20.070  0.00  0.00    +0.000 A 
ATOM      5  C   UNL     1       2.518   6.775  18.872  0.00  0.00    +0.000 A 
ATOM      6  C   UNL     1       2.151   8.115  18.692  0.00  0.00    +0.000 A 
ATOM      7  C   UNL     1       2.548   8.812  17.417  0.00  0.00    +0.000 C 
ATOM      8  C   UNL     1       1.466   8.803  19.720  0.00  0.00    +0.000 A 
ENDROOT
BRANCH   4   9
ATOM      9  C   UNL     1       2.767   4.753  20.365  0.00  0.00    +0.000 C 
BRANCH   9  10
ATOM     10  P   UNL     1       1.770   3.351  20.741  0.00  0.00    +0.000 P 
ATOM     11  O   UNL     1       1.677   2.897  22.162  0.00  0.00    +0.000 OA
BRANCH  10  12
ATOM     12  O   UNL     1       0.320   3.822  20.222  0.00  0.00    +0.000 OA
ATOM     13  H   UNL     1      -0.151   4.375  20.874  0.00  0.00    +0.000 HD
ENDBRANCH  10  12
BRANCH  10  14
ATOM     14  O   UNL     1       2.061   2.134  19.733  0.00  0.00    +0.000 OA
ATOM     15  H   UNL     1       2.391   1.340  20.194  0.00  0.00    +0.000 HD
ENDBRANCH  10  14
ENDBRANCH   9  10
ENDBRANCH   4   9
BRANCH   8  16
ATOM     16  O   UNL     1       1.227  10.146  19.487  0.00  0.00    +0.000 OA
BRANCH  16  17
ATOM     17  C   UNL     1      -0.064  10.581  19.286  0.00  0.00    +0.000 A 
ATOM     18  C   UNL     1      -0.703  10.111  18.140  0.00  0.00    +0.000 A 
ATOM     19  C   UNL     1      -1.972  10.584  17.807  0.00  0.00    +0.000 A 
ATOM     20  C   UNL     1      -2.599  11.524  18.628  0.00  0.00    +0.000 A 
ATOM     21  C   UNL     1      -2.000  11.973  19.814  0.00  0.00    +0.000 A 
ATOM     22  C   UNL     1      -0.734  11.453  20.148  0.00  0.00    +0.000 A 
BRANCH  21  23
ATOM     23  C   UNL     1      -2.661  13.006  20.711  0.00  0.00    +0.000 C 
ATOM     24  C   UNL     1      -2.716  12.521  22.163  0.00  0.00    +0.000 C 
ATOM     25  C   UNL     1      -1.962  14.370  20.631  0.00  0.00    +0.000 C 
ENDBRANCH  21  23
BRANCH  20  26
ATOM     26  O   UNL     1      -3.822  12.023  18.269  0.00  0.00    +0.000 OA
ATOM     27  H   UNL     1      -4.176  11.486  17.541  0.00  0.00    +0.000 HD
ENDBRANCH  20  26
ENDBRANCH  16  17
ENDBRANCH   8  16
TORSDOF 8
ENDMDL
