MODEL 1
REMARK VINA RESULT:      -7.0      0.000      0.000
REMARK  Name = 
REMARK  9 active torsions:
REMARK  status: ('A' for Active; 'I' for Inactive)
REMARK    1  A    between atoms: C_1  and  N_2
REMARK    2  A    between atoms: C_4  and  C_5
REMARK    3  A    between atoms: C_5  and  N_6
REMARK    4  A    between atoms: C_7  and  C_9
REMARK    5  A    between atoms: C_12  and  C_13
REMARK    6  A    between atoms: C_13  and  C_14
REMARK    7  A    between atoms: C_14  and  N_15
REMARK    8  A    between atoms: N_15  and  C_16
REMARK    9  A    between atoms: C_16  and  C_17
REMARK                            x       y       z     vdW  Elec       q    Type
REMARK                         _______ _______ _______ _____ _____    ______ ____
ROOT
ATOM      1  C   UNL     1       2.181   5.709  18.510  0.00  0.00    +0.000 A 
ATOM      2  C   UNL     1       1.695   4.774  17.613  0.00  0.00    +0.000 A 
ATOM      3  S   UNL     1       1.140   3.383  18.435  0.00  0.00    +0.000 S 
ATOM      4  C   UNL     1       1.563   4.114  19.935  0.00  0.00    +0.000 A 
ATOM      5  N   UNL     1       2.128   5.303  19.850  0.00  0.00    +0.000 NA
ENDROOT
BRANCH   1   7
ATOM      6  N   UNL     1       1.777   8.053  18.250  0.00  0.00    +0.000 N 
ATOM      7  C   UNL     1       2.683   7.027  18.099  0.00  0.00    +0.000 C 
ATOM      8  O   UNL     1       3.815   7.194  17.653  0.00  0.00    +0.000 OA
ATOM      9  H   UNL     1       0.871   7.834  18.647  0.00  0.00    +0.000 HD
BRANCH   6  10
ATOM     10  C   UNL     1       2.147   9.401  17.903  0.00  0.00    +0.000 C 
BRANCH  10  14
ATOM     11  C   UNL     1       0.226  13.497  20.106  0.00  0.00    +0.000 C 
ATOM     12  N   UNL     1       0.426  12.174  19.564  0.00  0.00    +0.000 N 
ATOM     13  C   UNL     1       1.482  11.740  18.812  0.00  0.00    +0.000 A 
ATOM     14  C   UNL     1       1.280  10.392  18.589  0.00  0.00    +0.000 A 
ATOM     15  C   UNL     1       0.049  10.129  19.237  0.00  0.00    +0.000 A 
ATOM     16  N   UNL     1      -0.472  11.210  19.822  0.00  0.00    +0.000 NA
ENDBRANCH  10  14
ENDBRANCH   6  10
ENDBRANCH   1   7
BRANCH   4  17
ATOM     17  C   UNL     1       1.261   3.396  21.217  0.00  0.00    +0.000 C 
BRANCH  17  18
ATOM     18  C   UNL     1       2.345   2.364  21.537  0.00  0.00    +0.000 C 
BRANCH  18  19
ATOM     19  N   UNL     1       3.679   2.880  21.199  0.00  0.00    +0.000 NA
ATOM     20  H   UNL     1       4.303   2.786  22.004  0.00  0.00    +0.000 HD
BRANCH  19  21
ATOM     21  C   UNL     1       4.258   2.101  20.097  0.00  0.00    +0.000 C 
BRANCH  21  22
ATOM     22  C   UNL     1       4.898   3.015  19.109  0.00  0.00    +0.000 A 
ATOM     23  N   UNL     1       5.763   3.975  19.368  0.00  0.00    +0.000 NA
ATOM     24  C   UNL     1       6.034   4.562  18.158  0.00  0.00    +0.000 A 
ATOM     25  C   UNL     1       6.873   5.643  17.863  0.00  0.00    +0.000 A 
ATOM     26  C   UNL     1       6.973   6.070  16.534  0.00  0.00    +0.000 A 
ATOM     27  C   UNL     1       6.256   5.426  15.519  0.00  0.00    +0.000 A 
ATOM     28  C   UNL     1       5.413   4.342  15.796  0.00  0.00    +0.000 A 
ATOM     29  C   UNL     1       5.327   3.943  17.133  0.00  0.00    +0.000 A 
ATOM     30  N   UNL     1       4.611   2.959  17.765  0.00  0.00    +0.000 N 
ATOM     31  H   UNL     1       3.950   2.329  17.343  0.00  0.00    +0.000 HD
ENDBRANCH  21  22
ENDBRANCH  19  21
ENDBRANCH  18  19
ENDBRANCH  17  18
ENDBRANCH   4  17
TORSDOF 8
ENDMDL
MODEL 2
REMARK VINA RESULT:      -6.9      1.734      2.475
REMARK  Name = 
REMARK  9 active torsions:
REMARK  status: ('A' for Active; 'I' for Inactive)
REMARK    1  A    between atoms: C_1  and  N_2
REMARK    2  A    between atoms: C_4  and  C_5
REMARK    3  A    between atoms: C_5  and  N_6
REMARK    4  A    between atoms: C_7  and  C_9
REMARK    5  A    between atoms: C_12  and  C_13
REMARK    6  A    between atoms: C_13  and  C_14
REMARK    7  A    between atoms: C_14  and  N_15
REMARK    8  A    between atoms: N_15  and  C_16
REMARK    9  A    between atoms: C_16  and  C_17
REMARK                            x       y       z     vdW  Elec       q    Type
REMARK                         _______ _______ _______ _____ _____    ______ ____
ROOT
ATOM      1  C   UNL     1       2.177   5.900  19.374  0.00  0.00    +0.000 A 
ATOM      2  C   UNL     1       2.248   5.696  20.741  0.00  0.00    +0.000 A 
ATOM      3  S   UNL     1       1.982   4.051  21.119  0.00  0.00    +0.000 S 
ATOM      4  C   UNL     1       1.805   3.706  19.443  0.00  0.00    +0.000 A 
ATOM      5  N   UNL     1       1.888   4.745  18.635  0.00  0.00    +0.000 NA
ENDROOT
BRANCH   1   7
ATOM      6  N   UNL     1       1.683   8.240  19.297  0.00  0.00    +0.000 N 
ATOM      7  C   UNL     1       2.410   7.207  18.747  0.00  0.00    +0.000 C 
ATOM      8  O   UNL     1       3.185   7.362  17.807  0.00  0.00    +0.000 OA
ATOM      9  H   UNL     1       1.082   8.031  20.087  0.00  0.00    +0.000 HD
BRANCH   6  10
ATOM     10  C   UNL     1       1.831   9.579  18.790  0.00  0.00    +0.000 C 
BRANCH  10  14
ATOM     11  C   UNL     1      -2.748  10.985  17.247  0.00  0.00    +0.000 C 
ATOM     12  N   UNL     1      -1.489  10.873  17.945  0.00  0.00    +0.000 N 
ATOM     13  C   UNL     1      -0.552   9.888  17.805  0.00  0.00    +0.000 A 
ATOM     14  C   UNL     1       0.513  10.238  18.612  0.00  0.00    +0.000 A 
ATOM     15  C   UNL     1       0.090  11.450  19.212  0.00  0.00    +0.000 A 
ATOM     16  N   UNL     1      -1.125  11.831  18.812  0.00  0.00    +0.000 NA
ENDBRANCH  10  14
ENDBRANCH   6  10
ENDBRANCH   1   7
BRANCH   4  17
ATOM     17  C   UNL     1       1.590   2.289  18.999  0.00  0.00    +0.000 C 
BRANCH  17  18
ATOM     18  C   UNL     1       2.675   1.854  18.010  0.00  0.00    +0.000 C 
BRANCH  18  19
ATOM     19  N   UNL     1       3.935   2.565  18.264  0.00  0.00    +0.000 NA
ATOM     20  H   UNL     1       4.661   1.900  18.541  0.00  0.00    +0.000 HD
BRANCH  19  21
ATOM     21  C   UNL     1       4.394   3.236  17.041  0.00  0.00    +0.000 C 
BRANCH  21  22
ATOM     22  C   UNL     1       5.369   4.309  17.384  0.00  0.00    +0.000 A 
ATOM     23  N   UNL     1       6.271   4.277  18.344  0.00  0.00    +0.000 NA
ATOM     24  C   UNL     1       6.900   5.495  18.298  0.00  0.00    +0.000 A 
ATOM     25  C   UNL     1       7.925   5.997  19.109  0.00  0.00    +0.000 A 
ATOM     26  C   UNL     1       8.396   7.293  18.868  0.00  0.00    +0.000 A 
ATOM     27  C   UNL     1       7.860   8.069  17.835  0.00  0.00    +0.000 A 
ATOM     28  C   UNL     1       6.834   7.582  17.014  0.00  0.00    +0.000 A 
ATOM     29  C   UNL     1       6.379   6.290  17.282  0.00  0.00    +0.000 A 
ATOM     30  N   UNL     1       5.405   5.510  16.713  0.00  0.00    +0.000 N 
ATOM     31  H   UNL     1       4.783   5.771  15.967  0.00  0.00    +0.000 HD
ENDBRANCH  21  22
ENDBRANCH  19  21
ENDBRANCH  18  19
ENDBRANCH  17  18
ENDBRANCH   4  17
TORSDOF 8
ENDMDL
MODEL 3
REMARK VINA RESULT:      -6.8      1.759      2.436
REMARK  Name = 
REMARK  9 active torsions:
REMARK  status: ('A' for Active; 'I' for Inactive)
REMARK    1  A    between atoms: C_1  and  N_2
REMARK    2  A    between atoms: C_4  and  C_5
REMARK    3  A    between atoms: C_5  and  N_6
REMARK    4  A    between atoms: C_7  and  C_9
REMARK    5  A    between atoms: C_12  and  C_13
REMARK    6  A    between atoms: C_13  and  C_14
REMARK    7  A    between atoms: C_14  and  N_15
REMARK    8  A    between atoms: N_15  and  C_16
REMARK    9  A    between atoms: C_16  and  C_17
REMARK                            x       y       z     vdW  Elec       q    Type
REMARK                         _______ _______ _______ _____ _____    ______ ____
ROOT
ATOM      1  C   UNL     1       1.976   5.590  19.976  0.00  0.00    +0.000 A 
ATOM      2  C   UNL     1       2.120   5.076  21.253  0.00  0.00    +0.000 A 
ATOM      3  S   UNL     1       1.813   3.395  21.264  0.00  0.00    +0.000 S 
ATOM      4  C   UNL     1       1.524   3.449  19.568  0.00  0.00    +0.000 A 
ATOM      5  N   UNL     1       1.600   4.644  19.014  0.00  0.00    +0.000 NA
ENDROOT
BRANCH   1   7
ATOM      6  N   UNL     1       2.493   7.237  18.319  0.00  0.00    +0.000 N 
ATOM      7  C   UNL     1       2.224   7.000  19.649  0.00  0.00    +0.000 C 
ATOM      8  O   UNL     1       2.198   7.891  20.495  0.00  0.00    +0.000 OA
ATOM      9  H   UNL     1       2.473   6.449  17.682  0.00  0.00    +0.000 HD
BRANCH   6  10
ATOM     10  C   UNL     1       2.736   8.579  17.858  0.00  0.00    +0.000 C 
BRANCH  10  14
ATOM     11  C   UNL     1      -0.586  12.110  19.208  0.00  0.00    +0.000 C 
ATOM     12  N   UNL     1       0.063  10.966  18.612  0.00  0.00    +0.000 N 
ATOM     13  C   UNL     1       1.390  10.646  18.671  0.00  0.00    +0.000 A 
ATOM     14  C   UNL     1       1.533   9.433  18.026  0.00  0.00    +0.000 A 
ATOM     15  C   UNL     1       0.218   9.130  17.594  0.00  0.00    +0.000 A 
ATOM     16  N   UNL     1      -0.671  10.062  17.944  0.00  0.00    +0.000 NA
ENDBRANCH  10  14
ENDBRANCH   6  10
ENDBRANCH   1   7
BRANCH   4  17
ATOM     17  C   UNL     1       1.229   2.177  18.829  0.00  0.00    +0.000 C 
BRANCH  17  18
ATOM     18  C   UNL     1       2.498   1.607  18.190  0.00  0.00    +0.000 C 
BRANCH  18  19
ATOM     19  N   UNL     1       3.643   2.500  18.408  0.00  0.00    +0.000 NA
ATOM     20  H   UNL     1       4.451   1.960  18.730  0.00  0.00    +0.000 HD
BRANCH  19  21
ATOM     21  C   UNL     1       4.023   3.153  17.149  0.00  0.00    +0.000 C 
BRANCH  21  22
ATOM     22  C   UNL     1       4.971   4.270  17.419  0.00  0.00    +0.000 A 
ATOM     23  N   UNL     1       4.987   5.450  16.832  0.00  0.00    +0.000 NA
ATOM     24  C   UNL     1       6.053   6.118  17.378  0.00  0.00    +0.000 A 
ATOM     25  C   UNL     1       6.535   7.402  17.098  0.00  0.00    +0.000 A 
ATOM     26  C   UNL     1       7.663   7.860  17.789  0.00  0.00    +0.000 A 
ATOM     27  C   UNL     1       8.293   7.055  18.744  0.00  0.00    +0.000 A 
ATOM     28  C   UNL     1       7.824   5.767  19.037  0.00  0.00    +0.000 A 
ATOM     29  C   UNL     1       6.702   5.335  18.326  0.00  0.00    +0.000 A 
ATOM     30  N   UNL     1       5.991   4.162  18.335  0.00  0.00    +0.000 N 
ATOM     31  H   UNL     1       6.195   3.337  18.875  0.00  0.00    +0.000 HD
ENDBRANCH  21  22
ENDBRANCH  19  21
ENDBRANCH  18  19
ENDBRANCH  17  18
ENDBRANCH   4  17
TORSDOF 8
ENDMDL
MODEL 4
REMARK VINA RESULT:      -6.8      2.493      3.208
REMARK  Name = 
REMARK  9 active torsions:
REMARK  status: ('A' for Active; 'I' for Inactive)
REMARK    1  A    between atoms: C_1  and  N_2
REMARK    2  A    between atoms: C_4  and  C_5
REMARK    3  A    between atoms: C_5  and  N_6
REMARK    4  A    between atoms: C_7  and  C_9
REMARK    5  A    between atoms: C_12  and  C_13
REMARK    6  A    between atoms: C_13  and  C_14
REMARK    7  A    between atoms: C_14  and  N_15
REMARK    8  A    between atoms: N_15  and  C_16
REMARK    9  A    between atoms: C_16  and  C_17
REMARK                            x       y       z     vdW  Elec       q    Type
REMARK                         _______ _______ _______ _____ _____    ______ ____
ROOT
ATOM      1  C   UNL     1       1.249   7.923  20.397  0.00  0.00    +0.000 A 
ATOM      2  C   UNL     1       2.136   7.913  19.334  0.00  0.00    +0.000 A 
ATOM      3  S   UNL     1       2.936   6.407  19.231  0.00  0.00    +0.000 S 
ATOM      4  C   UNL     1       2.044   5.852  20.595  0.00  0.00    +0.000 A 
ATOM      5  N   UNL     1       1.227   6.734  21.139  0.00  0.00    +0.000 NA
ENDROOT
BRANCH   1   7
ATOM      6  N   UNL     1       0.105   9.878  19.627  0.00  0.00    +0.000 N 
ATOM      7  C   UNL     1       0.383   9.068  20.706  0.00  0.00    +0.000 C 
ATOM      8  O   UNL     1      -0.048   9.286  21.835  0.00  0.00    +0.000 OA
ATOM      9  H   UNL     1       0.483   9.615  18.724  0.00  0.00    +0.000 HD
BRANCH   6  10
ATOM     10  C   UNL     1      -0.748  11.027  19.786  0.00  0.00    +0.000 C 
BRANCH  10  14
ATOM     11  C   UNL     1      -3.337  10.701  15.484  0.00  0.00    +0.000 C 
ATOM     12  N   UNL     1      -2.928  10.957  16.844  0.00  0.00    +0.000 N 
ATOM     13  C   UNL     1      -1.777  10.539  17.453  0.00  0.00    +0.000 A 
ATOM     14  C   UNL     1      -1.782  11.084  18.722  0.00  0.00    +0.000 A 
ATOM     15  C   UNL     1      -3.005  11.796  18.773  0.00  0.00    +0.000 A 
ATOM     16  N   UNL     1      -3.702  11.714  17.638  0.00  0.00    +0.000 NA
ENDBRANCH  10  14
ENDBRANCH   6  10
ENDBRANCH   1   7
BRANCH   4  17
ATOM     17  C   UNL     1       2.219   4.439  21.067  0.00  0.00    +0.000 C 
BRANCH  17  18
ATOM     18  C   UNL     1       1.224   3.503  20.377  0.00  0.00    +0.000 C 
BRANCH  18  19
ATOM     19  N   UNL     1       1.776   2.983  19.119  0.00  0.00    +0.000 NA
ATOM     20  H   UNL     1       1.806   3.727  18.417  0.00  0.00    +0.000 HD
BRANCH  19  21
ATOM     21  C   UNL     1       3.152   2.514  19.325  0.00  0.00    +0.000 C 
BRANCH  21  22
ATOM     22  C   UNL     1       4.064   3.160  18.339  0.00  0.00    +0.000 A 
ATOM     23  N   UNL     1       3.822   3.369  17.061  0.00  0.00    +0.000 NA
ATOM     24  C   UNL     1       4.960   3.949  16.561  0.00  0.00    +0.000 A 
ATOM     25  C   UNL     1       5.249   4.359  15.254  0.00  0.00    +0.000 A 
ATOM     26  C   UNL     1       6.504   4.919  14.989  0.00  0.00    +0.000 A 
ATOM     27  C   UNL     1       7.448   5.074  16.009  0.00  0.00    +0.000 A 
ATOM     28  C   UNL     1       7.176   4.670  17.323  0.00  0.00    +0.000 A 
ATOM     29  C   UNL     1       5.919   4.107  17.556  0.00  0.00    +0.000 A 
ATOM     30  N   UNL     1       5.323   3.598  18.681  0.00  0.00    +0.000 N 
ATOM     31  H   UNL     1       5.735   3.507  19.594  0.00  0.00    +0.000 HD
ENDBRANCH  21  22
ENDBRANCH  19  21
ENDBRANCH  18  19
ENDBRANCH  17  18
ENDBRANCH   4  17
TORSDOF 8
ENDMDL
MODEL 5
REMARK VINA RESULT:      -6.8      2.826      8.446
REMARK  Name = 
REMARK  9 active torsions:
REMARK  status: ('A' for Active; 'I' for Inactive)
REMARK    1  A    between atoms: C_1  and  N_2
REMARK    2  A    between atoms: C_4  and  C_5
REMARK    3  A    between atoms: C_5  and  N_6
REMARK    4  A    between atoms: C_7  and  C_9
REMARK    5  A    between atoms: C_12  and  C_13
REMARK    6  A    between atoms: C_13  and  C_14
REMARK    7  A    between atoms: C_14  and  N_15
REMARK    8  A    between atoms: N_15  and  C_16
REMARK    9  A    between atoms: C_16  and  C_17
REMARK                            x       y       z     vdW  Elec       q    Type
REMARK                         _______ _______ _______ _____ _____    ______ ____
ROOT
ATOM      1  C   UNL     1       4.014   4.883  19.577  0.00  0.00    +0.000 A 
ATOM      2  C   UNL     1       3.318   3.692  19.689  0.00  0.00    +0.000 A 
ATOM      3  S   UNL     1       1.733   3.973  20.262  0.00  0.00    +0.000 S 
ATOM      4  C   UNL     1       2.061   5.661  20.311  0.00  0.00    +0.000 A 
ATOM      5  N   UNL     1       3.285   6.014  19.970  0.00  0.00    +0.000 NA
ENDROOT
BRANCH   1   7
ATOM      6  N   UNL     1       5.573   4.360  17.839  0.00  0.00    +0.000 N 
ATOM      7  C   UNL     1       5.388   4.962  19.064  0.00  0.00    +0.000 C 
ATOM      8  O   UNL     1       6.294   5.514  19.682  0.00  0.00    +0.000 OA
ATOM      9  H   UNL     1       4.766   3.946  17.386  0.00  0.00    +0.000 HD
BRANCH   6  10
ATOM     10  C   UNL     1       6.869   4.381  17.212  0.00  0.00    +0.000 C 
BRANCH  10  14
ATOM     11  C   UNL     1       5.884   3.401  12.376  0.00  0.00    +0.000 C 
ATOM     12  N   UNL     1       6.337   3.999  13.609  0.00  0.00    +0.000 N 
ATOM     13  C   UNL     1       6.035   3.598  14.881  0.00  0.00    +0.000 A 
ATOM     14  C   UNL     1       6.752   4.416  15.733  0.00  0.00    +0.000 A 
ATOM     15  C   UNL     1       7.436   5.292  14.854  0.00  0.00    +0.000 A 
ATOM     16  N   UNL     1       7.179   5.044  13.569  0.00  0.00    +0.000 NA
ENDBRANCH  10  14
ENDBRANCH   6  10
ENDBRANCH   1   7
BRANCH   4  17
ATOM     17  C   UNL     1       0.971   6.614  20.706  0.00  0.00    +0.000 C 
BRANCH  17  18
ATOM     18  C   UNL     1       1.485   8.056  20.728  0.00  0.00    +0.000 C 
BRANCH  18  19
ATOM     19  N   UNL     1       1.439   8.651  19.385  0.00  0.00    +0.000 NA
ATOM     20  H   UNL     1       0.701   8.208  18.833  0.00  0.00    +0.000 HD
BRANCH  19  21
ATOM     21  C   UNL     1       1.123  10.083  19.477  0.00  0.00    +0.000 C 
BRANCH  21  22
ATOM     22  C   UNL     1      -0.178  10.362  18.807  0.00  0.00    +0.000 A 
ATOM     23  N   UNL     1      -1.206  11.008  19.319  0.00  0.00    +0.000 NA
ATOM     24  C   UNL     1      -2.178  10.978  18.352  0.00  0.00    +0.000 A 
ATOM     25  C   UNL     1      -3.477  11.501  18.381  0.00  0.00    +0.000 A 
ATOM     26  C   UNL     1      -4.294  11.327  17.258  0.00  0.00    +0.000 A 
ATOM     27  C   UNL     1      -3.822  10.653  16.127  0.00  0.00    +0.000 A 
ATOM     28  C   UNL     1      -2.525  10.124  16.080  0.00  0.00    +0.000 A 
ATOM     29  C   UNL     1      -1.735  10.306  17.218  0.00  0.00    +0.000 A 
ATOM     30  N   UNL     1      -0.457   9.924  17.533  0.00  0.00    +0.000 N 
ATOM     31  H   UNL     1       0.167   9.376  16.964  0.00  0.00    +0.000 HD
ENDBRANCH  21  22
ENDBRANCH  19  21
ENDBRANCH  18  19
ENDBRANCH  17  18
ENDBRANCH   4  17
TORSDOF 8
ENDMDL
MODEL 6
REMARK VINA RESULT:      -6.8      1.685      2.481
REMARK  Name = 
REMARK  9 active torsions:
REMARK  status: ('A' for Active; 'I' for Inactive)
REMARK    1  A    between atoms: C_1  and  N_2
REMARK    2  A    between atoms: C_4  and  C_5
REMARK    3  A    between atoms: C_5  and  N_6
REMARK    4  A    between atoms: C_7  and  C_9
REMARK    5  A    between atoms: C_12  and  C_13
REMARK    6  A    between atoms: C_13  and  C_14
REMARK    7  A    between atoms: C_14  and  N_15
REMARK    8  A    between atoms: N_15  and  C_16
REMARK    9  A    between atoms: C_16  and  C_17
REMARK                            x       y       z     vdW  Elec       q    Type
REMARK                         _______ _______ _______ _____ _____    ______ ____
ROOT
ATOM      1  C   UNL     1       2.164   5.994  19.498  0.00  0.00    +0.000 A 
ATOM      2  C   UNL     1       2.517   5.703  20.805  0.00  0.00    +0.000 A 
ATOM      3  S   UNL     1       2.242   4.052  21.149  0.00  0.00    +0.000 S 
ATOM      4  C   UNL     1       1.688   3.820  19.536  0.00  0.00    +0.000 A 
ATOM      5  N   UNL     1       1.656   4.902  18.783  0.00  0.00    +0.000 NA
ENDROOT
BRANCH   1   7
ATOM      6  N   UNL     1       1.524   8.299  19.445  0.00  0.00    +0.000 N 
ATOM      7  C   UNL     1       2.334   7.325  18.902  0.00  0.00    +0.000 C 
ATOM      8  O   UNL     1       3.127   7.547  17.991  0.00  0.00    +0.000 OA
ATOM      9  H   UNL     1       0.913   8.038  20.210  0.00  0.00    +0.000 HD
BRANCH   6  10
ATOM     10  C   UNL     1       1.603   9.654  18.965  0.00  0.00    +0.000 C 
BRANCH  10  14
ATOM     11  C   UNL     1      -2.958  11.386  17.730  0.00  0.00    +0.000 C 
ATOM     12  N   UNL     1      -1.729  11.073  18.421  0.00  0.00    +0.000 N 
ATOM     13  C   UNL     1      -0.743  10.222  18.007  0.00  0.00    +0.000 A 
ATOM     14  C   UNL     1       0.266  10.299  18.948  0.00  0.00    +0.000 A 
ATOM     15  C   UNL     1      -0.241  11.215  19.902  0.00  0.00    +0.000 A 
ATOM     16  N   UNL     1      -1.452  11.678  19.586  0.00  0.00    +0.000 NA
ENDBRANCH  10  14
ENDBRANCH   6  10
ENDBRANCH   1   7
BRANCH   4  17
ATOM     17  C   UNL     1       1.301   2.444  19.079  0.00  0.00    +0.000 C 
BRANCH  17  18
ATOM     18  C   UNL     1       2.419   1.806  18.251  0.00  0.00    +0.000 C 
BRANCH  18  19
ATOM     19  N   UNL     1       3.696   2.499  18.468  0.00  0.00    +0.000 NA
ATOM     20  H   UNL     1       4.391   1.843  18.833  0.00  0.00    +0.000 HD
BRANCH  19  21
ATOM     21  C   UNL     1       4.209   3.026  17.197  0.00  0.00    +0.000 C 
BRANCH  21  22
ATOM     22  C   UNL     1       5.133   4.165  17.454  0.00  0.00    +0.000 A 
ATOM     23  N   UNL     1       5.218   5.283  16.761  0.00  0.00    +0.000 NA
ATOM     24  C   UNL     1       6.229   6.002  17.345  0.00  0.00    +0.000 A 
ATOM     25  C   UNL     1       6.747   7.255  16.994  0.00  0.00    +0.000 A 
ATOM     26  C   UNL     1       7.803   7.779  17.749  0.00  0.00    +0.000 A 
ATOM     27  C   UNL     1       8.326   7.071  18.836  0.00  0.00    +0.000 A 
ATOM     28  C   UNL     1       7.820   5.817  19.202  0.00  0.00    +0.000 A 
ATOM     29  C   UNL     1       6.772   5.315  18.426  0.00  0.00    +0.000 A 
ATOM     30  N   UNL     1       6.055   4.148  18.475  0.00  0.00    +0.000 N 
ATOM     31  H   UNL     1       6.196   3.379  19.110  0.00  0.00    +0.000 HD
ENDBRANCH  21  22
ENDBRANCH  19  21
ENDBRANCH  18  19
ENDBRANCH  17  18
ENDBRANCH   4  17
TORSDOF 8
ENDMDL
MODEL 7
REMARK VINA RESULT:      -6.7      3.091      8.926
REMARK  Name = 
REMARK  9 active torsions:
REMARK  status: ('A' for Active; 'I' for Inactive)
REMARK    1  A    between atoms: C_1  and  N_2
REMARK    2  A    between atoms: C_4  and  C_5
REMARK    3  A    between atoms: C_5  and  N_6
REMARK    4  A    between atoms: C_7  and  C_9
REMARK    5  A    between atoms: C_12  and  C_13
REMARK    6  A    between atoms: C_13  and  C_14
REMARK    7  A    between atoms: C_14  and  N_15
REMARK    8  A    between atoms: N_15  and  C_16
REMARK    9  A    between atoms: C_16  and  C_17
REMARK                            x       y       z     vdW  Elec       q    Type
REMARK                         _______ _______ _______ _____ _____    ______ ____
ROOT
ATOM      1  C   UNL     1       3.113   6.714  18.785  0.00  0.00    +0.000 A 
ATOM      2  C   UNL     1       2.902   7.770  17.916  0.00  0.00    +0.000 A 
ATOM      3  S   UNL     1       1.806   8.895  18.589  0.00  0.00    +0.000 S 
ATOM      4  C   UNL     1       1.690   7.920  20.002  0.00  0.00    +0.000 A 
ATOM      5  N   UNL     1       2.381   6.796  19.977  0.00  0.00    +0.000 NA
ENDROOT
BRANCH   1   7
ATOM      6  N   UNL     1       3.914   5.074  17.238  0.00  0.00    +0.000 N 
ATOM      7  C   UNL     1       4.044   5.615  18.498  0.00  0.00    +0.000 C 
ATOM      8  O   UNL     1       4.863   5.210  19.319  0.00  0.00    +0.000 OA
ATOM      9  H   UNL     1       3.227   5.482  16.614  0.00  0.00    +0.000 HD
BRANCH   6  10
ATOM     10  C   UNL     1       4.778   4.002  16.819  0.00  0.00    +0.000 C 
BRANCH  10  14
ATOM     11  C   UNL     1       7.404   4.748  12.592  0.00  0.00    +0.000 C 
ATOM     12  N   UNL     1       6.910   4.790  13.948  0.00  0.00    +0.000 N 
ATOM     13  C   UNL     1       5.762   4.222  14.426  0.00  0.00    +0.000 A 
ATOM     14  C   UNL     1       5.743   4.457  15.787  0.00  0.00    +0.000 A 
ATOM     15  C   UNL     1       6.927   5.202  16.012  0.00  0.00    +0.000 A 
ATOM     16  N   UNL     1       7.630   5.409  14.897  0.00  0.00    +0.000 NA
ENDBRANCH  10  14
ENDBRANCH   6  10
ENDBRANCH   1   7
BRANCH   4  17
ATOM     17  C   UNL     1       0.855   8.389  21.156  0.00  0.00    +0.000 C 
BRANCH  17  18
ATOM     18  C   UNL     1       1.091   9.876  21.436  0.00  0.00    +0.000 C 
BRANCH  18  19
ATOM     19  N   UNL     1      -0.179  10.613  21.472  0.00  0.00    +0.000 NA
ATOM     20  H   UNL     1      -0.333  10.999  22.406  0.00  0.00    +0.000 HD
BRANCH  19  21
ATOM     21  C   UNL     1      -0.137  11.739  20.530  0.00  0.00    +0.000 C 
BRANCH  21  22
ATOM     22  C   UNL     1      -1.161  11.550  19.464  0.00  0.00    +0.000 A 
ATOM     23  N   UNL     1      -0.959  11.078  18.251  0.00  0.00    +0.000 NA
ATOM     24  C   UNL     1      -2.179  11.129  17.628  0.00  0.00    +0.000 A 
ATOM     25  C   UNL     1      -2.525  10.766  16.321  0.00  0.00    +0.000 A 
ATOM     26  C   UNL     1      -3.854  10.926  15.910  0.00  0.00    +0.000 A 
ATOM     27  C   UNL     1      -4.818  11.432  16.789  0.00  0.00    +0.000 A 
ATOM     28  C   UNL     1      -4.489  11.800  18.100  0.00  0.00    +0.000 A 
ATOM     29  C   UNL     1      -3.155  11.637  18.479  0.00  0.00    +0.000 A 
ATOM     30  N   UNL     1      -2.481  11.896  19.644  0.00  0.00    +0.000 N 
ATOM     31  H   UNL     1      -2.858  12.312  20.480  0.00  0.00    +0.000 HD
ENDBRANCH  21  22
ENDBRANCH  19  21
ENDBRANCH  18  19
ENDBRANCH  17  18
ENDBRANCH   4  17
TORSDOF 8
ENDMDL
MODEL 8
REMARK VINA RESULT:      -6.7      2.050      2.585
REMARK  Name = 
REMARK  9 active torsions:
REMARK  status: ('A' for Active; 'I' for Inactive)
REMARK    1  A    between atoms: C_1  and  N_2
REMARK    2  A    between atoms: C_4  and  C_5
REMARK    3  A    between atoms: C_5  and  N_6
REMARK    4  A    between atoms: C_7  and  C_9
REMARK    5  A    between atoms: C_12  and  C_13
REMARK    6  A    between atoms: C_13  and  C_14
REMARK    7  A    between atoms: C_14  and  N_15
REMARK    8  A    between atoms: N_15  and  C_16
REMARK    9  A    between atoms: C_16  and  C_17
REMARK                            x       y       z     vdW  Elec       q    Type
REMARK                         _______ _______ _______ _____ _____    ______ ____
ROOT
ATOM      1  C   UNL     1       1.628   7.646  20.446  0.00  0.00    +0.000 A 
ATOM      2  C   UNL     1       2.260   7.522  19.221  0.00  0.00    +0.000 A 
ATOM      3  S   UNL     1       2.440   5.876  18.800  0.00  0.00    +0.000 S 
ATOM      4  C   UNL     1       1.653   5.427  20.263  0.00  0.00    +0.000 A 
ATOM      5  N   UNL     1       1.309   6.425  21.055  0.00  0.00    +0.000 NA
ENDROOT
BRANCH   1   7
ATOM      6  N   UNL     1       0.941   9.917  20.136  0.00  0.00    +0.000 N 
ATOM      7  C   UNL     1       1.293   8.944  21.046  0.00  0.00    +0.000 C 
ATOM      8  O   UNL     1       1.332   9.143  22.257  0.00  0.00    +0.000 OA
ATOM      9  H   UNL     1       0.912   9.664  19.155  0.00  0.00    +0.000 HD
BRANCH   6  10
ATOM     10  C   UNL     1       0.571  11.232  20.591  0.00  0.00    +0.000 C 
BRANCH  10  14
ATOM     11  C   UNL     1       3.196  15.409  19.603  0.00  0.00    +0.000 C 
ATOM     12  N   UNL     1       2.590  14.100  19.541  0.00  0.00    +0.000 N 
ATOM     13  C   UNL     1       1.894  13.465  20.531  0.00  0.00    +0.000 A 
ATOM     14  C   UNL     1       1.441  12.275  19.995  0.00  0.00    +0.000 A 
ATOM     15  C   UNL     1       1.950  12.293  18.673  0.00  0.00    +0.000 A 
ATOM     16  N   UNL     1       2.652  13.395  18.401  0.00  0.00    +0.000 NA
ENDBRANCH  10  14
ENDBRANCH   6  10
ENDBRANCH   1   7
BRANCH   4  17
ATOM     17  C   UNL     1       1.389   3.977  20.545  0.00  0.00    +0.000 C 
BRANCH  17  18
ATOM     18  C   UNL     1       1.662   3.119  19.307  0.00  0.00    +0.000 C 
BRANCH  18  19
ATOM     19  N   UNL     1       2.742   2.156  19.562  0.00  0.00    +0.000 NA
ATOM     20  H   UNL     1       2.346   1.246  19.810  0.00  0.00    +0.000 HD
BRANCH  19  21
ATOM     21  C   UNL     1       3.551   1.971  18.351  0.00  0.00    +0.000 C 
BRANCH  21  22
ATOM     22  C   UNL     1       4.564   3.058  18.244  0.00  0.00    +0.000 A 
ATOM     23  N   UNL     1       5.215   3.629  19.237  0.00  0.00    +0.000 NA
ATOM     24  C   UNL     1       6.001   4.591  18.656  0.00  0.00    +0.000 A 
ATOM     25  C   UNL     1       6.879   5.503  19.255  0.00  0.00    +0.000 A 
ATOM     26  C   UNL     1       7.567   6.407  18.438  0.00  0.00    +0.000 A 
ATOM     27  C   UNL     1       7.389   6.395  17.050  0.00  0.00    +0.000 A 
ATOM     28  C   UNL     1       6.516   5.490  16.434  0.00  0.00    +0.000 A 
ATOM     29  C   UNL     1       5.836   4.606  17.275  0.00  0.00    +0.000 A 
ATOM     30  N   UNL     1       4.916   3.618  17.037  0.00  0.00    +0.000 N 
ATOM     31  H   UNL     1       4.519   3.364  16.148  0.00  0.00    +0.000 HD
ENDBRANCH  21  22
ENDBRANCH  19  21
ENDBRANCH  18  19
ENDBRANCH  17  18
ENDBRANCH   4  17
TORSDOF 8
ENDMDL
MODEL 9
REMARK VINA RESULT:      -6.7      1.449      2.005
REMARK  Name = 
REMARK  9 active torsions:
REMARK  status: ('A' for Active; 'I' for Inactive)
REMARK    1  A    between atoms: C_1  and  N_2
REMARK    2  A    between atoms: C_4  and  C_5
REMARK    3  A    between atoms: C_5  and  N_6
REMARK    4  A    between atoms: C_7  and  C_9
REMARK    5  A    between atoms: C_12  and  C_13
REMARK    6  A    between atoms: C_13  and  C_14
REMARK    7  A    between atoms: C_14  and  N_15
REMARK    8  A    between atoms: N_15  and  C_16
REMARK    9  A    between atoms: C_16  and  C_17
REMARK                            x       y       z     vdW  Elec       q    Type
REMARK                         _______ _______ _______ _____ _____    ______ ____
ROOT
ATOM      1  C   UNL     1       2.079   6.309  19.021  0.00  0.00    +0.000 A 
ATOM      2  C   UNL     1       2.067   6.064  20.383  0.00  0.00    +0.000 A 
ATOM      3  S   UNL     1       1.631   4.442  20.699  0.00  0.00    +0.000 S 
ATOM      4  C   UNL     1       1.501   4.159  19.006  0.00  0.00    +0.000 A 
ATOM      5  N   UNL     1       1.720   5.207  18.235  0.00  0.00    +0.000 NA
ENDROOT
BRANCH   1   7
ATOM      6  N   UNL     1       1.550   8.614  18.657  0.00  0.00    +0.000 N 
ATOM      7  C   UNL     1       2.463   7.604  18.445  0.00  0.00    +0.000 C 
ATOM      8  O   UNL     1       3.508   7.768  17.821  0.00  0.00    +0.000 OA
ATOM      9  H   UNL     1       0.722   8.401  19.202  0.00  0.00    +0.000 HD
BRANCH   6  10
ATOM     10  C   UNL     1       1.811   9.941  18.162  0.00  0.00    +0.000 C 
BRANCH  10  14
ATOM     11  C   UNL     1      -0.571  13.949  20.054  0.00  0.00    +0.000 C 
ATOM     12  N   UNL     1      -0.251  12.655  19.500  0.00  0.00    +0.000 N 
ATOM     13  C   UNL     1       0.958  12.240  19.016  0.00  0.00    +0.000 A 
ATOM     14  C   UNL     1       0.808  10.912  18.665  0.00  0.00    +0.000 A 
ATOM     15  C   UNL     1      -0.551  10.642  18.962  0.00  0.00    +0.000 A 
ATOM     16  N   UNL     1      -1.194  11.700  19.461  0.00  0.00    +0.000 NA
ENDBRANCH  10  14
ENDBRANCH   6  10
ENDBRANCH   1   7
BRANCH   4  17
ATOM     17  C   UNL     1       1.178   2.781  18.511  0.00  0.00    +0.000 C 
BRANCH  17  18
ATOM     18  C   UNL     1       2.220   1.766  18.989  0.00  0.00    +0.000 C 
BRANCH  18  19
ATOM     19  N   UNL     1       3.548   2.386  19.094  0.00  0.00    +0.000 NA
ATOM     20  H   UNL     1       4.196   1.745  19.557  0.00  0.00    +0.000 HD
BRANCH  19  21
ATOM     21  C   UNL     1       4.083   2.664  17.755  0.00  0.00    +0.000 C 
BRANCH  21  22
ATOM     22  C   UNL     1       4.993   3.842  17.804  0.00  0.00    +0.000 A 
ATOM     23  N   UNL     1       5.061   4.823  16.927  0.00  0.00    +0.000 NA
ATOM     24  C   UNL     1       6.064   5.646  17.372  0.00  0.00    +0.000 A 
ATOM     25  C   UNL     1       6.565   6.824  16.805  0.00  0.00    +0.000 A 
ATOM     26  C   UNL     1       7.616   7.485  17.451  0.00  0.00    +0.000 A 
ATOM     27  C   UNL     1       8.151   6.984  18.642  0.00  0.00    +0.000 A 
ATOM     28  C   UNL     1       7.663   5.806  19.224  0.00  0.00    +0.000 A 
ATOM     29  C   UNL     1       6.619   5.164  18.553  0.00  0.00    +0.000 A 
ATOM     30  N   UNL     1       5.918   4.014  18.808  0.00  0.00    +0.000 N 
ATOM     31  H   UNL     1       6.071   3.370  19.566  0.00  0.00    +0.000 HD
ENDBRANCH  21  22
ENDBRANCH  19  21
ENDBRANCH  18  19
ENDBRANCH  17  18
ENDBRANCH   4  17
TORSDOF 8
ENDMDL
