MODEL 1
REMARK VINA RESULT:      -8.6      0.000      0.000
REMARK  Name = 
REMARK  5 active torsions:
REMARK  status: ('A' for Active; 'I' for Inactive)
REMARK    1  A    between atoms: C_1  and  C_2
REMARK    2  A    between atoms: C_2  and  C_3
REMARK    3  A    between atoms: C_2  and  C_4
REMARK    4  A    between atoms: C_7  and  N_8
REMARK    5  A    between atoms: N_20  and  C_21
REMARK                            x       y       z     vdW  Elec       q    Type
REMARK                         _______ _______ _______ _____ _____    ______ ____
ROOT
ATOM      1  N   UNL     1       2.655   6.114  18.768  0.00  0.00    +0.000 N 
ATOM      2  C   UNL     1       2.162   7.420  18.824  0.00  0.00    +0.000 A 
ATOM      3  N   UNL     1       2.061   8.128  17.688  0.00  0.00    +0.000 NA
ATOM      4  C   UNL     1       1.547   9.360  17.769  0.00  0.00    +0.000 A 
ATOM      5  C   UNL     1       1.118   9.921  18.946  0.00  0.00    +0.000 A 
ATOM      6  C   UNL     1       1.279   9.137  20.073  0.00  0.00    +0.000 A 
ATOM      7  N   UNL     1       1.793   7.887  20.028  0.00  0.00    +0.000 NA
ATOM      8  C   UNL     1       0.801   9.637  21.413  0.00  0.00    +0.000 C 
ATOM      9  C   UNL     1       0.677  11.161  21.429  0.00  0.00    +0.000 C 
ATOM     10  N   UNL     1      -0.076  11.627  20.261  0.00  0.00    +0.000 N 
ATOM     11  C   UNL     1      -1.261  12.340  20.222  0.00  0.00    +0.000 C 
ATOM     12  O   UNL     1      -1.745  12.677  19.141  0.00  0.00    +0.000 OA
ATOM     13  N   UNL     1      -1.841  12.633  21.433  0.00  0.00    +0.000 N 
ATOM     14  C   UNL     1       0.531  11.294  18.973  0.00  0.00    +0.000 C 
ATOM     15  H   UNL     1       2.837   5.803  19.712  0.00  0.00    +0.000 HD
ATOM     16  H   UNL     1      -1.233  12.672  22.233  0.00  0.00    +0.000 HD
ENDROOT
BRANCH  13  17
ATOM     17  C   UNL     1      -3.122  13.214  21.604  0.00  0.00    +0.000 A 
ATOM     18  C   UNL     1      -3.308  14.534  22.035  0.00  0.00    +0.000 A 
ATOM     19  C   UNL     1      -4.592  15.052  22.230  0.00  0.00    +0.000 A 
ATOM     20  C   UNL     1      -5.695  14.258  21.972  0.00  0.00    +0.000 A 
ATOM     21  F   UNL     1      -6.920  14.765  22.174  0.00  0.00    +0.000 F 
ATOM     22  C   UNL     1      -5.533  12.954  21.507  0.00  0.00    +0.000 A 
ATOM     23 CL   UNL     1      -6.904  11.965  21.179  0.00  0.00    +0.000 Cl
ATOM     24  C   UNL     1      -4.247  12.433  21.312  0.00  0.00    +0.000 A 
ENDBRANCH  13  17
BRANCH   1  28
ATOM     25  C   UNL     1       5.367   4.713  15.834  0.00  0.00    +0.000 A 
ATOM     26  C   UNL     1       4.487   3.825  16.466  0.00  0.00    +0.000 A 
ATOM     27  C   UNL     1       3.597   4.277  17.439  0.00  0.00    +0.000 A 
ATOM     28  C   UNL     1       3.568   5.624  17.819  0.00  0.00    +0.000 A 
ATOM     29  C   UNL     1       4.428   6.515  17.174  0.00  0.00    +0.000 A 
ATOM     30  C   UNL     1       5.327   6.066  16.202  0.00  0.00    +0.000 A 
BRANCH  25  32
ATOM     31  C   UNL     1       5.376   3.855  13.509  0.00  0.00    +0.000 C 
ATOM     32  C   UNL     1       6.252   4.197  14.715  0.00  0.00    +0.000 C 
ATOM     33  C   UNL     1       7.381   5.149  14.315  0.00  0.00    +0.000 C 
ENDBRANCH  25  32
ENDBRANCH   1  28
TORSDOF 3
ENDMDL
MODEL 2
REMARK VINA RESULT:      -8.5      1.083      1.615
REMARK  Name = 
REMARK  5 active torsions:
REMARK  status: ('A' for Active; 'I' for Inactive)
REMARK    1  A    between atoms: C_1  and  C_2
REMARK    2  A    between atoms: C_2  and  C_3
REMARK    3  A    between atoms: C_2  and  C_4
REMARK    4  A    between atoms: C_7  and  N_8
REMARK    5  A    between atoms: N_20  and  C_21
REMARK                            x       y       z     vdW  Elec       q    Type
REMARK                         _______ _______ _______ _____ _____    ______ ____
ROOT
ATOM      1  N   UNL     1       2.673   6.252  18.889  0.00  0.00    +0.000 N 
ATOM      2  C   UNL     1       2.102   7.526  18.948  0.00  0.00    +0.000 A 
ATOM      3  N   UNL     1       1.833   8.174  17.803  0.00  0.00    +0.000 NA
ATOM      4  C   UNL     1       1.248   9.373  17.892  0.00  0.00    +0.000 A 
ATOM      5  C   UNL     1       0.908   9.958  19.086  0.00  0.00    +0.000 A 
ATOM      6  C   UNL     1       1.240   9.238  20.219  0.00  0.00    +0.000 A 
ATOM      7  N   UNL     1       1.831   8.022  20.166  0.00  0.00    +0.000 NA
ATOM      8  C   UNL     1       0.873   9.768  21.582  0.00  0.00    +0.000 C 
ATOM      9  C   UNL     1       0.649  11.280  21.553  0.00  0.00    +0.000 C 
ATOM     10  N   UNL     1      -0.253  11.644  20.456  0.00  0.00    +0.000 N 
ATOM     11  C   UNL     1      -1.482  12.277  20.518  0.00  0.00    +0.000 C 
ATOM     12  O   UNL     1      -2.099  12.532  19.484  0.00  0.00    +0.000 OA
ATOM     13  N   UNL     1      -1.949  12.587  21.773  0.00  0.00    +0.000 N 
ATOM     14  C   UNL     1       0.236  11.291  19.124  0.00  0.00    +0.000 C 
ATOM     15  H   UNL     1       2.975   5.997  19.820  0.00  0.00    +0.000 HD
ATOM     16  H   UNL     1      -1.264  12.701  22.500  0.00  0.00    +0.000 HD
ENDROOT
BRANCH  13  17
ATOM     17  C   UNL     1      -3.242  13.092  22.058  0.00  0.00    +0.000 A 
ATOM     18  C   UNL     1      -4.408  12.575  21.477  0.00  0.00    +0.000 A 
ATOM     19  C   UNL     1      -5.658  13.134  21.755  0.00  0.00    +0.000 A 
ATOM     20  C   UNL     1      -5.750  14.198  22.635  0.00  0.00    +0.000 A 
ATOM     21  F   UNL     1      -6.956  14.730  22.884  0.00  0.00    +0.000 F 
ATOM     22  C   UNL     1      -4.608  14.704  23.253  0.00  0.00    +0.000 A 
ATOM     23 CL   UNL     1      -4.720  16.024  24.353  0.00  0.00    +0.000 Cl
ATOM     24  C   UNL     1      -3.353  14.146  22.974  0.00  0.00    +0.000 A 
ENDBRANCH  13  17
BRANCH   1  28
ATOM     25  C   UNL     1       5.236   4.744  15.876  0.00  0.00    +0.000 A 
ATOM     26  C   UNL     1       5.345   6.076  16.296  0.00  0.00    +0.000 A 
ATOM     27  C   UNL     1       4.499   6.582  17.282  0.00  0.00    +0.000 A 
ATOM     28  C   UNL     1       3.513   5.779  17.866  0.00  0.00    +0.000 A 
ATOM     29  C   UNL     1       3.418   4.445  17.466  0.00  0.00    +0.000 A 
ATOM     30  C   UNL     1       4.260   3.934  16.473  0.00  0.00    +0.000 A 
BRANCH  25  32
ATOM     31  C   UNL     1       5.489   3.780  13.606  0.00  0.00    +0.000 C 
ATOM     32  C   UNL     1       6.237   4.208  14.869  0.00  0.00    +0.000 C 
ATOM     33  C   UNL     1       7.369   5.180  14.529  0.00  0.00    +0.000 C 
ENDBRANCH  25  32
ENDBRANCH   1  28
TORSDOF 3
ENDMDL
MODEL 3
REMARK VINA RESULT:      -8.4      4.409     11.688
REMARK  Name = 
REMARK  5 active torsions:
REMARK  status: ('A' for Active; 'I' for Inactive)
REMARK    1  A    between atoms: C_1  and  C_2
REMARK    2  A    between atoms: C_2  and  C_3
REMARK    3  A    between atoms: C_2  and  C_4
REMARK    4  A    between atoms: C_7  and  N_8
REMARK    5  A    between atoms: N_20  and  C_21
REMARK                            x       y       z     vdW  Elec       q    Type
REMARK                         _______ _______ _______ _____ _____    ______ ____
ROOT
ATOM      1  N   UNL     1      -3.285  12.837  20.036  0.00  0.00    +0.000 N 
ATOM      2  C   UNL     1      -2.126  12.064  20.150  0.00  0.00    +0.000 A 
ATOM      3  N   UNL     1      -1.614  11.832  21.369  0.00  0.00    +0.000 NA
ATOM      4  C   UNL     1      -0.529  11.054  21.447  0.00  0.00    +0.000 A 
ATOM      5  C   UNL     1       0.070  10.485  20.351  0.00  0.00    +0.000 A 
ATOM      6  C   UNL     1      -0.503  10.792  19.131  0.00  0.00    +0.000 A 
ATOM      7  N   UNL     1      -1.601  11.574  19.015  0.00  0.00    +0.000 NA
ATOM      8  C   UNL     1       0.048  10.185  17.866  0.00  0.00    +0.000 C 
ATOM      9  C   UNL     1       1.494   9.724  18.051  0.00  0.00    +0.000 C 
ATOM     10  N   UNL     1       1.623   8.912  19.264  0.00  0.00    +0.000 N 
ATOM     11  C   UNL     1       2.041   7.599  19.388  0.00  0.00    +0.000 C 
ATOM     12  O   UNL     1       2.116   7.076  20.500  0.00  0.00    +0.000 OA
ATOM     13  N   UNL     1       2.352   6.942  18.221  0.00  0.00    +0.000 N 
ATOM     14  C   UNL     1       1.269   9.606  20.501  0.00  0.00    +0.000 C 
ATOM     15  H   UNL     1      -3.420  13.062  19.060  0.00  0.00    +0.000 HD
ATOM     16  H   UNL     1       2.631   7.508  17.438  0.00  0.00    +0.000 HD
ENDROOT
BRANCH  13  17
ATOM     17  C   UNL     1       2.648   5.560  18.119  0.00  0.00    +0.000 A 
ATOM     18  C   UNL     1       3.906   5.077  17.734  0.00  0.00    +0.000 A 
ATOM     19  C   UNL     1       4.141   3.705  17.605  0.00  0.00    +0.000 A 
ATOM     20  C   UNL     1       3.123   2.810  17.883  0.00  0.00    +0.000 A 
ATOM     21  F   UNL     1       3.360   1.496  17.745  0.00  0.00    +0.000 F 
ATOM     22  C   UNL     1       1.875   3.267  18.304  0.00  0.00    +0.000 A 
ATOM     23 CL   UNL     1       0.610   2.154  18.657  0.00  0.00    +0.000 Cl
ATOM     24  C   UNL     1       1.638   4.642  18.432  0.00  0.00    +0.000 A 
ENDBRANCH  13  17
BRANCH   1  28
ATOM     25  C   UNL     1      -4.572  15.900  22.660  0.00  0.00    +0.000 A 
ATOM     26  C   UNL     1      -3.529  16.136  21.754  0.00  0.00    +0.000 A 
ATOM     27  C   UNL     1      -3.095  15.129  20.892  0.00  0.00    +0.000 A 
ATOM     28  C   UNL     1      -3.677  13.857  20.920  0.00  0.00    +0.000 A 
ATOM     29  C   UNL     1      -4.731  13.627  21.805  0.00  0.00    +0.000 A 
ATOM     30  C   UNL     1      -5.167  14.631  22.675  0.00  0.00    +0.000 A 
BRANCH  25  32
ATOM     31  C   UNL     1      -6.591  17.172  23.332  0.00  0.00    +0.000 C 
ATOM     32  C   UNL     1      -5.076  17.050  23.512  0.00  0.00    +0.000 C 
ATOM     33  C   UNL     1      -4.711  16.943  24.994  0.00  0.00    +0.000 C 
ENDBRANCH  25  32
ENDBRANCH   1  28
TORSDOF 3
ENDMDL
MODEL 4
REMARK VINA RESULT:      -8.4      0.865      1.221
REMARK  Name = 
REMARK  5 active torsions:
REMARK  status: ('A' for Active; 'I' for Inactive)
REMARK    1  A    between atoms: C_1  and  C_2
REMARK    2  A    between atoms: C_2  and  C_3
REMARK    3  A    between atoms: C_2  and  C_4
REMARK    4  A    between atoms: C_7  and  N_8
REMARK    5  A    between atoms: N_20  and  C_21
REMARK                            x       y       z     vdW  Elec       q    Type
REMARK                         _______ _______ _______ _____ _____    ______ ____
ROOT
ATOM      1  N   UNL     1       2.508   6.562  19.197  0.00  0.00    +0.000 N 
ATOM      2  C   UNL     1       1.895   7.815  19.122  0.00  0.00    +0.000 A 
ATOM      3  N   UNL     1       1.578   8.315  17.917  0.00  0.00    +0.000 NA
ATOM      4  C   UNL     1       0.955   9.498  17.881  0.00  0.00    +0.000 A 
ATOM      5  C   UNL     1       0.625  10.209  19.007  0.00  0.00    +0.000 A 
ATOM      6  C   UNL     1       1.008   9.639  20.207  0.00  0.00    +0.000 A 
ATOM      7  N   UNL     1       1.638   8.444  20.281  0.00  0.00    +0.000 NA
ATOM      8  C   UNL     1       0.656  10.314  21.508  0.00  0.00    +0.000 C 
ATOM      9  C   UNL     1       0.380  11.804  21.308  0.00  0.00    +0.000 C 
ATOM     10  N   UNL     1      -0.559  12.009  20.202  0.00  0.00    +0.000 N 
ATOM     11  C   UNL     1      -1.806  12.607  20.223  0.00  0.00    +0.000 C 
ATOM     12  O   UNL     1      -2.456  12.720  19.184  0.00  0.00    +0.000 OA
ATOM     13  N   UNL     1      -2.254  13.048  21.446  0.00  0.00    +0.000 N 
ATOM     14  C   UNL     1      -0.091  11.517  18.908  0.00  0.00    +0.000 C 
ATOM     15  H   UNL     1       2.840   6.428  20.142  0.00  0.00    +0.000 HD
ATOM     16  H   UNL     1      -1.556  13.269  22.136  0.00  0.00    +0.000 HD
ENDROOT
BRANCH  13  17
ATOM     17  C   UNL     1      -3.555  13.545  21.706  0.00  0.00    +0.000 A 
ATOM     18  C   UNL     1      -4.023  14.762  21.193  0.00  0.00    +0.000 A 
ATOM     19  C   UNL     1      -5.300  15.233  21.511  0.00  0.00    +0.000 A 
ATOM     20  C   UNL     1      -6.123  14.476  22.326  0.00  0.00    +0.000 A 
ATOM     21  F   UNL     1      -7.342  14.946  22.631  0.00  0.00    +0.000 F 
ATOM     22  C   UNL     1      -5.692  13.245  22.817  0.00  0.00    +0.000 A 
ATOM     23 CL   UNL     1      -6.717  12.297  23.825  0.00  0.00    +0.000 Cl
ATOM     24  C   UNL     1      -4.411  12.772  22.500  0.00  0.00    +0.000 A 
ENDBRANCH  13  17
BRANCH   1  28
ATOM     25  C   UNL     1       5.041   4.782  16.309  0.00  0.00    +0.000 A 
ATOM     26  C   UNL     1       5.173   6.140  16.626  0.00  0.00    +0.000 A 
ATOM     27  C   UNL     1       4.338   6.735  17.570  0.00  0.00    +0.000 A 
ATOM     28  C   UNL     1       3.338   5.997  18.214  0.00  0.00    +0.000 A 
ATOM     29  C   UNL     1       3.219   4.638  17.916  0.00  0.00    +0.000 A 
ATOM     30  C   UNL     1       4.051   4.038  16.966  0.00  0.00    +0.000 A 
BRANCH  25  32
ATOM     31  C   UNL     1       5.389   4.067  13.961  0.00  0.00    +0.000 C 
ATOM     32  C   UNL     1       6.032   4.153  15.347  0.00  0.00    +0.000 C 
ATOM     33  C   UNL     1       7.382   4.869  15.277  0.00  0.00    +0.000 C 
ENDBRANCH  25  32
ENDBRANCH   1  28
TORSDOF 3
ENDMDL
MODEL 5
REMARK VINA RESULT:      -8.4      1.702      2.221
REMARK  Name = 
REMARK  5 active torsions:
REMARK  status: ('A' for Active; 'I' for Inactive)
REMARK    1  A    between atoms: C_1  and  C_2
REMARK    2  A    between atoms: C_2  and  C_3
REMARK    3  A    between atoms: C_2  and  C_4
REMARK    4  A    between atoms: C_7  and  N_8
REMARK    5  A    between atoms: N_20  and  C_21
REMARK                            x       y       z     vdW  Elec       q    Type
REMARK                         _______ _______ _______ _____ _____    ______ ____
ROOT
ATOM      1  N   UNL     1       2.046   6.458  19.794  0.00  0.00    +0.000 N 
ATOM      2  C   UNL     1       1.565   7.746  20.040  0.00  0.00    +0.000 A 
ATOM      3  N   UNL     1       1.809   8.716  19.144  0.00  0.00    +0.000 NA
ATOM      4  C   UNL     1       1.300   9.928  19.388  0.00  0.00    +0.000 A 
ATOM      5  C   UNL     1       0.543  10.218  20.495  0.00  0.00    +0.000 A 
ATOM      6  C   UNL     1       0.358   9.173  21.381  0.00  0.00    +0.000 A 
ATOM      7  N   UNL     1       0.857   7.934  21.166  0.00  0.00    +0.000 NA
ATOM      8  C   UNL     1      -0.494   9.368  22.610  0.00  0.00    +0.000 C 
ATOM      9  C   UNL     1      -0.610  10.847  22.980  0.00  0.00    +0.000 C 
ATOM     10  N   UNL     1      -0.979  11.643  21.806  0.00  0.00    +0.000 N 
ATOM     11  C   UNL     1      -2.096  12.437  21.614  0.00  0.00    +0.000 C 
ATOM     12  O   UNL     1      -2.235  13.064  20.564  0.00  0.00    +0.000 OA
ATOM     13  N   UNL     1      -3.009  12.471  22.641  0.00  0.00    +0.000 N 
ATOM     14  C   UNL     1      -0.019  11.586  20.706  0.00  0.00    +0.000 C 
ATOM     15  H   UNL     1       1.937   5.913  20.639  0.00  0.00    +0.000 HD
ATOM     16  H   UNL     1      -2.666  12.265  23.564  0.00  0.00    +0.000 HD
ENDROOT
BRANCH  13  17
ATOM     17  C   UNL     1      -4.280  13.094  22.581  0.00  0.00    +0.000 A 
ATOM     18  C   UNL     1      -5.343  12.585  21.822  0.00  0.00    +0.000 A 
ATOM     19  C   UNL     1      -6.566  13.257  21.758  0.00  0.00    +0.000 A 
ATOM     20  C   UNL     1      -6.740  14.430  22.472  0.00  0.00    +0.000 A 
ATOM     21  F   UNL     1      -7.916  15.069  22.392  0.00  0.00    +0.000 F 
ATOM     22  C   UNL     1      -5.708  14.934  23.263  0.00  0.00    +0.000 A 
ATOM     23 CL   UNL     1      -5.923  16.389  24.158  0.00  0.00    +0.000 Cl
ATOM     24  C   UNL     1      -4.480  14.262  23.327  0.00  0.00    +0.000 A 
ENDBRANCH  13  17
BRANCH   1  28
ATOM     25  C   UNL     1       5.451   5.485  17.474  0.00  0.00    +0.000 A 
ATOM     26  C   UNL     1       5.215   4.834  18.692  0.00  0.00    +0.000 A 
ATOM     27  C   UNL     1       4.100   5.155  19.465  0.00  0.00    +0.000 A 
ATOM     28  C   UNL     1       3.198   6.142  19.054  0.00  0.00    +0.000 A 
ATOM     29  C   UNL     1       3.418   6.776  17.830  0.00  0.00    +0.000 A 
ATOM     30  C   UNL     1       4.538   6.462  17.053  0.00  0.00    +0.000 A 
BRANCH  25  32
ATOM     31  C   UNL     1       7.724   4.497  17.534  0.00  0.00    +0.000 C 
ATOM     32  C   UNL     1       6.623   5.039  16.620  0.00  0.00    +0.000 C 
ATOM     33  C   UNL     1       6.262   4.019  15.539  0.00  0.00    +0.000 C 
ENDBRANCH  25  32
ENDBRANCH   1  28
TORSDOF 3
ENDMDL
MODEL 6
REMARK VINA RESULT:      -8.4      1.260      1.490
REMARK  Name = 
REMARK  5 active torsions:
REMARK  status: ('A' for Active; 'I' for Inactive)
REMARK    1  A    between atoms: C_1  and  C_2
REMARK    2  A    between atoms: C_2  and  C_3
REMARK    3  A    between atoms: C_2  and  C_4
REMARK    4  A    between atoms: C_7  and  N_8
REMARK    5  A    between atoms: N_20  and  C_21
REMARK                            x       y       z     vdW  Elec       q    Type
REMARK                         _______ _______ _______ _____ _____    ______ ____
ROOT
ATOM      1  N   UNL     1       1.929   5.943  19.881  0.00  0.00    +0.000 N 
ATOM      2  C   UNL     1       1.531   7.279  19.977  0.00  0.00    +0.000 A 
ATOM      3  N   UNL     1       1.759   8.104  18.943  0.00  0.00    +0.000 NA
ATOM      4  C   UNL     1       1.330   9.366  19.050  0.00  0.00    +0.000 A 
ATOM      5  C   UNL     1       0.668   9.845  20.153  0.00  0.00    +0.000 A 
ATOM      6  C   UNL     1       0.494   8.940  21.184  0.00  0.00    +0.000 A 
ATOM      7  N   UNL     1       0.915   7.656  21.109  0.00  0.00    +0.000 NA
ATOM      8  C   UNL     1      -0.258   9.348  22.425  0.00  0.00    +0.000 C 
ATOM      9  C   UNL     1      -0.273  10.867  22.596  0.00  0.00    +0.000 C 
ATOM     10  N   UNL     1      -0.685  11.520  21.349  0.00  0.00    +0.000 N 
ATOM     11  C   UNL     1      -1.771  12.345  21.121  0.00  0.00    +0.000 C 
ATOM     12  O   UNL     1      -1.953  12.834  20.005  0.00  0.00    +0.000 OA
ATOM     13  N   UNL     1      -2.606  12.570  22.189  0.00  0.00    +0.000 N 
ATOM     14  C   UNL     1       0.192  11.259  20.209  0.00  0.00    +0.000 C 
ATOM     15  H   UNL     1       1.853   5.523  20.797  0.00  0.00    +0.000 HD
ATOM     16  H   UNL     1      -2.209  12.469  23.108  0.00  0.00    +0.000 HD
ENDROOT
BRANCH  13  17
ATOM     17  C   UNL     1      -3.846  13.254  22.125  0.00  0.00    +0.000 A 
ATOM     18  C   UNL     1      -3.982  14.614  22.432  0.00  0.00    +0.000 A 
ATOM     19  C   UNL     1      -5.233  15.237  22.396  0.00  0.00    +0.000 A 
ATOM     20  C   UNL     1      -6.349  14.506  22.029  0.00  0.00    +0.000 A 
ATOM     21  F   UNL     1      -7.544  15.115  22.009  0.00  0.00    +0.000 F 
ATOM     22  C   UNL     1      -6.230  13.161  21.683  0.00  0.00    +0.000 A 
ATOM     23 CL   UNL     1      -7.616  12.251  21.220  0.00  0.00    +0.000 Cl
ATOM     24  C   UNL     1      -4.977  12.535  21.720  0.00  0.00    +0.000 A 
ENDBRANCH  13  17
BRANCH   1  28
ATOM     25  C   UNL     1       5.230   4.601  17.595  0.00  0.00    +0.000 A 
ATOM     26  C   UNL     1       3.928   4.495  17.088  0.00  0.00    +0.000 A 
ATOM     27  C   UNL     1       2.836   4.928  17.838  0.00  0.00    +0.000 A 
ATOM     28  C   UNL     1       3.008   5.464  19.119  0.00  0.00    +0.000 A 
ATOM     29  C   UNL     1       4.306   5.592  19.617  0.00  0.00    +0.000 A 
ATOM     30  C   UNL     1       5.405   5.155  18.871  0.00  0.00    +0.000 A 
BRANCH  25  32
ATOM     31  C   UNL     1       6.223   4.868  15.340  0.00  0.00    +0.000 C 
ATOM     32  C   UNL     1       6.397   4.207  16.708  0.00  0.00    +0.000 C 
ATOM     33  C   UNL     1       7.771   4.528  17.298  0.00  0.00    +0.000 C 
ENDBRANCH  25  32
ENDBRANCH   1  28
TORSDOF 3
ENDMDL
MODEL 7
REMARK VINA RESULT:      -8.3      0.882      1.099
REMARK  Name = 
REMARK  5 active torsions:
REMARK  status: ('A' for Active; 'I' for Inactive)
REMARK    1  A    between atoms: C_1  and  C_2
REMARK    2  A    between atoms: C_2  and  C_3
REMARK    3  A    between atoms: C_2  and  C_4
REMARK    4  A    between atoms: C_7  and  N_8
REMARK    5  A    between atoms: N_20  and  C_21
REMARK                            x       y       z     vdW  Elec       q    Type
REMARK                         _______ _______ _______ _____ _____    ______ ____
ROOT
ATOM      1  N   UNL     1       2.516   6.635  19.072  0.00  0.00    +0.000 N 
ATOM      2  C   UNL     1       1.859   7.867  19.127  0.00  0.00    +0.000 A 
ATOM      3  N   UNL     1       1.581   8.510  17.982  0.00  0.00    +0.000 NA
ATOM      4  C   UNL     1       0.915   9.666  18.066  0.00  0.00    +0.000 A 
ATOM      5  C   UNL     1       0.503  10.213  19.255  0.00  0.00    +0.000 A 
ATOM      6  C   UNL     1       0.849   9.503  20.390  0.00  0.00    +0.000 A 
ATOM      7  N   UNL     1       1.521   8.329  20.342  0.00  0.00    +0.000 NA
ATOM      8  C   UNL     1       0.409   9.990  21.747  0.00  0.00    +0.000 C 
ATOM      9  C   UNL     1       0.086  11.484  21.727  0.00  0.00    +0.000 C 
ATOM     10  N   UNL     1      -0.807  11.801  20.608  0.00  0.00    +0.000 N 
ATOM     11  C   UNL     1      -2.076  12.351  20.640  0.00  0.00    +0.000 C 
ATOM     12  O   UNL     1      -2.678  12.577  19.591  0.00  0.00    +0.000 OA
ATOM     13  N   UNL     1      -2.599  12.613  21.885  0.00  0.00    +0.000 N 
ATOM     14  C   UNL     1      -0.257  11.498  19.288  0.00  0.00    +0.000 C 
ATOM     15  H   UNL     1       2.806   6.389  20.009  0.00  0.00    +0.000 HD
ATOM     16  H   UNL     1      -1.944  12.764  22.633  0.00  0.00    +0.000 HD
ENDROOT
BRANCH  13  17
ATOM     17  C   UNL     1      -3.930  13.029  22.137  0.00  0.00    +0.000 A 
ATOM     18  C   UNL     1      -4.259  13.977  23.115  0.00  0.00    +0.000 A 
ATOM     19  C   UNL     1      -5.590  14.325  23.359  0.00  0.00    +0.000 A 
ATOM     20  C   UNL     1      -6.597  13.742  22.609  0.00  0.00    +0.000 A 
ATOM     21  F   UNL     1      -7.871  14.079  22.862  0.00  0.00    +0.000 F 
ATOM     22  C   UNL     1      -6.289  12.825  21.606  0.00  0.00    +0.000 A 
ATOM     23 CL   UNL     1      -7.539  12.104  20.667  0.00  0.00    +0.000 Cl
ATOM     24  C   UNL     1      -4.954  12.474  21.361  0.00  0.00    +0.000 A 
ENDBRANCH  13  17
BRANCH   1  28
ATOM     25  C   UNL     1       5.179   5.497  15.984  0.00  0.00    +0.000 A 
ATOM     26  C   UNL     1       4.324   4.552  16.565  0.00  0.00    +0.000 A 
ATOM     27  C   UNL     1       3.450   4.917  17.587  0.00  0.00    +0.000 A 
ATOM     28  C   UNL     1       3.414   6.231  18.070  0.00  0.00    +0.000 A 
ATOM     29  C   UNL     1       4.248   7.179  17.477  0.00  0.00    +0.000 A 
ATOM     30  C   UNL     1       5.131   6.817  16.454  0.00  0.00    +0.000 A 
BRANCH  25  32
ATOM     31  C   UNL     1       7.460   4.792  15.317  0.00  0.00    +0.000 C 
ATOM     32  C   UNL     1       6.045   5.079  14.811  0.00  0.00    +0.000 C 
ATOM     33  C   UNL     1       5.499   3.890  14.018  0.00  0.00    +0.000 C 
ENDBRANCH  25  32
ENDBRANCH   1  28
TORSDOF 3
ENDMDL
MODEL 8
REMARK VINA RESULT:      -8.3      4.369     11.698
REMARK  Name = 
REMARK  5 active torsions:
REMARK  status: ('A' for Active; 'I' for Inactive)
REMARK    1  A    between atoms: C_1  and  C_2
REMARK    2  A    between atoms: C_2  and  C_3
REMARK    3  A    between atoms: C_2  and  C_4
REMARK    4  A    between atoms: C_7  and  N_8
REMARK    5  A    between atoms: N_20  and  C_21
REMARK                            x       y       z     vdW  Elec       q    Type
REMARK                         _______ _______ _______ _____ _____    ______ ____
ROOT
ATOM      1  N   UNL     1      -3.579  12.720  20.589  0.00  0.00    +0.000 N 
ATOM      2  C   UNL     1      -2.380  12.003  20.609  0.00  0.00    +0.000 A 
ATOM      3  N   UNL     1      -1.781  11.765  21.787  0.00  0.00    +0.000 NA
ATOM      4  C   UNL     1      -0.657  11.040  21.777  0.00  0.00    +0.000 A 
ATOM      5  C   UNL     1      -0.101  10.531  20.631  0.00  0.00    +0.000 A 
ATOM      6  C   UNL     1      -0.764  10.840  19.457  0.00  0.00    +0.000 A 
ATOM      7  N   UNL     1      -1.903  11.569  19.431  0.00  0.00    +0.000 NA
ATOM      8  C   UNL     1      -0.264  10.294  18.144  0.00  0.00    +0.000 C 
ATOM      9  C   UNL     1       1.211   9.901  18.226  0.00  0.00    +0.000 C 
ATOM     10  N   UNL     1       1.454   9.066  19.405  0.00  0.00    +0.000 N 
ATOM     11  C   UNL     1       1.941   7.772  19.465  0.00  0.00    +0.000 C 
ATOM     12  O   UNL     1       2.111   7.225  20.555  0.00  0.00    +0.000 OA
ATOM     13  N   UNL     1       2.210   7.161  18.263  0.00  0.00    +0.000 N 
ATOM     14  C   UNL     1       1.145   9.709  20.681  0.00  0.00    +0.000 C 
ATOM     15  H   UNL     1      -3.785  12.964  19.630  0.00  0.00    +0.000 HD
ATOM     16  H   UNL     1       2.412   7.761  17.481  0.00  0.00    +0.000 HD
ENDROOT
BRANCH  13  17
ATOM     17  C   UNL     1       2.565   5.799  18.103  0.00  0.00    +0.000 A 
ATOM     18  C   UNL     1       3.814   5.390  17.616  0.00  0.00    +0.000 A 
ATOM     19  C   UNL     1       4.105   4.035  17.434  0.00  0.00    +0.000 A 
ATOM     20  C   UNL     1       3.156   3.082  17.761  0.00  0.00    +0.000 A 
ATOM     21  F   UNL     1       3.446   1.786  17.571  0.00  0.00    +0.000 F 
ATOM     22  C   UNL     1       1.922   3.466  18.283  0.00  0.00    +0.000 A 
ATOM     23 CL   UNL     1       0.741   2.283  18.697  0.00  0.00    +0.000 Cl
ATOM     24  C   UNL     1       1.627   4.824  18.464  0.00  0.00    +0.000 A 
ENDBRANCH  13  17
BRANCH   1  28
ATOM     25  C   UNL     1      -4.629  15.674  23.434  0.00  0.00    +0.000 A 
ATOM     26  C   UNL     1      -5.218  14.404  23.482  0.00  0.00    +0.000 A 
ATOM     27  C   UNL     1      -4.883  13.428  22.545  0.00  0.00    +0.000 A 
ATOM     28  C   UNL     1      -3.963  13.696  21.524  0.00  0.00    +0.000 A 
ATOM     29  C   UNL     1      -3.358  14.954  21.487  0.00  0.00    +0.000 A 
ATOM     30  C   UNL     1      -3.695  15.937  22.423  0.00  0.00    +0.000 A 
BRANCH  25  32
ATOM     31  C   UNL     1      -3.641  17.230  25.092  0.00  0.00    +0.000 C 
ATOM     32  C   UNL     1      -4.951  16.674  24.529  0.00  0.00    +0.000 C 
ATOM     33  C   UNL     1      -5.881  17.807  24.094  0.00  0.00    +0.000 C 
ENDBRANCH  25  32
ENDBRANCH   1  28
TORSDOF 3
ENDMDL
MODEL 9
REMARK VINA RESULT:      -8.2      1.386      1.778
REMARK  Name = 
REMARK  5 active torsions:
REMARK  status: ('A' for Active; 'I' for Inactive)
REMARK    1  A    between atoms: C_1  and  C_2
REMARK    2  A    between atoms: C_2  and  C_3
REMARK    3  A    between atoms: C_2  and  C_4
REMARK    4  A    between atoms: C_7  and  N_8
REMARK    5  A    between atoms: N_20  and  C_21
REMARK                            x       y       z     vdW  Elec       q    Type
REMARK                         _______ _______ _______ _____ _____    ______ ____
ROOT
ATOM      1  N   UNL     1       2.148   6.584  19.552  0.00  0.00    +0.000 N 
ATOM      2  C   UNL     1       1.683   7.863  19.870  0.00  0.00    +0.000 A 
ATOM      3  N   UNL     1       2.003   8.892  19.068  0.00  0.00    +0.000 NA
ATOM      4  C   UNL     1       1.508  10.095  19.376  0.00  0.00    +0.000 A 
ATOM      5  C   UNL     1       0.692  10.319  20.456  0.00  0.00    +0.000 A 
ATOM      6  C   UNL     1       0.430   9.215  21.246  0.00  0.00    +0.000 A 
ATOM      7  N   UNL     1       0.913   7.983  20.963  0.00  0.00    +0.000 NA
ATOM      8  C   UNL     1      -0.490   9.339  22.433  0.00  0.00    +0.000 C 
ATOM      9  C   UNL     1      -0.594  10.788  22.911  0.00  0.00    +0.000 C 
ATOM     10  N   UNL     1      -0.874  11.681  21.783  0.00  0.00    +0.000 N 
ATOM     11  C   UNL     1      -1.958  12.518  21.588  0.00  0.00    +0.000 C 
ATOM     12  O   UNL     1      -2.019  13.228  20.584  0.00  0.00    +0.000 OA
ATOM     13  N   UNL     1      -2.931  12.499  22.560  0.00  0.00    +0.000 N 
ATOM     14  C   UNL     1       0.150  11.682  20.740  0.00  0.00    +0.000 C 
ATOM     15  H   UNL     1       1.976   5.980  20.344  0.00  0.00    +0.000 HD
ATOM     16  H   UNL     1      -2.649  12.213  23.482  0.00  0.00    +0.000 HD
ENDROOT
BRANCH  13  17
ATOM     17  C   UNL     1      -4.181  13.159  22.475  0.00  0.00    +0.000 A 
ATOM     18  C   UNL     1      -4.458  14.355  23.151  0.00  0.00    +0.000 A 
ATOM     19  C   UNL     1      -5.721  14.949  23.071  0.00  0.00    +0.000 A 
ATOM     20  C   UNL     1      -6.705  14.361  22.296  0.00  0.00    +0.000 A 
ATOM     21  F   UNL     1      -7.915  14.938  22.238  0.00  0.00    +0.000 F 
ATOM     22  C   UNL     1      -6.439  13.192  21.585  0.00  0.00    +0.000 A 
ATOM     23 CL   UNL     1      -7.658  12.462  20.613  0.00  0.00    +0.000 Cl
ATOM     24  C   UNL     1      -5.173  12.595  21.665  0.00  0.00    +0.000 A 
ENDBRANCH  13  17
BRANCH   1  28
ATOM     25  C   UNL     1       5.664   5.664  17.380  0.00  0.00    +0.000 A 
ATOM     26  C   UNL     1       5.522   5.243  18.709  0.00  0.00    +0.000 A 
ATOM     27  C   UNL     1       4.370   5.548  19.433  0.00  0.00    +0.000 A 
ATOM     28  C   UNL     1       3.335   6.295  18.858  0.00  0.00    +0.000 A 
ATOM     29  C   UNL     1       3.464   6.697  17.528  0.00  0.00    +0.000 A 
ATOM     30  C   UNL     1       4.620   6.397  16.799  0.00  0.00    +0.000 A 
BRANCH  25  32
ATOM     31  C   UNL     1       7.833   4.476  17.540  0.00  0.00    +0.000 C 
ATOM     32  C   UNL     1       6.890   5.229  16.600  0.00  0.00    +0.000 C 
ATOM     33  C   UNL     1       6.580   4.393  15.356  0.00  0.00    +0.000 C 
ENDBRANCH  25  32
ENDBRANCH   1  28
TORSDOF 3
ENDMDL
