MODEL 1
REMARK VINA RESULT:      -7.9      0.000      0.000
REMARK  Name = 
REMARK  3 active torsions:
REMARK  status: ('A' for Active; 'I' for Inactive)
REMARK    1  A    between atoms: C_1  and  C_2
REMARK    2  A    between atoms: N_6  and  N_7
REMARK    3  A    between atoms: C_10  and  C_11
REMARK                            x       y       z     vdW  Elec       q    Type
REMARK                         _______ _______ _______ _____ _____    ______ ____
ROOT
ATOM      1  N   UNL     1       4.600   3.786  19.283  0.00  0.00    +0.000 N 
ATOM      2  C   UNL     1       3.593   4.609  19.685  0.00  0.00    +0.000 A 
ATOM      3  N   UNL     1       3.445   5.875  19.356  0.00  0.00    +0.000 NA
ATOM      4  C   UNL     1       2.308   6.413  19.933  0.00  0.00    +0.000 A 
ATOM      5  C   UNL     1       1.631   5.551  20.772  0.00  0.00    +0.000 A 
ATOM      6  S   UNL     1       2.366   4.002  20.737  0.00  0.00    +0.000 S 
ATOM      7  H   UNL     1       4.546   2.832  19.627  0.00  0.00    +0.000 HD
ENDROOT
BRANCH   1  13
ATOM      8  C   UNL     1       5.509   4.288  14.027  0.00  0.00    +0.000 C 
ATOM      9  C   UNL     1       6.243   3.922  15.310  0.00  0.00    +0.000 C 
ATOM     10  C   UNL     1       7.220   5.018  15.743  0.00  0.00    +0.000 C 
ATOM     11  C   UNL     1       7.479   4.741  17.213  0.00  0.00    +0.000 C 
ATOM     12  C   UNL     1       6.133   4.238  17.656  0.00  0.00    +0.000 C 
ATOM     13  N   UNL     1       5.812   4.280  18.909  0.00  0.00    +0.000 NA
ATOM     14  C   UNL     1       5.298   3.735  16.506  0.00  0.00    +0.000 C 
ENDBRANCH   1  13
BRANCH   4  15
ATOM     15  C   UNL     1       1.899   7.786  19.650  0.00  0.00    +0.000 A 
ATOM     16  C   UNL     1       1.232   8.571  20.603  0.00  0.00    +0.000 A 
ATOM     17  C   UNL     1       0.811   9.868  20.291  0.00  0.00    +0.000 A 
ATOM     18  C   UNL     1       1.055  10.388  19.023  0.00  0.00    +0.000 A 
ATOM     19 CL   UNL     1       0.517  11.978  18.634  0.00  0.00    +0.000 Cl
ATOM     20  C   UNL     1       1.719   9.629  18.064  0.00  0.00    +0.000 A 
ATOM     21  C   UNL     1       2.133   8.329  18.377  0.00  0.00    +0.000 A 
ENDBRANCH   4  15
TORSDOF 2
ENDMDL
MODEL 2
REMARK VINA RESULT:      -7.8      0.079      1.083
REMARK  Name = 
REMARK  3 active torsions:
REMARK  status: ('A' for Active; 'I' for Inactive)
REMARK    1  A    between atoms: C_1  and  C_2
REMARK    2  A    between atoms: N_6  and  N_7
REMARK    3  A    between atoms: C_10  and  C_11
REMARK                            x       y       z     vdW  Elec       q    Type
REMARK                         _______ _______ _______ _____ _____    ______ ____
ROOT
ATOM      1  N   UNL     1       4.596   3.803  19.328  0.00  0.00    +0.000 N 
ATOM      2  C   UNL     1       3.583   4.634  19.697  0.00  0.00    +0.000 A 
ATOM      3  N   UNL     1       3.431   5.888  19.326  0.00  0.00    +0.000 NA
ATOM      4  C   UNL     1       2.287   6.438  19.879  0.00  0.00    +0.000 A 
ATOM      5  C   UNL     1       1.609   5.599  20.741  0.00  0.00    +0.000 A 
ATOM      6  S   UNL     1       2.352   4.054  20.760  0.00  0.00    +0.000 S 
ATOM      7  H   UNL     1       4.545   2.860  19.701  0.00  0.00    +0.000 HD
ENDROOT
BRANCH   1  13
ATOM      8  C   UNL     1       5.476   4.293  14.065  0.00  0.00    +0.000 C 
ATOM      9  C   UNL     1       6.216   3.925  15.344  0.00  0.00    +0.000 C 
ATOM     10  C   UNL     1       7.201   5.017  15.769  0.00  0.00    +0.000 C 
ATOM     11  C   UNL     1       7.467   4.741  17.238  0.00  0.00    +0.000 C 
ATOM     12  C   UNL     1       6.121   4.245  17.690  0.00  0.00    +0.000 C 
ATOM     13  N   UNL     1       5.808   4.291  18.945  0.00  0.00    +0.000 NA
ATOM     14  C   UNL     1       5.278   3.744  16.546  0.00  0.00    +0.000 C 
ENDBRANCH   1  13
BRANCH   4  15
ATOM     15  C   UNL     1       1.874   7.799  19.550  0.00  0.00    +0.000 A 
ATOM     16  C   UNL     1       2.139   8.370  18.296  0.00  0.00    +0.000 A 
ATOM     17  C   UNL     1       1.773   9.692  18.022  0.00  0.00    +0.000 A 
ATOM     18  C   UNL     1       1.138  10.451  19.001  0.00  0.00    +0.000 A 
ATOM     19 CL   UNL     1       0.706  12.085  18.668  0.00  0.00    +0.000 Cl
ATOM     20  C   UNL     1       0.861   9.903  20.250  0.00  0.00    +0.000 A 
ATOM     21  C   UNL     1       1.234   8.582  20.524  0.00  0.00    +0.000 A 
ENDBRANCH   4  15
TORSDOF 2
ENDMDL
MODEL 3
REMARK VINA RESULT:      -7.6      5.541      7.985
REMARK  Name = 
REMARK  3 active torsions:
REMARK  status: ('A' for Active; 'I' for Inactive)
REMARK    1  A    between atoms: C_1  and  C_2
REMARK    2  A    between atoms: N_6  and  N_7
REMARK    3  A    between atoms: C_10  and  C_11
REMARK                            x       y       z     vdW  Elec       q    Type
REMARK                         _______ _______ _______ _____ _____    ______ ____
ROOT
ATOM      1  N   UNL     1       8.528   8.176  18.669  0.00  0.00    +0.000 N 
ATOM      2  C   UNL     1       7.945   7.021  18.247  0.00  0.00    +0.000 A 
ATOM      3  N   UNL     1       7.542   6.756  17.022  0.00  0.00    +0.000 NA
ATOM      4  C   UNL     1       7.000   5.485  16.939  0.00  0.00    +0.000 A 
ATOM      5  C   UNL     1       6.929   4.813  18.143  0.00  0.00    +0.000 A 
ATOM      6  S   UNL     1       7.667   5.746  19.378  0.00  0.00    +0.000 S 
ATOM      7  H   UNL     1       8.787   8.201  19.651  0.00  0.00    +0.000 HD
ENDROOT
BRANCH   1  13
ATOM      8  C   UNL     1      11.648  12.307  20.049  0.00  0.00    +0.000 C 
ATOM      9  C   UNL     1      10.214  12.016  19.627  0.00  0.00    +0.000 C 
ATOM     10  C   UNL     1       9.926  12.507  18.206  0.00  0.00    +0.000 C 
ATOM     11  C   UNL     1       8.690  11.736  17.779  0.00  0.00    +0.000 C 
ATOM     12  C   UNL     1       8.924  10.413  18.454  0.00  0.00    +0.000 C 
ATOM     13  N   UNL     1       8.322   9.353  18.017  0.00  0.00    +0.000 NA
ATOM     14  C   UNL     1       9.892  10.515  19.604  0.00  0.00    +0.000 C 
ENDBRANCH   1  13
BRANCH   4  15
ATOM     15  C   UNL     1       6.552   4.942  15.659  0.00  0.00    +0.000 A 
ATOM     16  C   UNL     1       5.298   4.329  15.514  0.00  0.00    +0.000 A 
ATOM     17  C   UNL     1       4.911   3.777  14.288  0.00  0.00    +0.000 A 
ATOM     18  C   UNL     1       5.777   3.835  13.199  0.00  0.00    +0.000 A 
ATOM     19 CL   UNL     1       5.307   3.136  11.697  0.00  0.00    +0.000 Cl
ATOM     20  C   UNL     1       7.023   4.443  13.320  0.00  0.00    +0.000 A 
ATOM     21  C   UNL     1       7.410   4.989  14.549  0.00  0.00    +0.000 A 
ENDBRANCH   4  15
TORSDOF 2
ENDMDL
MODEL 4
REMARK VINA RESULT:      -7.6      5.541      8.042
REMARK  Name = 
REMARK  3 active torsions:
REMARK  status: ('A' for Active; 'I' for Inactive)
REMARK    1  A    between atoms: C_1  and  C_2
REMARK    2  A    between atoms: N_6  and  N_7
REMARK    3  A    between atoms: C_10  and  C_11
REMARK                            x       y       z     vdW  Elec       q    Type
REMARK                         _______ _______ _______ _____ _____    ______ ____
ROOT
ATOM      1  N   UNL     1       8.515   8.148  18.704  0.00  0.00    +0.000 N 
ATOM      2  C   UNL     1       7.954   6.983  18.279  0.00  0.00    +0.000 A 
ATOM      3  N   UNL     1       7.602   6.695  17.043  0.00  0.00    +0.000 NA
ATOM      4  C   UNL     1       7.068   5.420  16.960  0.00  0.00    +0.000 A 
ATOM      5  C   UNL     1       6.952   4.769  18.171  0.00  0.00    +0.000 A 
ATOM      6  S   UNL     1       7.636   5.725  19.419  0.00  0.00    +0.000 S 
ATOM      7  H   UNL     1       8.734   8.190  19.694  0.00  0.00    +0.000 HD
ENDROOT
BRANCH   1  13
ATOM      8  C   UNL     1      11.611  12.296  20.086  0.00  0.00    +0.000 C 
ATOM      9  C   UNL     1      10.188  12.000  19.632  0.00  0.00    +0.000 C 
ATOM     10  C   UNL     1       9.939  12.464  18.195  0.00  0.00    +0.000 C 
ATOM     11  C   UNL     1       8.712  11.689  17.750  0.00  0.00    +0.000 C 
ATOM     12  C   UNL     1       8.924  10.378  18.456  0.00  0.00    +0.000 C 
ATOM     13  N   UNL     1       8.330   9.313  18.024  0.00  0.00    +0.000 NA
ATOM     14  C   UNL     1       9.862  10.500  19.630  0.00  0.00    +0.000 C 
ENDBRANCH   1  13
BRANCH   4  15
ATOM     15  C   UNL     1       6.674   4.854  15.673  0.00  0.00    +0.000 A 
ATOM     16  C   UNL     1       7.410   5.093  14.502  0.00  0.00    +0.000 A 
ATOM     17  C   UNL     1       6.984   4.576  13.274  0.00  0.00    +0.000 A 
ATOM     18  C   UNL     1       5.819   3.818  13.208  0.00  0.00    +0.000 A 
ATOM     19 CL   UNL     1       5.287   3.200  11.691  0.00  0.00    +0.000 Cl
ATOM     20  C   UNL     1       5.077   3.564  14.357  0.00  0.00    +0.000 A 
ATOM     21  C   UNL     1       5.500   4.088  15.584  0.00  0.00    +0.000 A 
ENDBRANCH   4  15
TORSDOF 2
ENDMDL
MODEL 5
REMARK VINA RESULT:      -7.3      3.656      5.093
REMARK  Name = 
REMARK  3 active torsions:
REMARK  status: ('A' for Active; 'I' for Inactive)
REMARK    1  A    between atoms: C_1  and  C_2
REMARK    2  A    between atoms: N_6  and  N_7
REMARK    3  A    between atoms: C_10  and  C_11
REMARK                            x       y       z     vdW  Elec       q    Type
REMARK                         _______ _______ _______ _____ _____    ______ ____
ROOT
ATOM      1  N   UNL     1       2.440   6.998  19.780  0.00  0.00    +0.000 N 
ATOM      2  C   UNL     1       1.769   8.178  19.683  0.00  0.00    +0.000 A 
ATOM      3  N   UNL     1       0.946   8.681  20.580  0.00  0.00    +0.000 NA
ATOM      4  C   UNL     1       0.441   9.902  20.166  0.00  0.00    +0.000 A 
ATOM      5  C   UNL     1       0.838  10.285  18.901  0.00  0.00    +0.000 A 
ATOM      6  S   UNL     1       1.960   9.153  18.270  0.00  0.00    +0.000 S 
ATOM      7  H   UNL     1       3.044   6.775  18.995  0.00  0.00    +0.000 HD
ENDROOT
BRANCH   1  13
ATOM      8  C   UNL     1       2.470   2.079  17.658  0.00  0.00    +0.000 C 
ATOM      9  C   UNL     1       1.627   2.948  18.581  0.00  0.00    +0.000 C 
ATOM     10  C   UNL     1       1.717   2.489  20.038  0.00  0.00    +0.000 C 
ATOM     11  C   UNL     1       1.256   3.689  20.845  0.00  0.00    +0.000 C 
ATOM     12  C   UNL     1       1.798   4.822  20.019  0.00  0.00    +0.000 C 
ATOM     13  N   UNL     1       1.980   5.983  20.562  0.00  0.00    +0.000 NA
ATOM     14  C   UNL     1       2.078   4.416  18.595  0.00  0.00    +0.000 C 
ENDBRANCH   1  13
BRANCH   4  15
ATOM     15  C   UNL     1      -0.438  10.683  21.032  0.00  0.00    +0.000 A 
ATOM     16  C   UNL     1      -0.560  10.409  22.403  0.00  0.00    +0.000 A 
ATOM     17  C   UNL     1      -1.444  11.144  23.201  0.00  0.00    +0.000 A 
ATOM     18  C   UNL     1      -2.211  12.156  22.633  0.00  0.00    +0.000 A 
ATOM     19 CL   UNL     1      -3.313  13.045  23.614  0.00  0.00    +0.000 Cl
ATOM     20  C   UNL     1      -2.102  12.447  21.276  0.00  0.00    +0.000 A 
ATOM     21  C   UNL     1      -1.222  11.707  20.479  0.00  0.00    +0.000 A 
ENDBRANCH   4  15
TORSDOF 2
ENDMDL
MODEL 6
REMARK VINA RESULT:      -7.2      1.498      2.042
REMARK  Name = 
REMARK  3 active torsions:
REMARK  status: ('A' for Active; 'I' for Inactive)
REMARK    1  A    between atoms: C_1  and  C_2
REMARK    2  A    between atoms: N_6  and  N_7
REMARK    3  A    between atoms: C_10  and  C_11
REMARK                            x       y       z     vdW  Elec       q    Type
REMARK                         _______ _______ _______ _____ _____    ______ ____
ROOT
ATOM      1  N   UNL     1       5.720   3.862  17.121  0.00  0.00    +0.000 N 
ATOM      2  C   UNL     1       4.838   4.447  17.976  0.00  0.00    +0.000 A 
ATOM      3  N   UNL     1       4.325   5.654  17.859  0.00  0.00    +0.000 NA
ATOM      4  C   UNL     1       3.456   5.932  18.899  0.00  0.00    +0.000 A 
ATOM      5  C   UNL     1       3.372   4.939  19.854  0.00  0.00    +0.000 A 
ATOM      6  S   UNL     1       4.307   3.584  19.375  0.00  0.00    +0.000 S 
ATOM      7  H   UNL     1       6.000   2.916  17.363  0.00  0.00    +0.000 HD
ENDROOT
BRANCH   1  13
ATOM      8  C   UNL     1       5.192   3.292  11.820  0.00  0.00    +0.000 C 
ATOM      9  C   UNL     1       6.274   3.514  12.870  0.00  0.00    +0.000 C 
ATOM     10  C   UNL     1       6.837   4.936  12.818  0.00  0.00    +0.000 C 
ATOM     11  C   UNL     1       7.498   5.135  14.170  0.00  0.00    +0.000 C 
ATOM     12  C   UNL     1       6.572   4.356  15.063  0.00  0.00    +0.000 C 
ATOM     13  N   UNL     1       6.544   4.606  16.333  0.00  0.00    +0.000 NA
ATOM     14  C   UNL     1       5.756   3.341  14.305  0.00  0.00    +0.000 C 
ENDBRANCH   1  13
BRANCH   4  15
ATOM     15  C   UNL     1       2.711   7.187  18.941  0.00  0.00    +0.000 A 
ATOM     16  C   UNL     1       1.942   7.555  20.056  0.00  0.00    +0.000 A 
ATOM     17  C   UNL     1       1.201   8.742  20.051  0.00  0.00    +0.000 A 
ATOM     18  C   UNL     1       1.225   9.568  18.932  0.00  0.00    +0.000 A 
ATOM     19 CL   UNL     1       0.296  11.018  18.922  0.00  0.00    +0.000 Cl
ATOM     20  C   UNL     1       1.984   9.225  17.818  0.00  0.00    +0.000 A 
ATOM     21  C   UNL     1       2.719   8.034  17.821  0.00  0.00    +0.000 A 
ENDBRANCH   4  15
TORSDOF 2
ENDMDL
MODEL 7
REMARK VINA RESULT:      -7.2      3.657      5.146
REMARK  Name = 
REMARK  3 active torsions:
REMARK  status: ('A' for Active; 'I' for Inactive)
REMARK    1  A    between atoms: C_1  and  C_2
REMARK    2  A    between atoms: N_6  and  N_7
REMARK    3  A    between atoms: C_10  and  C_11
REMARK                            x       y       z     vdW  Elec       q    Type
REMARK                         _______ _______ _______ _____ _____    ______ ____
ROOT
ATOM      1  N   UNL     1       2.440   6.967  19.794  0.00  0.00    +0.000 N 
ATOM      2  C   UNL     1       1.760   8.141  19.674  0.00  0.00    +0.000 A 
ATOM      3  N   UNL     1       0.910   8.640  20.546  0.00  0.00    +0.000 NA
ATOM      4  C   UNL     1       0.405   9.854  20.113  0.00  0.00    +0.000 A 
ATOM      5  C   UNL     1       0.831  10.235  18.856  0.00  0.00    +0.000 A 
ATOM      6  S   UNL     1       1.980   9.110  18.262  0.00  0.00    +0.000 S 
ATOM      7  H   UNL     1       3.067   6.746  19.027  0.00  0.00    +0.000 HD
ENDROOT
BRANCH   1  13
ATOM      8  C   UNL     1       2.440   2.059  17.647  0.00  0.00    +0.000 C 
ATOM      9  C   UNL     1       1.599   2.930  18.571  0.00  0.00    +0.000 C 
ATOM     10  C   UNL     1       1.681   2.463  20.026  0.00  0.00    +0.000 C 
ATOM     11  C   UNL     1       1.225   3.663  20.838  0.00  0.00    +0.000 C 
ATOM     12  C   UNL     1       1.780   4.795  20.020  0.00  0.00    +0.000 C 
ATOM     13  N   UNL     1       1.969   5.952  20.569  0.00  0.00    +0.000 NA
ATOM     14  C   UNL     1       2.062   4.394  18.595  0.00  0.00    +0.000 C 
ENDBRANCH   1  13
BRANCH   4  15
ATOM     15  C   UNL     1      -0.504  10.631  20.951  0.00  0.00    +0.000 A 
ATOM     16  C   UNL     1      -1.289  11.670  20.427  0.00  0.00    +0.000 A 
ATOM     17  C   UNL     1      -2.117  12.429  21.261  0.00  0.00    +0.000 A 
ATOM     18  C   UNL     1      -2.165  12.154  22.624  0.00  0.00    +0.000 A 
ATOM     19 CL   UNL     1      -3.170  13.103  23.651  0.00  0.00    +0.000 Cl
ATOM     20  C   UNL     1      -1.399  11.125  23.164  0.00  0.00    +0.000 A 
ATOM     21  C   UNL     1      -0.566  10.371  22.330  0.00  0.00    +0.000 A 
ENDBRANCH   4  15
TORSDOF 2
ENDMDL
MODEL 8
REMARK VINA RESULT:      -7.2      2.994      7.478
REMARK  Name = 
REMARK  3 active torsions:
REMARK  status: ('A' for Active; 'I' for Inactive)
REMARK    1  A    between atoms: C_1  and  C_2
REMARK    2  A    between atoms: N_6  and  N_7
REMARK    3  A    between atoms: C_10  and  C_11
REMARK                            x       y       z     vdW  Elec       q    Type
REMARK                         _______ _______ _______ _____ _____    ______ ____
ROOT
ATOM      1  N   UNL     1       2.681   6.515  20.075  0.00  0.00    +0.000 N 
ATOM      2  C   UNL     1       3.333   5.592  19.317  0.00  0.00    +0.000 A 
ATOM      3  N   UNL     1       3.989   5.827  18.200  0.00  0.00    +0.000 NA
ATOM      4  C   UNL     1       4.540   4.664  17.690  0.00  0.00    +0.000 A 
ATOM      5  C   UNL     1       4.229   3.524  18.402  0.00  0.00    +0.000 A 
ATOM      6  S   UNL     1       3.331   3.935  19.803  0.00  0.00    +0.000 S 
ATOM      7  H   UNL     1       2.239   6.155  20.915  0.00  0.00    +0.000 HD
ENDROOT
BRANCH   1  13
ATOM      8  C   UNL     1      -0.221   9.697  23.263  0.00  0.00    +0.000 C 
ATOM      9  C   UNL     1      -0.158   9.242  21.811  0.00  0.00    +0.000 C 
ATOM     10  C   UNL     1       0.333  10.356  20.883  0.00  0.00    +0.000 C 
ATOM     11  C   UNL     1       0.794   9.634  19.630  0.00  0.00    +0.000 C 
ATOM     12  C   UNL     1       1.358   8.369  20.214  0.00  0.00    +0.000 C 
ATOM     13  N   UNL     1       2.213   7.674  19.534  0.00  0.00    +0.000 NA
ATOM     14  C   UNL     1       0.822   8.080  21.592  0.00  0.00    +0.000 C 
ENDBRANCH   1  13
BRANCH   4  15
ATOM     15  C   UNL     1       5.375   4.691  16.492  0.00  0.00    +0.000 A 
ATOM     16  C   UNL     1       6.668   5.238  16.503  0.00  0.00    +0.000 A 
ATOM     17  C   UNL     1       7.429   5.293  15.331  0.00  0.00    +0.000 A 
ATOM     18  C   UNL     1       6.903   4.801  14.140  0.00  0.00    +0.000 A 
ATOM     19 CL   UNL     1       7.834   4.889  12.694  0.00  0.00    +0.000 Cl
ATOM     20  C   UNL     1       5.625   4.250  14.107  0.00  0.00    +0.000 A 
ATOM     21  C   UNL     1       4.863   4.202  15.280  0.00  0.00    +0.000 A 
ENDBRANCH   4  15
TORSDOF 2
ENDMDL
MODEL 9
REMARK VINA RESULT:      -7.2      3.078      7.618
REMARK  Name = 
REMARK  3 active torsions:
REMARK  status: ('A' for Active; 'I' for Inactive)
REMARK    1  A    between atoms: C_1  and  C_2
REMARK    2  A    between atoms: N_6  and  N_7
REMARK    3  A    between atoms: C_10  and  C_11
REMARK                            x       y       z     vdW  Elec       q    Type
REMARK                         _______ _______ _______ _____ _____    ______ ____
ROOT
ATOM      1  N   UNL     1       1.875   7.534  20.552  0.00  0.00    +0.000 N 
ATOM      2  C   UNL     1       2.414   6.473  19.892  0.00  0.00    +0.000 A 
ATOM      3  N   UNL     1       3.096   6.522  18.767  0.00  0.00    +0.000 NA
ATOM      4  C   UNL     1       3.506   5.259  18.376  0.00  0.00    +0.000 A 
ATOM      5  C   UNL     1       3.058   4.236  19.186  0.00  0.00    +0.000 A 
ATOM      6  S   UNL     1       2.211   4.881  20.530  0.00  0.00    +0.000 S 
ATOM      7  H   UNL     1       1.390   7.309  21.416  0.00  0.00    +0.000 HD
ENDROOT
BRANCH   1  13
ATOM      8  C   UNL     1      -1.209  11.042  23.177  0.00  0.00    +0.000 C 
ATOM      9  C   UNL     1      -0.990  10.503  21.769  0.00  0.00    +0.000 C 
ATOM     10  C   UNL     1      -0.319  11.536  20.861  0.00  0.00    +0.000 C 
ATOM     11  C   UNL     1       0.253  10.721  19.714  0.00  0.00    +0.000 C 
ATOM     12  C   UNL     1       0.661   9.461  20.427  0.00  0.00    +0.000 C 
ATOM     13  N   UNL     1       1.551   8.684  19.900  0.00  0.00    +0.000 NA
ATOM     14  C   UNL     1      -0.063   9.280  21.737  0.00  0.00    +0.000 C 
ENDBRANCH   1  13
BRANCH   4  15
ATOM     15  C   UNL     1       4.342   5.074  17.193  0.00  0.00    +0.000 A 
ATOM     16  C   UNL     1       4.785   3.804  16.790  0.00  0.00    +0.000 A 
ATOM     17  C   UNL     1       5.622   3.660  15.679  0.00  0.00    +0.000 A 
ATOM     18  C   UNL     1       6.022   4.784  14.963  0.00  0.00    +0.000 A 
ATOM     19 CL   UNL     1       7.070   4.605  13.608  0.00  0.00    +0.000 Cl
ATOM     20  C   UNL     1       5.591   6.052  15.341  0.00  0.00    +0.000 A 
ATOM     21  C   UNL     1       4.758   6.195  16.457  0.00  0.00    +0.000 A 
ENDBRANCH   4  15
TORSDOF 2
ENDMDL
