MODEL 1
REMARK VINA RESULT:      -7.5      0.000      0.000
REMARK  Name = 
REMARK  8 active torsions:
REMARK  status: ('A' for Active; 'I' for Inactive)
REMARK    1  A    between atoms: C_1  and  C_2
REMARK    2  A    between atoms: C_2  and  O_4
REMARK    3  A    between atoms: O_4  and  C_5
REMARK    4  A    between atoms: C_8  and  C_9
REMARK    5  A    between atoms: C_17  and  C_18
REMARK    6  A    between atoms: C_20  and  C_21
REMARK    7  A    between atoms: C_30  and  C_31
REMARK    8  A    between atoms: C_32  and  C_33
REMARK                            x       y       z     vdW  Elec       q    Type
REMARK                         _______ _______ _______ _____ _____    ______ ____
ROOT
ATOM      1  C   UNL     1       0.045  16.035  19.539  0.00  0.00    +0.000 C 
ATOM      2  C   UNL     1      -0.942  15.275  20.437  0.00  0.00    +0.000 C 
ATOM      3  C   UNL     1      -1.301  13.848  20.004  0.00  0.00    +0.000 C 
ATOM      4  C   UNL     1      -0.276  12.888  19.247  0.00  0.00    +0.000 C 
ATOM      5  C   UNL     1       0.357  11.573  19.807  0.00  0.00    +0.000 C 
ATOM      6  C   UNL     1      -1.334  12.184  18.203  0.00  0.00    +0.000 C 
ATOM      7  C   UNL     1      -2.688  11.557  18.911  0.00  0.00    +0.000 C 
ATOM      8  C   UNL     1      -3.438  12.588  19.813  0.00  0.00    +0.000 C 
ATOM      9  C   UNL     1      -4.968  12.439  20.298  0.00  0.00    +0.000 C 
ATOM     10  C   UNL     1      -5.205  13.052  21.666  0.00  0.00    +0.000 C 
ATOM     11  C   UNL     1      -4.514  14.405  21.686  0.00  0.00    +0.000 C 
ATOM     12  C   UNL     1      -3.073  14.106  21.970  0.00  0.00    +0.000 C 
ATOM     13  C   UNL     1      -2.402  13.144  20.925  0.00  0.00    +0.000 C 
ATOM     14  C   UNL     1      -1.755  12.064  21.843  0.00  0.00    +0.000 C 
ATOM     15  C   UNL     1      -5.990  13.029  19.312  0.00  0.00    +0.000 C 
ATOM     16  C   UNL     1      -6.112  11.590  19.668  0.00  0.00    +0.000 C 
ATOM     17  C   UNL     1      -7.366  11.212  20.426  0.00  0.00    +0.000 C 
ATOM     18  C   UNL     1       1.026  13.797  18.721  0.00  0.00    +0.000 C 
ATOM     19  C   UNL     1       2.399  13.037  18.662  0.00  0.00    +0.000 C 
ATOM     20  C   UNL     1       3.523  13.797  17.949  0.00  0.00    +0.000 C 
ATOM     21  C   UNL     1       3.600  15.215  18.364  0.00  0.00    +0.000 C 
ATOM     22  C   UNL     1       2.592  15.870  18.935  0.00  0.00    +0.000 C 
ATOM     23  C   UNL     1       3.125  17.186  19.296  0.00  0.00    +0.000 C 
ATOM     24  O   UNL     1       2.516  18.078  19.828  0.00  0.00    +0.000 OA
ATOM     25  O   UNL     1       4.454  17.236  18.968  0.00  0.00    +0.000 OA
ATOM     26  C   UNL     1       4.876  15.955  18.507  0.00  0.00    +0.000 C 
ATOM     27  C   UNL     1       5.788  15.337  19.577  0.00  0.00    +0.000 C 
ATOM     28  C   UNL     1       1.347  15.198  19.509  0.00  0.00    +0.000 C 
ATOM     29  C   UNL     1       1.800  15.058  21.018  0.00  0.00    +0.000 C 
ENDROOT
BRANCH   1  30
ATOM     30  O   UNL     1      -0.456  16.267  18.203  0.00  0.00    +0.000 OA
BRANCH  30  32
ATOM     31  C   UNL     1       0.216  18.208  17.011  0.00  0.00    +0.000 C 
ATOM     32  C   UNL     1      -0.789  17.551  17.903  0.00  0.00    +0.000 C 
ATOM     33  O   UNL     1      -1.745  18.168  18.358  0.00  0.00    +0.000 OA
ENDBRANCH  30  32
ENDBRANCH   1  30
TORSDOF 2
ENDMDL
MODEL 2
REMARK VINA RESULT:      -6.7      1.234      1.507
REMARK  Name = 
REMARK  8 active torsions:
REMARK  status: ('A' for Active; 'I' for Inactive)
REMARK    1  A    between atoms: C_1  and  C_2
REMARK    2  A    between atoms: C_2  and  O_4
REMARK    3  A    between atoms: O_4  and  C_5
REMARK    4  A    between atoms: C_8  and  C_9
REMARK    5  A    between atoms: C_17  and  C_18
REMARK    6  A    between atoms: C_20  and  C_21
REMARK    7  A    between atoms: C_30  and  C_31
REMARK    8  A    between atoms: C_32  and  C_33
REMARK                            x       y       z     vdW  Elec       q    Type
REMARK                         _______ _______ _______ _____ _____    ______ ____
ROOT
ATOM      1  C   UNL     1      -0.031  16.340  19.854  0.00  0.00    +0.000 C 
ATOM      2  C   UNL     1      -0.859  15.861  21.056  0.00  0.00    +0.000 C 
ATOM      3  C   UNL     1      -1.421  14.436  20.974  0.00  0.00    +0.000 C 
ATOM      4  C   UNL     1      -0.670  13.249  20.219  0.00  0.00    +0.000 C 
ATOM      5  C   UNL     1      -0.042  11.976  20.874  0.00  0.00    +0.000 C 
ATOM      6  C   UNL     1      -1.985  12.518  19.556  0.00  0.00    +0.000 C 
ATOM      7  C   UNL     1      -3.199  12.182  20.623  0.00  0.00    +0.000 C 
ATOM      8  C   UNL     1      -3.646  13.429  21.450  0.00  0.00    +0.000 C 
ATOM      9  C   UNL     1      -5.041  13.546  22.250  0.00  0.00    +0.000 C 
ATOM     10  C   UNL     1      -4.922  14.398  23.501  0.00  0.00    +0.000 C 
ATOM     11  C   UNL     1      -4.133  15.643  23.132  0.00  0.00    +0.000 C 
ATOM     12  C   UNL     1      -2.695  15.222  23.173  0.00  0.00    +0.000 C 
ATOM     13  C   UNL     1      -2.350  14.030  22.211  0.00  0.00    +0.000 C 
ATOM     14  C   UNL     1      -1.611  13.043  23.165  0.00  0.00    +0.000 C 
ATOM     15  C   UNL     1      -6.200  14.087  21.396  0.00  0.00    +0.000 C 
ATOM     16  C   UNL     1      -6.362  12.751  22.029  0.00  0.00    +0.000 C 
ATOM     17  C   UNL     1      -7.448  12.655  23.078  0.00  0.00    +0.000 C 
ATOM     18  C   UNL     1       0.558  13.897  19.286  0.00  0.00    +0.000 C 
ATOM     19  C   UNL     1       1.817  12.978  19.094  0.00  0.00    +0.000 C 
ATOM     20  C   UNL     1       2.818  13.470  18.044  0.00  0.00    +0.000 C 
ATOM     21  C   UNL     1       3.101  14.917  18.166  0.00  0.00    +0.000 C 
ATOM     22  C   UNL     1       2.300  15.773  18.796  0.00  0.00    +0.000 C 
ATOM     23  C   UNL     1       3.007  17.056  18.793  0.00  0.00    +0.000 C 
ATOM     24  O   UNL     1       2.605  18.089  19.262  0.00  0.00    +0.000 OA
ATOM     25  O   UNL     1       4.232  16.891  18.203  0.00  0.00    +0.000 OA
ATOM     26  C   UNL     1       4.435  15.511  17.912  0.00  0.00    +0.000 C 
ATOM     27  C   UNL     1       5.503  14.970  18.874  0.00  0.00    +0.000 C 
ATOM     28  C   UNL     1       1.158  15.358  19.720  0.00  0.00    +0.000 C 
ATOM     29  C   UNL     1       1.916  15.413  21.108  0.00  0.00    +0.000 C 
ENDROOT
BRANCH   1  30
ATOM     30  O   UNL     1      -0.790  16.410  18.627  0.00  0.00    +0.000 OA
BRANCH  30  32
ATOM     31  C   UNL     1      -1.979  18.459  18.458  0.00  0.00    +0.000 C 
ATOM     32  C   UNL     1      -0.823  17.622  18.010  0.00  0.00    +0.000 C 
ATOM     33  O   UNL     1      -0.067  17.994  17.121  0.00  0.00    +0.000 OA
ENDBRANCH  30  32
ENDBRANCH   1  30
TORSDOF 2
ENDMDL
MODEL 3
REMARK VINA RESULT:      -6.5      7.725      9.708
REMARK  Name = 
REMARK  8 active torsions:
REMARK  status: ('A' for Active; 'I' for Inactive)
REMARK    1  A    between atoms: C_1  and  C_2
REMARK    2  A    between atoms: C_2  and  O_4
REMARK    3  A    between atoms: O_4  and  C_5
REMARK    4  A    between atoms: C_8  and  C_9
REMARK    5  A    between atoms: C_17  and  C_18
REMARK    6  A    between atoms: C_20  and  C_21
REMARK    7  A    between atoms: C_30  and  C_31
REMARK    8  A    between atoms: C_32  and  C_33
REMARK                            x       y       z     vdW  Elec       q    Type
REMARK                         _______ _______ _______ _____ _____    ______ ____
ROOT
ATOM      1  C   UNL     1       8.184  15.262  20.554  0.00  0.00    +0.000 C 
ATOM      2  C   UNL     1       8.234  15.811  21.988  0.00  0.00    +0.000 C 
ATOM      3  C   UNL     1       7.687  14.895  23.090  0.00  0.00    +0.000 C 
ATOM      4  C   UNL     1       7.787  13.304  23.024  0.00  0.00    +0.000 C 
ATOM      5  C   UNL     1       8.638  12.383  23.958  0.00  0.00    +0.000 C 
ATOM      6  C   UNL     1       6.314  12.946  23.661  0.00  0.00    +0.000 C 
ATOM      7  C   UNL     1       5.981  13.696  25.094  0.00  0.00    +0.000 C 
ATOM      8  C   UNL     1       6.169  15.244  25.030  0.00  0.00    +0.000 C 
ATOM      9  C   UNL     1       5.547  16.288  26.089  0.00  0.00    +0.000 C 
ATOM     10  C   UNL     1       6.428  17.509  26.287  0.00  0.00    +0.000 C 
ATOM     11  C   UNL     1       6.876  17.975  24.911  0.00  0.00    +0.000 C 
ATOM     12  C   UNL     1       8.030  17.088  24.554  0.00  0.00    +0.000 C 
ATOM     13  C   UNL     1       7.682  15.557  24.545  0.00  0.00    +0.000 C 
ATOM     14  C   UNL     1       8.812  14.958  25.436  0.00  0.00    +0.000 C 
ATOM     15  C   UNL     1       4.127  16.760  25.732  0.00  0.00    +0.000 C 
ATOM     16  C   UNL     1       4.334  16.098  27.048  0.00  0.00    +0.000 C 
ATOM     17  C   UNL     1       4.101  16.973  28.260  0.00  0.00    +0.000 C 
ATOM     18  C   UNL     1       8.222  12.856  21.473  0.00  0.00    +0.000 C 
ATOM     19  C   UNL     1       9.076  11.542  21.364  0.00  0.00    +0.000 C 
ATOM     20  C   UNL     1       9.255  11.008  19.939  0.00  0.00    +0.000 C 
ATOM     21  C   UNL     1       9.605  12.073  18.975  0.00  0.00    +0.000 C 
ATOM     22  C   UNL     1       9.378  13.366  19.193  0.00  0.00    +0.000 C 
ATOM     23  C   UNL     1       9.985  14.073  18.062  0.00  0.00    +0.000 C 
ATOM     24  O   UNL     1       9.984  15.264  17.887  0.00  0.00    +0.000 OA
ATOM     25  O   UNL     1      10.598  13.164  17.241  0.00  0.00    +0.000 OA
ATOM     26  C   UNL     1      10.534  11.871  17.838  0.00  0.00    +0.000 C 
ATOM     27  C   UNL     1      11.947  11.488  18.304  0.00  0.00    +0.000 C 
ATOM     28  C   UNL     1       9.014  13.956  20.553  0.00  0.00    +0.000 C 
ATOM     29  C   UNL     1      10.458  14.368  21.052  0.00  0.00    +0.000 C 
ENDROOT
BRANCH   1  30
ATOM     30  O   UNL     1       6.840  15.025  20.078  0.00  0.00    +0.000 OA
BRANCH  30  32
ATOM     31  C   UNL     1       6.142  14.650  17.839  0.00  0.00    +0.000 C 
ATOM     32  C   UNL     1       6.503  15.632  18.908  0.00  0.00    +0.000 C 
ATOM     33  O   UNL     1       6.559  16.835  18.683  0.00  0.00    +0.000 OA
ENDBRANCH  30  32
ENDBRANCH   1  30
TORSDOF 2
ENDMDL
MODEL 4
REMARK VINA RESULT:      -6.2      3.761      7.250
REMARK  Name = 
REMARK  8 active torsions:
REMARK  status: ('A' for Active; 'I' for Inactive)
REMARK    1  A    between atoms: C_1  and  C_2
REMARK    2  A    between atoms: C_2  and  O_4
REMARK    3  A    between atoms: O_4  and  C_5
REMARK    4  A    between atoms: C_8  and  C_9
REMARK    5  A    between atoms: C_17  and  C_18
REMARK    6  A    between atoms: C_20  and  C_21
REMARK    7  A    between atoms: C_30  and  C_31
REMARK    8  A    between atoms: C_32  and  C_33
REMARK                            x       y       z     vdW  Elec       q    Type
REMARK                         _______ _______ _______ _____ _____    ______ ____
ROOT
ATOM      1  C   UNL     1      -3.909  12.994  21.885  0.00  0.00    +0.000 C 
ATOM      2  C   UNL     1      -2.574  12.237  21.948  0.00  0.00    +0.000 C 
ATOM      3  C   UNL     1      -1.490  12.680  20.957  0.00  0.00    +0.000 C 
ATOM      4  C   UNL     1      -1.332  14.187  20.461  0.00  0.00    +0.000 C 
ATOM      5  C   UNL     1      -0.142  15.152  20.773  0.00  0.00    +0.000 C 
ATOM      6  C   UNL     1      -0.950  13.883  18.890  0.00  0.00    +0.000 C 
ATOM      7  C   UNL     1       0.285  12.807  18.677  0.00  0.00    +0.000 C 
ATOM      8  C   UNL     1       0.061  11.463  19.439  0.00  0.00    +0.000 C 
ATOM      9  C   UNL     1       0.839  10.088  19.119  0.00  0.00    +0.000 C 
ATOM     10  C   UNL     1       1.045   9.236  20.359  0.00  0.00    +0.000 C 
ATOM     11  C   UNL     1      -0.267   9.225  21.127  0.00  0.00    +0.000 C 
ATOM     12  C   UNL     1      -0.279  10.508  21.901  0.00  0.00    +0.000 C 
ATOM     13  C   UNL     1      -0.160  11.794  21.008  0.00  0.00    +0.000 C 
ATOM     14  C   UNL     1       1.001  12.568  21.703  0.00  0.00    +0.000 C 
ATOM     15  C   UNL     1       0.159   9.228  18.040  0.00  0.00    +0.000 C 
ATOM     16  C   UNL     1       1.564   9.659  17.809  0.00  0.00    +0.000 C 
ATOM     17  C   UNL     1       2.587   8.545  17.763  0.00  0.00    +0.000 C 
ATOM     18  C   UNL     1      -2.701  15.044  20.896  0.00  0.00    +0.000 C 
ATOM     19  C   UNL     1      -2.475  16.568  21.202  0.00  0.00    +0.000 C 
ATOM     20  C   UNL     1      -3.759  17.390  21.354  0.00  0.00    +0.000 C 
ATOM     21  C   UNL     1      -4.766  16.716  22.202  0.00  0.00    +0.000 C 
ATOM     22  C   UNL     1      -4.763  15.408  22.450  0.00  0.00    +0.000 C 
ATOM     23  C   UNL     1      -5.836  15.184  23.421  0.00  0.00    +0.000 C 
ATOM     24  O   UNL     1      -6.159  14.123  23.890  0.00  0.00    +0.000 OA
ATOM     25  O   UNL     1      -6.401  16.388  23.750  0.00  0.00    +0.000 OA
ATOM     26  C   UNL     1      -5.668  17.440  23.129  0.00  0.00    +0.000 C 
ATOM     27  C   UNL     1      -4.894  18.195  24.220  0.00  0.00    +0.000 C 
ATOM     28  C   UNL     1      -3.584  14.483  22.158  0.00  0.00    +0.000 C 
ATOM     29  C   UNL     1      -2.874  14.513  23.571  0.00  0.00    +0.000 C 
ENDROOT
BRANCH   1  30
ATOM     30  O   UNL     1      -4.600  12.834  20.626  0.00  0.00    +0.000 OA
BRANCH  30  32
ATOM     31  C   UNL     1      -6.790  13.468  19.959  0.00  0.00    +0.000 C 
ATOM     32  C   UNL     1      -5.918  12.506  20.703  0.00  0.00    +0.000 C 
ATOM     33  O   UNL     1      -6.391  11.591  21.366  0.00  0.00    +0.000 OA
ENDBRANCH  30  32
ENDBRANCH   1  30
TORSDOF 2
ENDMDL
MODEL 5
REMARK VINA RESULT:      -6.1      2.434      4.474
REMARK  Name = 
REMARK  8 active torsions:
REMARK  status: ('A' for Active; 'I' for Inactive)
REMARK    1  A    between atoms: C_1  and  C_2
REMARK    2  A    between atoms: C_2  and  O_4
REMARK    3  A    between atoms: O_4  and  C_5
REMARK    4  A    between atoms: C_8  and  C_9
REMARK    5  A    between atoms: C_17  and  C_18
REMARK    6  A    between atoms: C_20  and  C_21
REMARK    7  A    between atoms: C_30  and  C_31
REMARK    8  A    between atoms: C_32  and  C_33
REMARK                            x       y       z     vdW  Elec       q    Type
REMARK                         _______ _______ _______ _____ _____    ______ ____
ROOT
ATOM      1  C   UNL     1      -0.183  12.899  20.232  0.00  0.00    +0.000 C 
ATOM      2  C   UNL     1      -1.677  13.252  20.210  0.00  0.00    +0.000 C 
ATOM      3  C   UNL     1      -2.160  14.251  21.269  0.00  0.00    +0.000 C 
ATOM      4  C   UNL     1      -1.246  15.435  21.825  0.00  0.00    +0.000 C 
ATOM      5  C   UNL     1      -1.469  16.966  21.607  0.00  0.00    +0.000 C 
ATOM      6  C   UNL     1      -1.712  15.376  23.401  0.00  0.00    +0.000 C 
ATOM      7  C   UNL     1      -3.346  15.410  23.638  0.00  0.00    +0.000 C 
ATOM      8  C   UNL     1      -4.104  14.318  22.820  0.00  0.00    +0.000 C 
ATOM      9  C   UNL     1      -5.604  13.817  23.131  0.00  0.00    +0.000 C 
ATOM     10  C   UNL     1      -6.350  13.406  21.874  0.00  0.00    +0.000 C 
ATOM     11  C   UNL     1      -5.405  12.555  21.041  0.00  0.00    +0.000 C 
ATOM     12  C   UNL     1      -4.536  13.534  20.313  0.00  0.00    +0.000 C 
ATOM     13  C   UNL     1      -3.738  14.505  21.255  0.00  0.00    +0.000 C 
ATOM     14  C   UNL     1      -4.074  15.900  20.647  0.00  0.00    +0.000 C 
ATOM     15  C   UNL     1      -5.674  12.662  24.144  0.00  0.00    +0.000 C 
ATOM     16  C   UNL     1      -6.410  13.915  24.461  0.00  0.00    +0.000 C 
ATOM     17  C   UNL     1      -7.916  13.787  24.519  0.00  0.00    +0.000 C 
ATOM     18  C   UNL     1       0.335  15.162  21.350  0.00  0.00    +0.000 C 
ATOM     19  C   UNL     1       1.199  16.452  21.110  0.00  0.00    +0.000 C 
ATOM     20  C   UNL     1       2.698  16.195  20.922  0.00  0.00    +0.000 C 
ATOM     21  C   UNL     1       2.968  15.069  20.002  0.00  0.00    +0.000 C 
ATOM     22  C   UNL     1       2.075  14.127  19.709  0.00  0.00    +0.000 C 
ATOM     23  C   UNL     1       2.698  13.293  18.678  0.00  0.00    +0.000 C 
ATOM     24  O   UNL     1       2.209  12.325  18.156  0.00  0.00    +0.000 OA
ATOM     25  O   UNL     1       3.925  13.813  18.362  0.00  0.00    +0.000 OA
ATOM     26  C   UNL     1       4.110  15.045  19.056  0.00  0.00    +0.000 C 
ATOM     27  C   UNL     1       4.039  16.187  18.032  0.00  0.00    +0.000 C 
ATOM     28  C   UNL     1       0.585  14.228  20.028  0.00  0.00    +0.000 C 
ATOM     29  C   UNL     1       0.065  14.815  18.654  0.00  0.00    +0.000 C 
ENDROOT
BRANCH   1  30
ATOM     30  O   UNL     1       0.233  12.239  21.448  0.00  0.00    +0.000 OA
BRANCH  30  32
ATOM     31  C   UNL     1      -1.048  10.951  22.977  0.00  0.00    +0.000 C 
ATOM     32  C   UNL     1      -0.307  11.012  21.679  0.00  0.00    +0.000 C 
ATOM     33  O   UNL     1      -0.156  10.020  20.978  0.00  0.00    +0.000 OA
ENDBRANCH  30  32
ENDBRANCH   1  30
TORSDOF 2
ENDMDL
MODEL 6
REMARK VINA RESULT:      -6.1      3.024      6.094
REMARK  Name = 
REMARK  8 active torsions:
REMARK  status: ('A' for Active; 'I' for Inactive)
REMARK    1  A    between atoms: C_1  and  C_2
REMARK    2  A    between atoms: C_2  and  O_4
REMARK    3  A    between atoms: O_4  and  C_5
REMARK    4  A    between atoms: C_8  and  C_9
REMARK    5  A    between atoms: C_17  and  C_18
REMARK    6  A    between atoms: C_20  and  C_21
REMARK    7  A    between atoms: C_30  and  C_31
REMARK    8  A    between atoms: C_32  and  C_33
REMARK                            x       y       z     vdW  Elec       q    Type
REMARK                         _______ _______ _______ _____ _____    ______ ____
ROOT
ATOM      1  C   UNL     1       2.199  13.629  20.069  0.00  0.00    +0.000 C 
ATOM      2  C   UNL     1       1.895  12.363  19.253  0.00  0.00    +0.000 C 
ATOM      3  C   UNL     1       0.954  11.340  19.903  0.00  0.00    +0.000 C 
ATOM      4  C   UNL     1      -0.236  11.755  20.880  0.00  0.00    +0.000 C 
ATOM      5  C   UNL     1      -1.767  11.609  20.600  0.00  0.00    +0.000 C 
ATOM      6  C   UNL     1      -0.101  10.520  21.958  0.00  0.00    +0.000 C 
ATOM      7  C   UNL     1      -0.072   9.014  21.282  0.00  0.00    +0.000 C 
ATOM      8  C   UNL     1       1.012   8.867  20.168  0.00  0.00    +0.000 C 
ATOM      9  C   UNL     1       1.574   7.461  19.616  0.00  0.00    +0.000 C 
ATOM     10  C   UNL     1       1.960   7.525  18.149  0.00  0.00    +0.000 C 
ATOM     11  C   UNL     1       2.746   8.809  17.941  0.00  0.00    +0.000 C 
ATOM     12  C   UNL     1       1.711   9.885  17.809  0.00  0.00    +0.000 C 
ATOM     13  C   UNL     1       0.752  10.005  19.046  0.00  0.00    +0.000 C 
ATOM     14  C   UNL     1      -0.654   9.980  18.375  0.00  0.00    +0.000 C 
ATOM     15  C   UNL     1       2.770   6.915  20.415  0.00  0.00    +0.000 C 
ATOM     16  C   UNL     1       1.555   6.064  20.306  0.00  0.00    +0.000 C 
ATOM     17  C   UNL     1       1.734   4.769  19.545  0.00  0.00    +0.000 C 
ATOM     18  C   UNL     1      -0.035  13.355  21.325  0.00  0.00    +0.000 C 
ATOM     19  C   UNL     1      -1.360  14.149  21.606  0.00  0.00    +0.000 C 
ATOM     20  C   UNL     1      -1.160  15.526  22.248  0.00  0.00    +0.000 C 
ATOM     21  C   UNL     1      -0.081  16.302  21.600  0.00  0.00    +0.000 C 
ATOM     22  C   UNL     1       0.878  15.752  20.859  0.00  0.00    +0.000 C 
ATOM     23  C   UNL     1       1.650  16.870  20.311  0.00  0.00    +0.000 C 
ATOM     24  O   UNL     1       2.613  16.785  19.594  0.00  0.00    +0.000 OA
ATOM     25  O   UNL     1       1.077  18.048  20.712  0.00  0.00    +0.000 OA
ATOM     26  C   UNL     1      -0.131  17.772  21.415  0.00  0.00    +0.000 C 
ATOM     27  C   UNL     1      -1.310  18.205  20.531  0.00  0.00    +0.000 C 
ATOM     28  C   UNL     1       0.838  14.320  20.329  0.00  0.00    +0.000 C 
ATOM     29  C   UNL     1       0.215  14.590  18.901  0.00  0.00    +0.000 C 
ENDROOT
BRANCH   1  30
ATOM     30  O   UNL     1       2.892  13.360  21.308  0.00  0.00    +0.000 OA
BRANCH  30  32
ATOM     31  C   UNL     1       4.819  14.648  20.791  0.00  0.00    +0.000 C 
ATOM     32  C   UNL     1       3.719  14.342  21.758  0.00  0.00    +0.000 C 
ATOM     33  O   UNL     1       3.660  14.879  22.857  0.00  0.00    +0.000 OA
ENDBRANCH  30  32
ENDBRANCH   1  30
TORSDOF 2
ENDMDL
MODEL 7
REMARK VINA RESULT:      -6.0      1.409      1.547
REMARK  Name = 
REMARK  8 active torsions:
REMARK  status: ('A' for Active; 'I' for Inactive)
REMARK    1  A    between atoms: C_1  and  C_2
REMARK    2  A    between atoms: C_2  and  O_4
REMARK    3  A    between atoms: O_4  and  C_5
REMARK    4  A    between atoms: C_8  and  C_9
REMARK    5  A    between atoms: C_17  and  C_18
REMARK    6  A    between atoms: C_20  and  C_21
REMARK    7  A    between atoms: C_30  and  C_31
REMARK    8  A    between atoms: C_32  and  C_33
REMARK                            x       y       z     vdW  Elec       q    Type
REMARK                         _______ _______ _______ _____ _____    ______ ____
ROOT
ATOM      1  C   UNL     1       1.274  16.127  20.725  0.00  0.00    +0.000 C 
ATOM      2  C   UNL     1       0.322  15.127  21.398  0.00  0.00    +0.000 C 
ATOM      3  C   UNL     1      -0.225  14.001  20.511  0.00  0.00    +0.000 C 
ATOM      4  C   UNL     1       0.606  13.363  19.309  0.00  0.00    +0.000 C 
ATOM      5  C   UNL     1       1.162  11.904  19.230  0.00  0.00    +0.000 C 
ATOM      6  C   UNL     1      -0.628  13.176  18.238  0.00  0.00    +0.000 C 
ATOM      7  C   UNL     1      -1.950  12.390  18.840  0.00  0.00    +0.000 C 
ATOM      8  C   UNL     1      -2.486  13.023  20.163  0.00  0.00    +0.000 C 
ATOM      9  C   UNL     1      -3.959  12.772  20.767  0.00  0.00    +0.000 C 
ATOM     10  C   UNL     1      -3.978  12.814  22.285  0.00  0.00    +0.000 C 
ATOM     11  C   UNL     1      -3.156  14.017  22.719  0.00  0.00    +0.000 C 
ATOM     12  C   UNL     1      -1.730  13.559  22.659  0.00  0.00    +0.000 C 
ATOM     13  C   UNL     1      -1.281  13.049  21.243  0.00  0.00    +0.000 C 
ATOM     14  C   UNL     1      -0.647  11.666  21.579  0.00  0.00    +0.000 C 
ATOM     15  C   UNL     1      -5.021  13.750  20.237  0.00  0.00    +0.000 C 
ATOM     16  C   UNL     1      -5.247  12.294  20.033  0.00  0.00    +0.000 C 
ATOM     17  C   UNL     1      -6.439  11.713  20.760  0.00  0.00    +0.000 C 
ATOM     18  C   UNL     1       1.926  14.340  18.988  0.00  0.00    +0.000 C 
ATOM     19  C   UNL     1       3.200  13.596  18.449  0.00  0.00    +0.000 C 
ATOM     20  C   UNL     1       4.308  14.518  17.926  0.00  0.00    +0.000 C 
ATOM     21  C   UNL     1       4.573  15.656  18.833  0.00  0.00    +0.000 C 
ATOM     22  C   UNL     1       3.706  16.085  19.748  0.00  0.00    +0.000 C 
ATOM     23  C   UNL     1       4.407  17.128  20.501  0.00  0.00    +0.000 C 
ATOM     24  O   UNL     1       3.954  17.771  21.413  0.00  0.00    +0.000 OA
ATOM     25  O   UNL     1       5.689  17.236  20.031  0.00  0.00    +0.000 OA
ATOM     26  C   UNL     1       5.925  16.217  19.063  0.00  0.00    +0.000 C 
ATOM     27  C   UNL     1       6.885  15.186  19.676  0.00  0.00    +0.000 C 
ATOM     28  C   UNL     1       2.473  15.305  20.194  0.00  0.00    +0.000 C 
ATOM     29  C   UNL     1       3.076  14.565  21.456  0.00  0.00    +0.000 C 
ENDROOT
BRANCH   1  30
ATOM     30  O   UNL     1       0.652  16.886  19.664  0.00  0.00    +0.000 OA
BRANCH  30  32
ATOM     31  C   UNL     1      -1.651  17.306  19.261  0.00  0.00    +0.000 C 
ATOM     32  C   UNL     1      -0.411  17.656  20.022  0.00  0.00    +0.000 C 
ATOM     33  O   UNL     1      -0.382  18.597  20.805  0.00  0.00    +0.000 OA
ENDBRANCH  30  32
ENDBRANCH   1  30
TORSDOF 2
ENDMDL
MODEL 8
REMARK VINA RESULT:      -6.0      1.552      1.863
REMARK  Name = 
REMARK  8 active torsions:
REMARK  status: ('A' for Active; 'I' for Inactive)
REMARK    1  A    between atoms: C_1  and  C_2
REMARK    2  A    between atoms: C_2  and  O_4
REMARK    3  A    between atoms: O_4  and  C_5
REMARK    4  A    between atoms: C_8  and  C_9
REMARK    5  A    between atoms: C_17  and  C_18
REMARK    6  A    between atoms: C_20  and  C_21
REMARK    7  A    between atoms: C_30  and  C_31
REMARK    8  A    between atoms: C_32  and  C_33
REMARK                            x       y       z     vdW  Elec       q    Type
REMARK                         _______ _______ _______ _____ _____    ______ ____
ROOT
ATOM      1  C   UNL     1       0.348  16.216  20.574  0.00  0.00    +0.000 C 
ATOM      2  C   UNL     1      -0.381  15.493  21.717  0.00  0.00    +0.000 C 
ATOM      3  C   UNL     1      -1.129  14.206  21.344  0.00  0.00    +0.000 C 
ATOM      4  C   UNL     1      -0.635  13.219  20.193  0.00  0.00    +0.000 C 
ATOM      5  C   UNL     1      -0.101  11.761  20.379  0.00  0.00    +0.000 C 
ATOM      6  C   UNL     1      -2.105  12.826  19.569  0.00  0.00    +0.000 C 
ATOM      7  C   UNL     1      -3.212  12.313  20.681  0.00  0.00    +0.000 C 
ATOM      8  C   UNL     1      -3.389  13.309  21.870  0.00  0.00    +0.000 C 
ATOM      9  C   UNL     1      -4.648  13.321  22.876  0.00  0.00    +0.000 C 
ATOM     10  C   UNL     1      -4.268  13.769  24.276  0.00  0.00    +0.000 C 
ATOM     11  C   UNL     1      -3.376  14.992  24.136  0.00  0.00    +0.000 C 
ATOM     12  C   UNL     1      -2.011  14.449  23.842  0.00  0.00    +0.000 C 
ATOM     13  C   UNL     1      -1.943  13.552  22.555  0.00  0.00    +0.000 C 
ATOM     14  C   UNL     1      -1.226  12.273  23.085  0.00  0.00    +0.000 C 
ATOM     15  C   UNL     1      -5.824  14.183  22.387  0.00  0.00    +0.000 C 
ATOM     16  C   UNL     1      -6.078  12.742  22.656  0.00  0.00    +0.000 C 
ATOM     17  C   UNL     1      -7.030  12.451  23.796  0.00  0.00    +0.000 C 
ATOM     18  C   UNL     1       0.542  13.991  19.290  0.00  0.00    +0.000 C 
ATOM     19  C   UNL     1       1.639  13.054  18.668  0.00  0.00    +0.000 C 
ATOM     20  C   UNL     1       2.559  13.732  17.647  0.00  0.00    +0.000 C 
ATOM     21  C   UNL     1       3.039  15.053  18.106  0.00  0.00    +0.000 C 
ATOM     22  C   UNL     1       2.438  15.765  19.057  0.00  0.00    +0.000 C 
ATOM     23  C   UNL     1       3.299  16.927  19.290  0.00  0.00    +0.000 C 
ATOM     24  O   UNL     1       3.094  17.817  20.074  0.00  0.00    +0.000 OA
ATOM     25  O   UNL     1       4.411  16.826  18.496  0.00  0.00    +0.000 OA
ATOM     26  C   UNL     1       4.397  15.573  17.819  0.00  0.00    +0.000 C 
ATOM     27  C   UNL     1       5.497  14.688  18.425  0.00  0.00    +0.000 C 
ATOM     28  C   UNL     1       1.375  15.209  20.002  0.00  0.00    +0.000 C 
ATOM     29  C   UNL     1       2.298  14.801  21.220  0.00  0.00    +0.000 C 
ENDROOT
BRANCH   1  30
ATOM     30  O   UNL     1      -0.541  16.698  19.542  0.00  0.00    +0.000 OA
BRANCH  30  32
ATOM     31  C   UNL     1      -2.317  18.108  18.838  0.00  0.00    +0.000 C 
ATOM     32  C   UNL     1      -1.226  17.839  19.825  0.00  0.00    +0.000 C 
ATOM     33  O   UNL     1      -0.959  18.631  20.720  0.00  0.00    +0.000 OA
ENDBRANCH  30  32
ENDBRANCH   1  30
TORSDOF 2
ENDMDL
MODEL 9
REMARK VINA RESULT:      -6.0      3.653      8.934
REMARK  Name = 
REMARK  8 active torsions:
REMARK  status: ('A' for Active; 'I' for Inactive)
REMARK    1  A    between atoms: C_1  and  C_2
REMARK    2  A    between atoms: C_2  and  O_4
REMARK    3  A    between atoms: O_4  and  C_5
REMARK    4  A    between atoms: C_8  and  C_9
REMARK    5  A    between atoms: C_17  and  C_18
REMARK    6  A    between atoms: C_20  and  C_21
REMARK    7  A    between atoms: C_30  and  C_31
REMARK    8  A    between atoms: C_32  and  C_33
REMARK                            x       y       z     vdW  Elec       q    Type
REMARK                         _______ _______ _______ _____ _____    ______ ____
ROOT
ATOM      1  C   UNL     1       3.126  14.278  20.824  0.00  0.00    +0.000 C 
ATOM      2  C   UNL     1       4.569  14.443  21.321  0.00  0.00    +0.000 C 
ATOM      3  C   UNL     1       5.626  14.768  20.258  0.00  0.00    +0.000 C 
ATOM      4  C   UNL     1       5.309  15.637  18.958  0.00  0.00    +0.000 C 
ATOM      5  C   UNL     1       5.869  17.058  18.626  0.00  0.00    +0.000 C 
ATOM      6  C   UNL     1       6.221  14.794  17.880  0.00  0.00    +0.000 C 
ATOM      7  C   UNL     1       7.785  14.543  18.347  0.00  0.00    +0.000 C 
ATOM      8  C   UNL     1       7.902  13.895  19.762  0.00  0.00    +0.000 C 
ATOM      9  C   UNL     1       9.219  13.155  20.325  0.00  0.00    +0.000 C 
ATOM     10  C   UNL     1       9.374  13.310  21.827  0.00  0.00    +0.000 C 
ATOM     11  C   UNL     1       8.014  13.056  22.455  0.00  0.00    +0.000 C 
ATOM     12  C   UNL     1       7.267  14.347  22.308  0.00  0.00    +0.000 C 
ATOM     13  C   UNL     1       7.120  14.835  20.823  0.00  0.00    +0.000 C 
ATOM     14  C   UNL     1       7.619  16.309  20.911  0.00  0.00    +0.000 C 
ATOM     15  C   UNL     1       9.284  11.658  19.977  0.00  0.00    +0.000 C 
ATOM     16  C   UNL     1      10.403  12.530  19.528  0.00  0.00    +0.000 C 
ATOM     17  C   UNL     1      11.749  12.235  20.153  0.00  0.00    +0.000 C 
ATOM     18  C   UNL     1       3.651  15.785  18.801  0.00  0.00    +0.000 C 
ATOM     19  C   UNL     1       3.153  17.117  18.133  0.00  0.00    +0.000 C 
ATOM     20  C   UNL     1       1.664  17.135  17.769  0.00  0.00    +0.000 C 
ATOM     21  C   UNL     1       0.808  16.612  18.856  0.00  0.00    +0.000 C 
ATOM     22  C   UNL     1       1.259  15.833  19.836  0.00  0.00    +0.000 C 
ATOM     23  C   UNL     1       0.130  15.654  20.753  0.00  0.00    +0.000 C 
ATOM     24  O   UNL     1       0.134  15.001  21.765  0.00  0.00    +0.000 OA
ATOM     25  O   UNL     1      -0.936  16.385  20.300  0.00  0.00    +0.000 OA
ATOM     26  C   UNL     1      -0.535  17.155  19.169  0.00  0.00    +0.000 C 
ATOM     27  C   UNL     1      -0.480  18.631  19.590  0.00  0.00    +0.000 C 
ATOM     28  C   UNL     1       2.737  15.617  20.151  0.00  0.00    +0.000 C 
ATOM     29  C   UNL     1       2.930  16.726  21.262  0.00  0.00    +0.000 C 
ENDROOT
BRANCH   1  30
ATOM     30  O   UNL     1       2.956  13.169  19.913  0.00  0.00    +0.000 OA
BRANCH  30  32
ATOM     31  C   UNL     1       1.121  12.098  18.853  0.00  0.00    +0.000 C 
ATOM     32  C   UNL     1       1.862  12.387  20.119  0.00  0.00    +0.000 C 
ATOM     33  O   UNL     1       1.445  12.012  21.208  0.00  0.00    +0.000 OA
ENDBRANCH  30  32
ENDBRANCH   1  30
TORSDOF 2
ENDMDL
