MODEL 1
REMARK VINA RESULT:      -6.5      0.000      0.000
REMARK  Name = 
REMARK  2 active torsions:
REMARK  status: ('A' for Active; 'I' for Inactive)
REMARK    1  A    between atoms: C_7  and  C_8
REMARK    2  A    between atoms: C_8  and  C_9
REMARK                            x       y       z     vdW  Elec       q    Type
REMARK                         _______ _______ _______ _____ _____    ______ ____
ROOT
ATOM      1  O   UNL     1       6.491   5.528  14.578  0.00  0.00    +0.000 OA
ATOM      2  C   UNL     1       6.497   5.234  15.769  0.00  0.00    +0.000 C 
ATOM      3  O   UNL     1       7.640   4.866  16.399  0.00  0.00    +0.000 OA
ATOM      4  C   UNL     1       7.639   4.655  17.819  0.00  0.00    +0.000 C 
ATOM      5  C   UNL     1       6.844   5.732  18.523  0.00  0.00    +0.000 C 
ATOM      6  C   UNL     1       5.439   5.890  17.948  0.00  0.00    +0.000 C 
ATOM      7  C   UNL     1       5.230   5.204  16.596  0.00  0.00    +0.000 C 
ENDROOT
BRANCH   7   8
ATOM      8  C   UNL     1       4.709   3.756  16.656  0.00  0.00    +0.000 C 
BRANCH   8   9
ATOM      9  C   UNL     1       3.637   3.524  17.692  0.00  0.00    +0.000 A 
ATOM     10  C   UNL     1       3.920   2.814  18.866  0.00  0.00    +0.000 A 
ATOM     11  C   UNL     1       2.923   2.595  19.819  0.00  0.00    +0.000 A 
ATOM     12  C   UNL     1       1.636   3.091  19.613  0.00  0.00    +0.000 A 
ATOM     13  C   UNL     1       1.345   3.803  18.452  0.00  0.00    +0.000 A 
ATOM     14  C   UNL     1       2.340   4.022  17.497  0.00  0.00    +0.000 A 
ENDBRANCH   8   9
ENDBRANCH   7   8
TORSDOF 2
ENDMDL
MODEL 2
REMARK VINA RESULT:      -6.5      1.713      2.493
REMARK  Name = 
REMARK  2 active torsions:
REMARK  status: ('A' for Active; 'I' for Inactive)
REMARK    1  A    between atoms: C_7  and  C_8
REMARK    2  A    between atoms: C_8  and  C_9
REMARK                            x       y       z     vdW  Elec       q    Type
REMARK                         _______ _______ _______ _____ _____    ______ ____
ROOT
ATOM      1  O   UNL     1       5.901   3.957  19.335  0.00  0.00    +0.000 OA
ATOM      2  C   UNL     1       5.743   4.582  18.291  0.00  0.00    +0.000 C 
ATOM      3  O   UNL     1       6.441   5.717  18.035  0.00  0.00    +0.000 OA
ATOM      4  C   UNL     1       6.330   6.351  16.752  0.00  0.00    +0.000 C 
ATOM      5  C   UNL     1       6.353   5.327  15.641  0.00  0.00    +0.000 C 
ATOM      6  C   UNL     1       5.319   4.222  15.844  0.00  0.00    +0.000 C 
ATOM      7  C   UNL     1       4.723   4.168  17.253  0.00  0.00    +0.000 C 
ENDROOT
BRANCH   7   8
ATOM      8  C   UNL     1       3.436   4.986  17.464  0.00  0.00    +0.000 C 
BRANCH   8   9
ATOM      9  C   UNL     1       2.466   4.375  18.445  0.00  0.00    +0.000 A 
ATOM     10  C   UNL     1       2.218   4.989  19.680  0.00  0.00    +0.000 A 
ATOM     11  C   UNL     1       1.325   4.417  20.588  0.00  0.00    +0.000 A 
ATOM     12  C   UNL     1       0.665   3.232  20.269  0.00  0.00    +0.000 A 
ATOM     13  C   UNL     1       0.900   2.616  19.042  0.00  0.00    +0.000 A 
ATOM     14  C   UNL     1       1.794   3.185  18.133  0.00  0.00    +0.000 A 
ENDBRANCH   8   9
ENDBRANCH   7   8
TORSDOF 2
ENDMDL
MODEL 3
REMARK VINA RESULT:      -6.5      1.821      2.528
REMARK  Name = 
REMARK  2 active torsions:
REMARK  status: ('A' for Active; 'I' for Inactive)
REMARK    1  A    between atoms: C_7  and  C_8
REMARK    2  A    between atoms: C_8  and  C_9
REMARK                            x       y       z     vdW  Elec       q    Type
REMARK                         _______ _______ _______ _____ _____    ______ ____
ROOT
ATOM      1  O   UNL     1       5.668   3.655  19.392  0.00  0.00    +0.000 OA
ATOM      2  C   UNL     1       5.633   4.469  18.474  0.00  0.00    +0.000 C 
ATOM      3  O   UNL     1       6.363   5.611  18.516  0.00  0.00    +0.000 OA
ATOM      4  C   UNL     1       6.401   6.478  17.372  0.00  0.00    +0.000 C 
ATOM      5  C   UNL     1       6.542   5.680  16.096  0.00  0.00    +0.000 C 
ATOM      6  C   UNL     1       5.484   4.586  15.972  0.00  0.00    +0.000 C 
ATOM      7  C   UNL     1       4.734   4.286  17.271  0.00  0.00    +0.000 C 
ENDROOT
BRANCH   7   8
ATOM      8  C   UNL     1       3.436   5.085  17.493  0.00  0.00    +0.000 C 
BRANCH   8   9
ATOM      9  C   UNL     1       2.461   4.436  18.442  0.00  0.00    +0.000 A 
ATOM     10  C   UNL     1       1.837   3.227  18.108  0.00  0.00    +0.000 A 
ATOM     11  C   UNL     1       0.929   2.631  18.986  0.00  0.00    +0.000 A 
ATOM     12  C   UNL     1       0.642   3.232  20.211  0.00  0.00    +0.000 A 
ATOM     13  C   UNL     1       1.261   4.432  20.556  0.00  0.00    +0.000 A 
ATOM     14  C   UNL     1       2.169   5.030  19.679  0.00  0.00    +0.000 A 
ENDBRANCH   8   9
ENDBRANCH   7   8
TORSDOF 2
ENDMDL
MODEL 4
REMARK VINA RESULT:      -6.4      0.549      1.393
REMARK  Name = 
REMARK  2 active torsions:
REMARK  status: ('A' for Active; 'I' for Inactive)
REMARK    1  A    between atoms: C_7  and  C_8
REMARK    2  A    between atoms: C_8  and  C_9
REMARK                            x       y       z     vdW  Elec       q    Type
REMARK                         _______ _______ _______ _____ _____    ______ ____
ROOT
ATOM      1  O   UNL     1       6.984   4.806  14.369  0.00  0.00    +0.000 OA
ATOM      2  C   UNL     1       6.823   4.818  15.585  0.00  0.00    +0.000 C 
ATOM      3  O   UNL     1       7.848   4.565  16.435  0.00  0.00    +0.000 OA
ATOM      4  C   UNL     1       7.659   4.716  17.850  0.00  0.00    +0.000 C 
ATOM      5  C   UNL     1       6.873   5.970  18.158  0.00  0.00    +0.000 C 
ATOM      6  C   UNL     1       5.564   6.045  17.376  0.00  0.00    +0.000 C 
ATOM      7  C   UNL     1       5.467   5.054  16.214  0.00  0.00    +0.000 C 
ENDROOT
BRANCH   7   8
ATOM      8  C   UNL     1       4.829   3.693  16.549  0.00  0.00    +0.000 C 
BRANCH   8   9
ATOM      9  C   UNL     1       3.818   3.740  17.667  0.00  0.00    +0.000 A 
ATOM     10  C   UNL     1       2.508   4.176  17.427  0.00  0.00    +0.000 A 
ATOM     11  C   UNL     1       1.577   4.225  18.466  0.00  0.00    +0.000 A 
ATOM     12  C   UNL     1       1.940   3.830  19.753  0.00  0.00    +0.000 A 
ATOM     13  C   UNL     1       3.239   3.390  20.002  0.00  0.00    +0.000 A 
ATOM     14  C   UNL     1       4.173   3.341  18.964  0.00  0.00    +0.000 A 
ENDBRANCH   8   9
ENDBRANCH   7   8
TORSDOF 2
ENDMDL
MODEL 5
REMARK VINA RESULT:      -6.4      1.625      2.503
REMARK  Name = 
REMARK  2 active torsions:
REMARK  status: ('A' for Active; 'I' for Inactive)
REMARK    1  A    between atoms: C_7  and  C_8
REMARK    2  A    between atoms: C_8  and  C_9
REMARK                            x       y       z     vdW  Elec       q    Type
REMARK                         _______ _______ _______ _____ _____    ______ ____
ROOT
ATOM      1  O   UNL     1       6.662   7.685  17.106  0.00  0.00    +0.000 OA
ATOM      2  C   UNL     1       6.047   6.676  16.773  0.00  0.00    +0.000 C 
ATOM      3  O   UNL     1       6.016   6.264  15.481  0.00  0.00    +0.000 OA
ATOM      4  C   UNL     1       5.400   5.012  15.144  0.00  0.00    +0.000 C 
ATOM      5  C   UNL     1       5.775   3.941  16.143  0.00  0.00    +0.000 C 
ATOM      6  C   UNL     1       5.500   4.365  17.583  0.00  0.00    +0.000 C 
ATOM      7  C   UNL     1       5.240   5.863  17.761  0.00  0.00    +0.000 C 
ENDROOT
BRANCH   7   8
ATOM      8  C   UNL     1       3.765   6.298  17.678  0.00  0.00    +0.000 C 
BRANCH   8   9
ATOM      9  C   UNL     1       2.817   5.436  18.473  0.00  0.00    +0.000 A 
ATOM     10  C   UNL     1       2.053   4.446  17.843  0.00  0.00    +0.000 A 
ATOM     11  C   UNL     1       1.172   3.654  18.581  0.00  0.00    +0.000 A 
ATOM     12  C   UNL     1       1.051   3.837  19.958  0.00  0.00    +0.000 A 
ATOM     13  C   UNL     1       1.809   4.816  20.596  0.00  0.00    +0.000 A 
ATOM     14  C   UNL     1       2.691   5.610  19.859  0.00  0.00    +0.000 A 
ENDBRANCH   8   9
ENDBRANCH   7   8
TORSDOF 2
ENDMDL
MODEL 6
REMARK VINA RESULT:      -6.4      1.568      2.203
REMARK  Name = 
REMARK  2 active torsions:
REMARK  status: ('A' for Active; 'I' for Inactive)
REMARK    1  A    between atoms: C_7  and  C_8
REMARK    2  A    between atoms: C_8  and  C_9
REMARK                            x       y       z     vdW  Elec       q    Type
REMARK                         _______ _______ _______ _____ _____    ______ ____
ROOT
ATOM      1  O   UNL     1       8.185   4.140  17.656  0.00  0.00    +0.000 OA
ATOM      2  C   UNL     1       7.215   4.884  17.558  0.00  0.00    +0.000 C 
ATOM      3  O   UNL     1       7.363   6.211  17.321  0.00  0.00    +0.000 OA
ATOM      4  C   UNL     1       6.208   7.029  17.081  0.00  0.00    +0.000 C 
ATOM      5  C   UNL     1       5.231   6.326  16.168  0.00  0.00    +0.000 C 
ATOM      6  C   UNL     1       4.871   4.928  16.663  0.00  0.00    +0.000 C 
ATOM      7  C   UNL     1       5.799   4.387  17.753  0.00  0.00    +0.000 C 
ENDROOT
BRANCH   7   8
ATOM      8  C   UNL     1       5.365   4.676  19.202  0.00  0.00    +0.000 C 
BRANCH   8   9
ATOM      9  C   UNL     1       3.955   4.247  19.525  0.00  0.00    +0.000 A 
ATOM     10  C   UNL     1       3.577   2.902  19.425  0.00  0.00    +0.000 A 
ATOM     11  C   UNL     1       2.270   2.510  19.718  0.00  0.00    +0.000 A 
ATOM     12  C   UNL     1       1.328   3.455  20.122  0.00  0.00    +0.000 A 
ATOM     13  C   UNL     1       1.694   4.795  20.230  0.00  0.00    +0.000 A 
ATOM     14  C   UNL     1       3.002   5.190  19.937  0.00  0.00    +0.000 A 
ENDBRANCH   8   9
ENDBRANCH   7   8
TORSDOF 2
ENDMDL
MODEL 7
REMARK VINA RESULT:      -6.4      1.192      1.464
REMARK  Name = 
REMARK  2 active torsions:
REMARK  status: ('A' for Active; 'I' for Inactive)
REMARK    1  A    between atoms: C_7  and  C_8
REMARK    2  A    between atoms: C_8  and  C_9
REMARK                            x       y       z     vdW  Elec       q    Type
REMARK                         _______ _______ _______ _____ _____    ______ ____
ROOT
ATOM      1  O   UNL     1       4.948   7.018  15.468  0.00  0.00    +0.000 OA
ATOM      2  C   UNL     1       5.484   6.033  15.967  0.00  0.00    +0.000 C 
ATOM      3  O   UNL     1       6.566   5.451  15.392  0.00  0.00    +0.000 OA
ATOM      4  C   UNL     1       7.248   4.384  16.068  0.00  0.00    +0.000 C 
ATOM      5  C   UNL     1       7.398   4.688  17.541  0.00  0.00    +0.000 C 
ATOM      6  C   UNL     1       6.070   5.050  18.200  0.00  0.00    +0.000 C 
ATOM      7  C   UNL     1       4.944   5.369  17.215  0.00  0.00    +0.000 C 
ENDROOT
BRANCH   7   8
ATOM      8  C   UNL     1       4.060   4.178  16.803  0.00  0.00    +0.000 C 
BRANCH   8   9
ATOM      9  C   UNL     1       2.976   3.837  17.794  0.00  0.00    +0.000 A 
ATOM     10  C   UNL     1       2.378   2.569  17.791  0.00  0.00    +0.000 A 
ATOM     11  C   UNL     1       1.370   2.259  18.706  0.00  0.00    +0.000 A 
ATOM     12  C   UNL     1       0.954   3.208  19.639  0.00  0.00    +0.000 A 
ATOM     13  C   UNL     1       1.544   4.470  19.654  0.00  0.00    +0.000 A 
ATOM     14  C   UNL     1       2.553   4.783  18.739  0.00  0.00    +0.000 A 
ENDBRANCH   8   9
ENDBRANCH   7   8
TORSDOF 2
ENDMDL
MODEL 8
REMARK VINA RESULT:      -6.4      0.596      1.404
REMARK  Name = 
REMARK  2 active torsions:
REMARK  status: ('A' for Active; 'I' for Inactive)
REMARK    1  A    between atoms: C_7  and  C_8
REMARK    2  A    between atoms: C_8  and  C_9
REMARK                            x       y       z     vdW  Elec       q    Type
REMARK                         _______ _______ _______ _____ _____    ______ ____
ROOT
ATOM      1  O   UNL     1       5.793   6.369  15.057  0.00  0.00    +0.000 OA
ATOM      2  C   UNL     1       6.070   5.720  16.061  0.00  0.00    +0.000 C 
ATOM      3  O   UNL     1       7.325   5.253  16.276  0.00  0.00    +0.000 OA
ATOM      4  C   UNL     1       7.646   4.612  17.520  0.00  0.00    +0.000 C 
ATOM      5  C   UNL     1       7.037   5.359  18.684  0.00  0.00    +0.000 C 
ATOM      6  C   UNL     1       5.539   5.591  18.510  0.00  0.00    +0.000 C 
ATOM      7  C   UNL     1       5.024   5.347  17.089  0.00  0.00    +0.000 C 
ENDROOT
BRANCH   7   8
ATOM      8  C   UNL     1       4.525   3.920  16.797  0.00  0.00    +0.000 C 
BRANCH   8   9
ATOM      9  C   UNL     1       3.382   3.470  17.674  0.00  0.00    +0.000 A 
ATOM     10  C   UNL     1       2.125   4.082  17.578  0.00  0.00    +0.000 A 
ATOM     11  C   UNL     1       1.073   3.667  18.396  0.00  0.00    +0.000 A 
ATOM     12  C   UNL     1       1.262   2.633  19.311  0.00  0.00    +0.000 A 
ATOM     13  C   UNL     1       2.506   2.014  19.411  0.00  0.00    +0.000 A 
ATOM     14  C   UNL     1       3.561   2.428  18.594  0.00  0.00    +0.000 A 
ENDBRANCH   8   9
ENDBRANCH   7   8
TORSDOF 2
ENDMDL
MODEL 9
REMARK VINA RESULT:      -6.3      1.622      2.381
REMARK  Name = 
REMARK  2 active torsions:
REMARK  status: ('A' for Active; 'I' for Inactive)
REMARK    1  A    between atoms: C_7  and  C_8
REMARK    2  A    between atoms: C_8  and  C_9
REMARK                            x       y       z     vdW  Elec       q    Type
REMARK                         _______ _______ _______ _____ _____    ______ ____
ROOT
ATOM      1  O   UNL     1       6.653   7.446  17.419  0.00  0.00    +0.000 OA
ATOM      2  C   UNL     1       6.069   6.504  16.893  0.00  0.00    +0.000 C 
ATOM      3  O   UNL     1       6.128   6.296  15.554  0.00  0.00    +0.000 OA
ATOM      4  C   UNL     1       5.544   5.114  14.987  0.00  0.00    +0.000 C 
ATOM      5  C   UNL     1       5.855   3.900  15.832  0.00  0.00    +0.000 C 
ATOM      6  C   UNL     1       5.479   4.099  17.298  0.00  0.00    +0.000 C 
ATOM      7  C   UNL     1       5.200   5.552  17.686  0.00  0.00    +0.000 C 
ENDROOT
BRANCH   7   8
ATOM      8  C   UNL     1       3.732   6.004  17.570  0.00  0.00    +0.000 C 
BRANCH   8   9
ATOM      9  C   UNL     1       2.781   5.261  18.475  0.00  0.00    +0.000 A 
ATOM     10  C   UNL     1       2.703   5.573  19.838  0.00  0.00    +0.000 A 
ATOM     11  C   UNL     1       1.826   4.879  20.674  0.00  0.00    +0.000 A 
ATOM     12  C   UNL     1       1.012   3.873  20.156  0.00  0.00    +0.000 A 
ATOM     13  C   UNL     1       1.077   3.558  18.800  0.00  0.00    +0.000 A 
ATOM     14  C   UNL     1       1.954   4.250  17.962  0.00  0.00    +0.000 A 
ENDBRANCH   8   9
ENDBRANCH   7   8
TORSDOF 2
ENDMDL
