MODEL 1
REMARK VINA RESULT:      -6.8      0.000      0.000
REMARK  Name = 
REMARK  12 active torsions:
REMARK  status: ('A' for Active; 'I' for Inactive)
REMARK    1  A    between atoms: C_2  and  C_3
REMARK    2  A    between atoms: C_3  and  O_4
REMARK    3  A    between atoms: O_4  and  N_5
REMARK    4  A    between atoms: C_8  and  C_9
REMARK    5  A    between atoms: C_12  and  O_13
REMARK    6  A    between atoms: O_13  and  C_14
REMARK    7  A    between atoms: C_20  and  O_21
REMARK    8  A    between atoms: O_21  and  C_22
REMARK    9  A    between atoms: C_23  and  C_24
REMARK   10  A    between atoms: C_24  and  C_25
REMARK   11  A    between atoms: C_26  and  C_27
REMARK   12  A    between atoms: C_26  and  C_28
REMARK                            x       y       z     vdW  Elec       q    Type
REMARK                         _______ _______ _______ _____ _____    ______ ____
ROOT
ATOM      1  N   UNL     1       5.131   8.234  17.066  0.00  0.00    +0.000 NA
ATOM      2  C   UNL     1       4.075   7.565  17.455  0.00  0.00    +0.000 C 
ATOM      3  C   UNL     1       2.899   8.328  18.017  0.00  0.00    +0.000 C 
ATOM      4  C   UNL     1       2.531   7.651  19.341  0.00  0.00    +0.000 C 
ATOM      5  O   UNL     1       2.092   6.298  19.128  0.00  0.00    +0.000 OA
ATOM      6  C   UNL     1       2.901   5.551  18.305  0.00  0.00    +0.000 A 
ATOM      7  C   UNL     1       2.677   4.167  18.329  0.00  0.00    +0.000 A 
ATOM      8  C   UNL     1       3.440   3.306  17.530  0.00  0.00    +0.000 A 
ATOM      9  C   UNL     1       4.408   3.848  16.669  0.00  0.00    +0.000 A 
ATOM     10  C   UNL     1       4.563   5.238  16.596  0.00  0.00    +0.000 A 
ATOM     11  C   UNL     1       3.866   6.091  17.452  0.00  0.00    +0.000 A 
ENDROOT
BRANCH   4  12
ATOM     12  C   UNL     1       1.437   8.438  20.055  0.00  0.00    +0.000 A 
ATOM     13  C   UNL     1       0.856   9.585  19.494  0.00  0.00    +0.000 A 
ATOM     14  C   UNL     1      -0.038  10.366  20.235  0.00  0.00    +0.000 A 
ATOM     15  C   UNL     1      -0.399  10.004  21.534  0.00  0.00    +0.000 A 
ATOM     16  C   UNL     1       0.128   8.837  22.082  0.00  0.00    +0.000 A 
ATOM     17  C   UNL     1       1.042   8.065  21.351  0.00  0.00    +0.000 A 
BRANCH  15  18
ATOM     18  O   UNL     1      -1.202  10.900  22.185  0.00  0.00    +0.000 OA
ATOM     19  C   UNL     1      -1.363  12.174  21.574  0.00  0.00    +0.000 C 
ENDBRANCH  15  18
ENDBRANCH   4  12
BRANCH   8  20
ATOM     20  O   UNL     1       3.327   1.943  17.504  0.00  0.00    +0.000 OA
ATOM     21  C   UNL     1       3.664   1.223  18.681  0.00  0.00    +0.000 C 
ENDBRANCH   8  20
BRANCH   1  22
ATOM     22  O   UNL     1       6.203   7.387  16.728  0.00  0.00    +0.000 OA
BRANCH  22  23
ATOM     23  C   UNL     1       7.382   7.677  17.485  0.00  0.00    +0.000 C 
BRANCH  23  25
ATOM     24  C   UNL     1       7.845   5.645  19.166  0.00  0.00    +0.000 C 
ATOM     25  C   UNL     1       7.642   6.551  18.403  0.00  0.00    +0.000 C 
ENDBRANCH  23  25
ENDBRANCH  22  23
ENDBRANCH   1  22
BRANCH   9  26
ATOM     26  C   UNL     1       5.324   2.994  15.816  0.00  0.00    +0.000 C 
BRANCH  26  27
ATOM     27  C   UNL     1       6.344   3.790  15.053  0.00  0.00    +0.000 C 
ATOM     28  C   UNL     1       6.375   3.999  13.720  0.00  0.00    +0.000 C 
ATOM     29  C   UNL     1       5.370   3.461  12.738  0.00  0.00    +0.000 C 
ATOM     30  C   UNL     1       7.449   4.862  13.112  0.00  0.00    +0.000 C 
ENDBRANCH  26  27
ENDBRANCH   9  26
TORSDOF 8
ENDMDL
MODEL 2
REMARK VINA RESULT:      -6.8      1.711      2.580
REMARK  Name = 
REMARK  12 active torsions:
REMARK  status: ('A' for Active; 'I' for Inactive)
REMARK    1  A    between atoms: C_2  and  C_3
REMARK    2  A    between atoms: C_3  and  O_4
REMARK    3  A    between atoms: O_4  and  N_5
REMARK    4  A    between atoms: C_8  and  C_9
REMARK    5  A    between atoms: C_12  and  O_13
REMARK    6  A    between atoms: O_13  and  C_14
REMARK    7  A    between atoms: C_20  and  O_21
REMARK    8  A    between atoms: O_21  and  C_22
REMARK    9  A    between atoms: C_23  and  C_24
REMARK   10  A    between atoms: C_24  and  C_25
REMARK   11  A    between atoms: C_26  and  C_27
REMARK   12  A    between atoms: C_26  and  C_28
REMARK                            x       y       z     vdW  Elec       q    Type
REMARK                         _______ _______ _______ _____ _____    ______ ____
ROOT
ATOM      1  N   UNL     1       3.485   8.108  17.691  0.00  0.00    +0.000 NA
ATOM      2  C   UNL     1       2.566   7.687  18.522  0.00  0.00    +0.000 C 
ATOM      3  C   UNL     1       1.563   8.680  19.060  0.00  0.00    +0.000 C 
ATOM      4  C   UNL     1       1.544   8.502  20.581  0.00  0.00    +0.000 C 
ATOM      5  O   UNL     1       1.076   7.191  20.945  0.00  0.00    +0.000 OA
ATOM      6  C   UNL     1       1.657   6.157  20.252  0.00  0.00    +0.000 A 
ATOM      7  C   UNL     1       1.457   4.877  20.790  0.00  0.00    +0.000 A 
ATOM      8  C   UNL     1       2.000   3.747  20.167  0.00  0.00    +0.000 A 
ATOM      9  C   UNL     1       2.717   3.903  18.970  0.00  0.00    +0.000 A 
ATOM     10  C   UNL     1       2.839   5.176  18.401  0.00  0.00    +0.000 A 
ATOM     11  C   UNL     1       2.374   6.312  19.063  0.00  0.00    +0.000 A 
ENDROOT
BRANCH   4  12
ATOM     12  C   UNL     1       0.659   9.560  21.231  0.00  0.00    +0.000 A 
ATOM     13  C   UNL     1       0.599  10.877  20.752  0.00  0.00    +0.000 A 
ATOM     14  C   UNL     1      -0.107  11.859  21.455  0.00  0.00    +0.000 A 
ATOM     15  C   UNL     1      -0.796  11.545  22.629  0.00  0.00    +0.000 A 
ATOM     16  C   UNL     1      -0.790  10.228  23.084  0.00  0.00    +0.000 A 
ATOM     17  C   UNL     1      -0.063   9.247  22.394  0.00  0.00    +0.000 A 
BRANCH  15  18
ATOM     18  O   UNL     1      -1.363  12.610  23.272  0.00  0.00    +0.000 OA
ATOM     19  C   UNL     1      -2.329  13.357  22.541  0.00  0.00    +0.000 C 
ENDBRANCH  15  18
ENDBRANCH   4  12
BRANCH   8  20
ATOM     20  O   UNL     1       1.895   2.462  20.627  0.00  0.00    +0.000 OA
ATOM     21  C   UNL     1       1.534   2.268  21.987  0.00  0.00    +0.000 C 
ENDBRANCH   8  20
BRANCH   1  22
ATOM     22  O   UNL     1       4.444   7.117  17.411  0.00  0.00    +0.000 OA
BRANCH  22  23
ATOM     23  C   UNL     1       5.498   7.603  16.575  0.00  0.00    +0.000 C 
BRANCH  23  25
ATOM     24  C   UNL     1       7.806   7.445  17.924  0.00  0.00    +0.000 C 
ATOM     25  C   UNL     1       6.771   7.505  17.316  0.00  0.00    +0.000 C 
ENDBRANCH  23  25
ENDBRANCH  22  23
ENDBRANCH   1  22
BRANCH   9  26
ATOM     26  C   UNL     1       3.395   2.749  18.259  0.00  0.00    +0.000 C 
BRANCH  26  27
ATOM     27  C   UNL     1       4.027   3.139  16.953  0.00  0.00    +0.000 C 
ATOM     28  C   UNL     1       5.232   3.721  16.779  0.00  0.00    +0.000 C 
ATOM     29  C   UNL     1       6.180   4.092  17.888  0.00  0.00    +0.000 C 
ATOM     30  C   UNL     1       5.742   4.010  15.392  0.00  0.00    +0.000 C 
ENDBRANCH  26  27
ENDBRANCH   9  26
TORSDOF 8
ENDMDL
MODEL 3
REMARK VINA RESULT:      -6.7      1.690      3.630
REMARK  Name = 
REMARK  12 active torsions:
REMARK  status: ('A' for Active; 'I' for Inactive)
REMARK    1  A    between atoms: C_2  and  C_3
REMARK    2  A    between atoms: C_3  and  O_4
REMARK    3  A    between atoms: O_4  and  N_5
REMARK    4  A    between atoms: C_8  and  C_9
REMARK    5  A    between atoms: C_12  and  O_13
REMARK    6  A    between atoms: O_13  and  C_14
REMARK    7  A    between atoms: C_20  and  O_21
REMARK    8  A    between atoms: O_21  and  C_22
REMARK    9  A    between atoms: C_23  and  C_24
REMARK   10  A    between atoms: C_24  and  C_25
REMARK   11  A    between atoms: C_26  and  C_27
REMARK   12  A    between atoms: C_26  and  C_28
REMARK                            x       y       z     vdW  Elec       q    Type
REMARK                         _______ _______ _______ _____ _____    ______ ____
ROOT
ATOM      1  N   UNL     1       1.376   4.076  19.489  0.00  0.00    +0.000 NA
ATOM      2  C   UNL     1       1.986   5.233  19.533  0.00  0.00    +0.000 C 
ATOM      3  C   UNL     1       1.479   6.285  20.491  0.00  0.00    +0.000 C 
ATOM      4  C   UNL     1       1.318   7.574  19.679  0.00  0.00    +0.000 C 
ATOM      5  O   UNL     1       2.586   8.035  19.180  0.00  0.00    +0.000 OA
ATOM      6  C   UNL     1       3.355   7.069  18.578  0.00  0.00    +0.000 A 
ATOM      7  C   UNL     1       4.436   7.540  17.818  0.00  0.00    +0.000 A 
ATOM      8  C   UNL     1       5.291   6.647  17.162  0.00  0.00    +0.000 A 
ATOM      9  C   UNL     1       5.081   5.266  17.305  0.00  0.00    +0.000 A 
ATOM     10  C   UNL     1       4.048   4.809  18.134  0.00  0.00    +0.000 A 
ATOM     11  C   UNL     1       3.144   5.695  18.718  0.00  0.00    +0.000 A 
ENDROOT
BRANCH   4  12
ATOM     12  C   UNL     1       0.676   8.664  20.532  0.00  0.00    +0.000 A 
ATOM     13  C   UNL     1       0.736  10.019  20.177  0.00  0.00    +0.000 A 
ATOM     14  C   UNL     1       0.267  11.006  21.051  0.00  0.00    +0.000 A 
ATOM     15  C   UNL     1      -0.302  10.663  22.280  0.00  0.00    +0.000 A 
ATOM     16  C   UNL     1      -0.418   9.317  22.619  0.00  0.00    +0.000 A 
ATOM     17  C   UNL     1       0.073   8.327  21.755  0.00  0.00    +0.000 A 
BRANCH  15  18
ATOM     18  O   UNL     1      -0.632  11.720  23.082  0.00  0.00    +0.000 OA
ATOM     19  C   UNL     1      -2.014  12.041  23.180  0.00  0.00    +0.000 C 
ENDBRANCH  15  18
ENDBRANCH   4  12
BRANCH   8  20
ATOM     20  O   UNL     1       6.349   7.001  16.369  0.00  0.00    +0.000 OA
ATOM     21  C   UNL     1       7.525   7.482  17.002  0.00  0.00    +0.000 C 
ENDBRANCH   8  20
BRANCH   1  22
ATOM     22  O   UNL     1       1.847   3.266  18.439  0.00  0.00    +0.000 OA
BRANCH  22  23
ATOM     23  C   UNL     1       2.143   1.935  18.872  0.00  0.00    +0.000 C 
BRANCH  23  25
ATOM     24  C   UNL     1       4.544   1.916  20.057  0.00  0.00    +0.000 C 
ATOM     25  C   UNL     1       3.468   1.935  19.522  0.00  0.00    +0.000 C 
ENDBRANCH  23  25
ENDBRANCH  22  23
ENDBRANCH   1  22
BRANCH   9  26
ATOM     26  C   UNL     1       5.913   4.225  16.583  0.00  0.00    +0.000 C 
BRANCH  26  27
ATOM     27  C   UNL     1       5.382   3.874  15.222  0.00  0.00    +0.000 C 
ATOM     28  C   UNL     1       5.967   4.133  14.034  0.00  0.00    +0.000 C 
ATOM     29  C   UNL     1       7.284   4.838  13.855  0.00  0.00    +0.000 C 
ATOM     30  C   UNL     1       5.320   3.673  12.754  0.00  0.00    +0.000 C 
ENDBRANCH  26  27
ENDBRANCH   9  26
TORSDOF 8
ENDMDL
MODEL 4
REMARK VINA RESULT:      -6.6      1.722      3.883
REMARK  Name = 
REMARK  12 active torsions:
REMARK  status: ('A' for Active; 'I' for Inactive)
REMARK    1  A    between atoms: C_2  and  C_3
REMARK    2  A    between atoms: C_3  and  O_4
REMARK    3  A    between atoms: O_4  and  N_5
REMARK    4  A    between atoms: C_8  and  C_9
REMARK    5  A    between atoms: C_12  and  O_13
REMARK    6  A    between atoms: O_13  and  C_14
REMARK    7  A    between atoms: C_20  and  O_21
REMARK    8  A    between atoms: O_21  and  C_22
REMARK    9  A    between atoms: C_23  and  C_24
REMARK   10  A    between atoms: C_24  and  C_25
REMARK   11  A    between atoms: C_26  and  C_27
REMARK   12  A    between atoms: C_26  and  C_28
REMARK                            x       y       z     vdW  Elec       q    Type
REMARK                         _______ _______ _______ _____ _____    ______ ____
ROOT
ATOM      1  N   UNL     1       1.138   4.264  19.970  0.00  0.00    +0.000 NA
ATOM      2  C   UNL     1       1.758   5.415  19.932  0.00  0.00    +0.000 C 
ATOM      3  C   UNL     1       1.310   6.512  20.870  0.00  0.00    +0.000 C 
ATOM      4  C   UNL     1       1.114   7.766  20.013  0.00  0.00    +0.000 C 
ATOM      5  O   UNL     1       2.357   8.194  19.428  0.00  0.00    +0.000 OA
ATOM      6  C   UNL     1       3.086   7.196  18.828  0.00  0.00    +0.000 A 
ATOM      7  C   UNL     1       4.128   7.625  17.991  0.00  0.00    +0.000 A 
ATOM      8  C   UNL     1       4.940   6.697  17.329  0.00  0.00    +0.000 A 
ATOM      9  C   UNL     1       4.728   5.325  17.543  0.00  0.00    +0.000 A 
ATOM     10  C   UNL     1       3.738   4.913  18.444  0.00  0.00    +0.000 A 
ATOM     11  C   UNL     1       2.873   5.832  19.038  0.00  0.00    +0.000 A 
ENDROOT
BRANCH   4  12
ATOM     12  C   UNL     1       0.527   8.897  20.851  0.00  0.00    +0.000 A 
ATOM     13  C   UNL     1       0.334   8.776  22.235  0.00  0.00    +0.000 A 
ATOM     14  C   UNL     1      -0.341   9.773  22.950  0.00  0.00    +0.000 A 
ATOM     15  C   UNL     1      -0.805  10.924  22.311  0.00  0.00    +0.000 A 
ATOM     16  C   UNL     1      -0.569  11.081  20.946  0.00  0.00    +0.000 A 
ATOM     17  C   UNL     1       0.085  10.074  20.223  0.00  0.00    +0.000 A 
BRANCH  15  18
ATOM     18  O   UNL     1      -1.531  11.774  23.098  0.00  0.00    +0.000 OA
ATOM     19  C   UNL     1      -2.593  12.479  22.468  0.00  0.00    +0.000 C 
ENDBRANCH  15  18
ENDBRANCH   4  12
BRANCH   8  20
ATOM     20  O   UNL     1       5.956   7.007  16.467  0.00  0.00    +0.000 OA
ATOM     21  C   UNL     1       7.211   7.378  17.019  0.00  0.00    +0.000 C 
ENDBRANCH   8  20
BRANCH   1  22
ATOM     22  O   UNL     1       1.546   3.405  18.932  0.00  0.00    +0.000 OA
BRANCH  22  23
ATOM     23  C   UNL     1       1.760   2.066  19.389  0.00  0.00    +0.000 C 
BRANCH  23  25
ATOM     24  C   UNL     1       4.011   1.118  18.292  0.00  0.00    +0.000 C 
ATOM     25  C   UNL     1       2.999   1.551  18.776  0.00  0.00    +0.000 C 
ENDBRANCH  23  25
ENDBRANCH  22  23
ENDBRANCH   1  22
BRANCH   9  26
ATOM     26  C   UNL     1       5.513   4.247  16.823  0.00  0.00    +0.000 C 
BRANCH  26  27
ATOM     27  C   UNL     1       5.034   3.993  15.422  0.00  0.00    +0.000 C 
ATOM     28  C   UNL     1       5.722   4.205  14.280  0.00  0.00    +0.000 C 
ATOM     29  C   UNL     1       7.124   4.747  14.205  0.00  0.00    +0.000 C 
ATOM     30  C   UNL     1       5.110   3.856  12.949  0.00  0.00    +0.000 C 
ENDBRANCH  26  27
ENDBRANCH   9  26
TORSDOF 8
ENDMDL
MODEL 5
REMARK VINA RESULT:      -6.6      3.050     10.069
REMARK  Name = 
REMARK  12 active torsions:
REMARK  status: ('A' for Active; 'I' for Inactive)
REMARK    1  A    between atoms: C_2  and  C_3
REMARK    2  A    between atoms: C_3  and  O_4
REMARK    3  A    between atoms: O_4  and  N_5
REMARK    4  A    between atoms: C_8  and  C_9
REMARK    5  A    between atoms: C_12  and  O_13
REMARK    6  A    between atoms: O_13  and  C_14
REMARK    7  A    between atoms: C_20  and  O_21
REMARK    8  A    between atoms: O_21  and  C_22
REMARK    9  A    between atoms: C_23  and  C_24
REMARK   10  A    between atoms: C_24  and  C_25
REMARK   11  A    between atoms: C_26  and  C_27
REMARK   12  A    between atoms: C_26  and  C_28
REMARK                            x       y       z     vdW  Elec       q    Type
REMARK                         _______ _______ _______ _____ _____    ______ ____
ROOT
ATOM      1  N   UNL     1       0.608  10.804  21.825  0.00  0.00    +0.000 NA
ATOM      2  C   UNL     1       0.319  10.140  20.735  0.00  0.00    +0.000 C 
ATOM      3  C   UNL     1       1.082   8.872  20.432  0.00  0.00    +0.000 C 
ATOM      4  C   UNL     1       1.572   8.991  18.986  0.00  0.00    +0.000 C 
ATOM      5  O   UNL     1       0.466   9.047  18.066  0.00  0.00    +0.000 OA
ATOM      6  C   UNL     1      -0.528   9.930  18.412  0.00  0.00    +0.000 A 
ATOM      7  C   UNL     1      -1.449  10.233  17.398  0.00  0.00    +0.000 A 
ATOM      8  C   UNL     1      -2.507  11.118  17.636  0.00  0.00    +0.000 A 
ATOM      9  C   UNL     1      -2.662  11.673  18.917  0.00  0.00    +0.000 A 
ATOM     10  C   UNL     1      -1.783  11.298  19.941  0.00  0.00    +0.000 A 
ATOM     11  C   UNL     1      -0.680  10.485  19.685  0.00  0.00    +0.000 A 
ENDROOT
BRANCH   4  12
ATOM     12  C   UNL     1       2.474   7.815  18.630  0.00  0.00    +0.000 A 
ATOM     13  C   UNL     1       2.553   6.667  19.433  0.00  0.00    +0.000 A 
ATOM     14  C   UNL     1       3.497   5.670  19.160  0.00  0.00    +0.000 A 
ATOM     15  C   UNL     1       4.356   5.777  18.064  0.00  0.00    +0.000 A 
ATOM     16  C   UNL     1       4.249   6.886  17.227  0.00  0.00    +0.000 A 
ATOM     17  C   UNL     1       3.321   7.897  17.512  0.00  0.00    +0.000 A 
BRANCH  15  18
ATOM     18  O   UNL     1       5.294   4.788  17.963  0.00  0.00    +0.000 OA
ATOM     19  C   UNL     1       5.273   4.007  16.774  0.00  0.00    +0.000 C 
ENDBRANCH  15  18
ENDBRANCH   4  12
BRANCH   8  20
ATOM     20  O   UNL     1      -3.437  11.507  16.711  0.00  0.00    +0.000 OA
ATOM     21  C   UNL     1      -3.385  10.912  15.422  0.00  0.00    +0.000 C 
ENDBRANCH   8  20
BRANCH   1  22
ATOM     22  O   UNL     1      -0.057  12.042  21.887  0.00  0.00    +0.000 OA
BRANCH  22  23
ATOM     23  C   UNL     1      -0.992  12.102  22.968  0.00  0.00    +0.000 C 
BRANCH  23  25
ATOM     24  C   UNL     1      -1.431  14.675  23.565  0.00  0.00    +0.000 C 
ATOM     25  C   UNL     1      -1.245  13.518  23.295  0.00  0.00    +0.000 C 
ENDBRANCH  23  25
ENDBRANCH  22  23
ENDBRANCH   1  22
BRANCH   9  26
ATOM     26  C   UNL     1      -3.736  12.689  19.252  0.00  0.00    +0.000 C 
BRANCH  26  27
ATOM     27  C   UNL     1      -3.875  12.949  20.724  0.00  0.00    +0.000 C 
ATOM     28  C   UNL     1      -4.966  12.722  21.486  0.00  0.00    +0.000 C 
ATOM     29  C   UNL     1      -6.267  12.157  20.985  0.00  0.00    +0.000 C 
ATOM     30  C   UNL     1      -4.928  12.999  22.966  0.00  0.00    +0.000 C 
ENDBRANCH  26  27
ENDBRANCH   9  26
TORSDOF 8
ENDMDL
MODEL 6
REMARK VINA RESULT:      -6.6      3.319      9.962
REMARK  Name = 
REMARK  12 active torsions:
REMARK  status: ('A' for Active; 'I' for Inactive)
REMARK    1  A    between atoms: C_2  and  C_3
REMARK    2  A    between atoms: C_3  and  O_4
REMARK    3  A    between atoms: O_4  and  N_5
REMARK    4  A    between atoms: C_8  and  C_9
REMARK    5  A    between atoms: C_12  and  O_13
REMARK    6  A    between atoms: O_13  and  C_14
REMARK    7  A    between atoms: C_20  and  O_21
REMARK    8  A    between atoms: O_21  and  C_22
REMARK    9  A    between atoms: C_23  and  C_24
REMARK   10  A    between atoms: C_24  and  C_25
REMARK   11  A    between atoms: C_26  and  C_27
REMARK   12  A    between atoms: C_26  and  C_28
REMARK                            x       y       z     vdW  Elec       q    Type
REMARK                         _______ _______ _______ _____ _____    ______ ____
ROOT
ATOM      1  N   UNL     1       0.488  11.394  21.254  0.00  0.00    +0.000 NA
ATOM      2  C   UNL     1       0.210  10.524  20.317  0.00  0.00    +0.000 C 
ATOM      3  C   UNL     1       1.059   9.280  20.207  0.00  0.00    +0.000 C 
ATOM      4  C   UNL     1       1.481   9.168  18.738  0.00  0.00    +0.000 C 
ATOM      5  O   UNL     1       0.340   8.976  17.883  0.00  0.00    +0.000 OA
ATOM      6  C   UNL     1      -0.707   9.834  18.117  0.00  0.00    +0.000 A 
ATOM      7  C   UNL     1      -1.689   9.880  17.116  0.00  0.00    +0.000 A 
ATOM      8  C   UNL     1      -2.804  10.717  17.247  0.00  0.00    +0.000 A 
ATOM      9  C   UNL     1      -2.952  11.483  18.414  0.00  0.00    +0.000 A 
ATOM     10  C   UNL     1      -2.007  11.365  19.440  0.00  0.00    +0.000 A 
ATOM     11  C   UNL     1      -0.853  10.599  19.277  0.00  0.00    +0.000 A 
ENDROOT
BRANCH   4  12
ATOM     12  C   UNL     1       2.460   8.013  18.552  0.00  0.00    +0.000 A 
ATOM     13  C   UNL     1       3.328   7.942  17.453  0.00  0.00    +0.000 A 
ATOM     14  C   UNL     1       4.108   6.801  17.234  0.00  0.00    +0.000 A 
ATOM     15  C   UNL     1       4.067   5.724  18.121  0.00  0.00    +0.000 A 
ATOM     16  C   UNL     1       3.251   5.806  19.248  0.00  0.00    +0.000 A 
ATOM     17  C   UNL     1       2.450   6.938  19.456  0.00  0.00    +0.000 A 
BRANCH  15  18
ATOM     18  O   UNL     1       4.800   4.632  17.745  0.00  0.00    +0.000 OA
ATOM     19  C   UNL     1       5.640   4.789  16.607  0.00  0.00    +0.000 C 
ENDBRANCH  15  18
ENDBRANCH   4  12
BRANCH   8  20
ATOM     20  O   UNL     1      -3.797  10.863  16.317  0.00  0.00    +0.000 OA
ATOM     21  C   UNL     1      -3.510  10.504  14.973  0.00  0.00    +0.000 C 
ENDBRANCH   8  20
BRANCH   1  22
ATOM     22  O   UNL     1      -0.272  12.573  21.128  0.00  0.00    +0.000 OA
BRANCH  22  23
ATOM     23  C   UNL     1      -0.587  13.153  22.398  0.00  0.00    +0.000 C 
BRANCH  23  25
ATOM     24  C   UNL     1      -2.731  11.906  23.407  0.00  0.00    +0.000 C 
ATOM     25  C   UNL     1      -1.762  12.456  22.955  0.00  0.00    +0.000 C 
ENDBRANCH  23  25
ENDBRANCH  22  23
ENDBRANCH   1  22
BRANCH   9  26
ATOM     26  C   UNL     1      -4.090  12.463  18.617  0.00  0.00    +0.000 C 
BRANCH  26  27
ATOM     27  C   UNL     1      -4.454  12.666  20.060  0.00  0.00    +0.000 C 
ATOM     28  C   UNL     1      -5.694  12.648  20.593  0.00  0.00    +0.000 C 
ATOM     29  C   UNL     1      -6.963  12.418  19.817  0.00  0.00    +0.000 C 
ATOM     30  C   UNL     1      -5.886  12.827  22.075  0.00  0.00    +0.000 C 
ENDBRANCH  26  27
ENDBRANCH   9  26
TORSDOF 8
ENDMDL
MODEL 7
REMARK VINA RESULT:      -6.6      3.492     10.043
REMARK  Name = 
REMARK  12 active torsions:
REMARK  status: ('A' for Active; 'I' for Inactive)
REMARK    1  A    between atoms: C_2  and  C_3
REMARK    2  A    between atoms: C_3  and  O_4
REMARK    3  A    between atoms: O_4  and  N_5
REMARK    4  A    between atoms: C_8  and  C_9
REMARK    5  A    between atoms: C_12  and  O_13
REMARK    6  A    between atoms: O_13  and  C_14
REMARK    7  A    between atoms: C_20  and  O_21
REMARK    8  A    between atoms: O_21  and  C_22
REMARK    9  A    between atoms: C_23  and  C_24
REMARK   10  A    between atoms: C_24  and  C_25
REMARK   11  A    between atoms: C_26  and  C_27
REMARK   12  A    between atoms: C_26  and  C_28
REMARK                            x       y       z     vdW  Elec       q    Type
REMARK                         _______ _______ _______ _____ _____    ______ ____
ROOT
ATOM      1  N   UNL     1       0.471  11.471  21.370  0.00  0.00    +0.000 NA
ATOM      2  C   UNL     1       0.152  10.610  20.437  0.00  0.00    +0.000 C 
ATOM      3  C   UNL     1       0.962   9.341  20.313  0.00  0.00    +0.000 C 
ATOM      4  C   UNL     1       1.356   9.217  18.838  0.00  0.00    +0.000 C 
ATOM      5  O   UNL     1       0.195   9.059  18.002  0.00  0.00    +0.000 OA
ATOM      6  C   UNL     1      -0.822   9.948  18.254  0.00  0.00    +0.000 A 
ATOM      7  C   UNL     1      -1.819  10.023  17.269  0.00  0.00    +0.000 A 
ATOM      8  C   UNL     1      -2.906  10.892  17.418  0.00  0.00    +0.000 A 
ATOM      9  C   UNL     1      -3.013  11.662  18.588  0.00  0.00    +0.000 A 
ATOM     10  C   UNL     1      -2.054  11.516  19.598  0.00  0.00    +0.000 A 
ATOM     11  C   UNL     1      -0.926  10.717  19.415  0.00  0.00    +0.000 A 
ENDROOT
BRANCH   4  12
ATOM     12  C   UNL     1       2.297   8.035  18.636  0.00  0.00    +0.000 A 
ATOM     13  C   UNL     1       2.389   6.988  19.565  0.00  0.00    +0.000 A 
ATOM     14  C   UNL     1       3.365   5.995  19.425  0.00  0.00    +0.000 A 
ATOM     15  C   UNL     1       4.245   6.002  18.340  0.00  0.00    +0.000 A 
ATOM     16  C   UNL     1       4.127   7.005  17.381  0.00  0.00    +0.000 A 
ATOM     17  C   UNL     1       3.166   8.016  17.532  0.00  0.00    +0.000 A 
BRANCH  15  18
ATOM     18  O   UNL     1       5.211   5.036  18.370  0.00  0.00    +0.000 OA
ATOM     19  C   UNL     1       4.905   3.848  19.091  0.00  0.00    +0.000 C 
ENDBRANCH  15  18
ENDBRANCH   4  12
BRANCH   8  20
ATOM     20  O   UNL     1      -3.910  11.067  16.505  0.00  0.00    +0.000 OA
ATOM     21  C   UNL     1      -3.666  10.677  15.162  0.00  0.00    +0.000 C 
ENDBRANCH   8  20
BRANCH   1  22
ATOM     22  O   UNL     1      -0.256  12.672  21.257  0.00  0.00    +0.000 OA
BRANCH  22  23
ATOM     23  C   UNL     1      -0.599  13.220  22.532  0.00  0.00    +0.000 C 
BRANCH  23  25
ATOM     24  C   UNL     1      -2.855  12.061  23.392  0.00  0.00    +0.000 C 
ATOM     25  C   UNL     1      -1.848  12.585  22.997  0.00  0.00    +0.000 C 
ENDBRANCH  23  25
ENDBRANCH  22  23
ENDBRANCH   1  22
BRANCH   9  26
ATOM     26  C   UNL     1      -4.117  12.675  18.810  0.00  0.00    +0.000 C 
BRANCH  26  27
ATOM     27  C   UNL     1      -5.044  12.313  19.936  0.00  0.00    +0.000 C 
ATOM     28  C   UNL     1      -6.391  12.240  19.884  0.00  0.00    +0.000 C 
ATOM     29  C   UNL     1      -7.224  12.516  18.661  0.00  0.00    +0.000 C 
ATOM     30  C   UNL     1      -7.175  11.817  21.097  0.00  0.00    +0.000 C 
ENDBRANCH  26  27
ENDBRANCH   9  26
TORSDOF 8
ENDMDL
MODEL 8
REMARK VINA RESULT:      -6.5      3.086      9.799
REMARK  Name = 
REMARK  12 active torsions:
REMARK  status: ('A' for Active; 'I' for Inactive)
REMARK    1  A    between atoms: C_2  and  C_3
REMARK    2  A    between atoms: C_3  and  O_4
REMARK    3  A    between atoms: O_4  and  N_5
REMARK    4  A    between atoms: C_8  and  C_9
REMARK    5  A    between atoms: C_12  and  O_13
REMARK    6  A    between atoms: O_13  and  C_14
REMARK    7  A    between atoms: C_20  and  O_21
REMARK    8  A    between atoms: O_21  and  C_22
REMARK    9  A    between atoms: C_23  and  C_24
REMARK   10  A    between atoms: C_24  and  C_25
REMARK   11  A    between atoms: C_26  and  C_27
REMARK   12  A    between atoms: C_26  and  C_28
REMARK                            x       y       z     vdW  Elec       q    Type
REMARK                         _______ _______ _______ _____ _____    ______ ____
ROOT
ATOM      1  N   UNL     1       1.001  10.988  21.553  0.00  0.00    +0.000 NA
ATOM      2  C   UNL     1       0.614  10.245  20.547  0.00  0.00    +0.000 C 
ATOM      3  C   UNL     1       1.348   8.953  20.275  0.00  0.00    +0.000 C 
ATOM      4  C   UNL     1       1.705   8.960  18.785  0.00  0.00    +0.000 C 
ATOM      5  O   UNL     1       0.521   8.952  17.968  0.00  0.00    +0.000 OA
ATOM      6  C   UNL     1      -0.439   9.864  18.333  0.00  0.00    +0.000 A 
ATOM      7  C   UNL     1      -1.449  10.094  17.387  0.00  0.00    +0.000 A 
ATOM      8  C   UNL     1      -2.482  11.002  17.652  0.00  0.00    +0.000 A 
ATOM      9  C   UNL     1      -2.521  11.653  18.895  0.00  0.00    +0.000 A 
ATOM     10  C   UNL     1      -1.552  11.352  19.861  0.00  0.00    +0.000 A 
ATOM     11  C   UNL     1      -0.476  10.515  19.569  0.00  0.00    +0.000 A 
ENDROOT
BRANCH   4  12
ATOM     12  C   UNL     1       2.573   7.754  18.440  0.00  0.00    +0.000 A 
ATOM     13  C   UNL     1       2.549   6.576  19.201  0.00  0.00    +0.000 A 
ATOM     14  C   UNL     1       3.461   5.545  18.948  0.00  0.00    +0.000 A 
ATOM     15  C   UNL     1       4.391   5.650  17.912  0.00  0.00    +0.000 A 
ATOM     16  C   UNL     1       4.388   6.791  17.113  0.00  0.00    +0.000 A 
ATOM     17  C   UNL     1       3.491   7.836  17.380  0.00  0.00    +0.000 A 
BRANCH  15  18
ATOM     18  O   UNL     1       5.287   4.621  17.829  0.00  0.00    +0.000 OA
ATOM     19  C   UNL     1       6.259   4.702  16.794  0.00  0.00    +0.000 C 
ENDBRANCH  15  18
ENDBRANCH   4  12
BRANCH   8  20
ATOM     20  O   UNL     1      -3.492  11.325  16.787  0.00  0.00    +0.000 OA
ATOM     21  C   UNL     1      -3.392  10.871  15.445  0.00  0.00    +0.000 C 
ENDBRANCH   8  20
BRANCH   1  22
ATOM     22  O   UNL     1       0.342  12.231  21.581  0.00  0.00    +0.000 OA
BRANCH  22  23
ATOM     23  C   UNL     1       1.212  13.313  21.237  0.00  0.00    +0.000 C 
BRANCH  23  25
ATOM     24  C   UNL     1       0.175  14.578  19.116  0.00  0.00    +0.000 C 
ATOM     25  C   UNL     1       0.648  14.019  20.069  0.00  0.00    +0.000 C 
ENDBRANCH  23  25
ENDBRANCH  22  23
ENDBRANCH   1  22
BRANCH   9  26
ATOM     26  C   UNL     1      -3.561  12.697  19.247  0.00  0.00    +0.000 C 
BRANCH  26  27
ATOM     27  C   UNL     1      -3.677  12.953  20.723  0.00  0.00    +0.000 C 
ATOM     28  C   UNL     1      -4.769  12.766  21.493  0.00  0.00    +0.000 C 
ATOM     29  C   UNL     1      -6.097  12.258  21.000  0.00  0.00    +0.000 C 
ATOM     30  C   UNL     1      -4.707  13.031  22.974  0.00  0.00    +0.000 C 
ENDBRANCH  26  27
ENDBRANCH   9  26
TORSDOF 8
ENDMDL
MODEL 9
REMARK VINA RESULT:      -6.4      1.578      3.692
REMARK  Name = 
REMARK  12 active torsions:
REMARK  status: ('A' for Active; 'I' for Inactive)
REMARK    1  A    between atoms: C_2  and  C_3
REMARK    2  A    between atoms: C_3  and  O_4
REMARK    3  A    between atoms: O_4  and  N_5
REMARK    4  A    between atoms: C_8  and  C_9
REMARK    5  A    between atoms: C_12  and  O_13
REMARK    6  A    between atoms: O_13  and  C_14
REMARK    7  A    between atoms: C_20  and  O_21
REMARK    8  A    between atoms: O_21  and  C_22
REMARK    9  A    between atoms: C_23  and  C_24
REMARK   10  A    between atoms: C_24  and  C_25
REMARK   11  A    between atoms: C_26  and  C_27
REMARK   12  A    between atoms: C_26  and  C_28
REMARK                            x       y       z     vdW  Elec       q    Type
REMARK                         _______ _______ _______ _____ _____    ______ ____
ROOT
ATOM      1  N   UNL     1       1.596   4.281  18.231  0.00  0.00    +0.000 NA
ATOM      2  C   UNL     1       2.275   5.363  18.513  0.00  0.00    +0.000 C 
ATOM      3  C   UNL     1       1.667   6.379  19.451  0.00  0.00    +0.000 C 
ATOM      4  C   UNL     1       1.784   7.739  18.757  0.00  0.00    +0.000 C 
ATOM      5  O   UNL     1       3.161   8.111  18.570  0.00  0.00    +0.000 OA
ATOM      6  C   UNL     1       3.958   7.124  18.040  0.00  0.00    +0.000 A 
ATOM      7  C   UNL     1       5.208   7.546  17.562  0.00  0.00    +0.000 A 
ATOM      8  C   UNL     1       6.105   6.628  17.003  0.00  0.00    +0.000 A 
ATOM      9  C   UNL     1       5.758   5.268  16.962  0.00  0.00    +0.000 A 
ATOM     10  C   UNL     1       4.542   4.851  17.517  0.00  0.00    +0.000 A 
ATOM     11  C   UNL     1       3.611   5.772  17.996  0.00  0.00    +0.000 A 
ENDROOT
BRANCH   4  12
ATOM     12  C   UNL     1       1.070   8.814  19.569  0.00  0.00    +0.000 A 
ATOM     13  C   UNL     1       0.958   8.742  20.965  0.00  0.00    +0.000 A 
ATOM     14  C   UNL     1       0.173   9.665  21.666  0.00  0.00    +0.000 A 
ATOM     15  C   UNL     1      -0.488  10.697  20.997  0.00  0.00    +0.000 A 
ATOM     16  C   UNL     1      -0.339  10.813  19.617  0.00  0.00    +0.000 A 
ATOM     17  C   UNL     1       0.428   9.876  18.910  0.00  0.00    +0.000 A 
BRANCH  15  18
ATOM     18  O   UNL     1      -1.299  11.471  21.780  0.00  0.00    +0.000 OA
ATOM     19  C   UNL     1      -1.392  11.113  23.154  0.00  0.00    +0.000 C 
ENDBRANCH  15  18
ENDBRANCH   4  12
BRANCH   8  20
ATOM     20  O   UNL     1       7.330   6.939  16.477  0.00  0.00    +0.000 OA
ATOM     21  C   UNL     1       8.121   7.904  17.154  0.00  0.00    +0.000 C 
ENDBRANCH   8  20
BRANCH   1  22
ATOM     22  O   UNL     1       2.208   3.516  17.220  0.00  0.00    +0.000 OA
BRANCH  22  23
ATOM     23  C   UNL     1       2.318   2.135  17.577  0.00  0.00    +0.000 C 
BRANCH  23  25
ATOM     24  C   UNL     1       4.102   1.894  19.559  0.00  0.00    +0.000 C 
ATOM     25  C   UNL     1       3.295   2.008  18.676  0.00  0.00    +0.000 C 
ENDBRANCH  23  25
ENDBRANCH  22  23
ENDBRANCH   1  22
BRANCH   9  26
ATOM     26  C   UNL     1       6.635   4.212  16.320  0.00  0.00    +0.000 C 
BRANCH  26  27
ATOM     27  C   UNL     1       6.096   3.701  15.014  0.00  0.00    +0.000 C 
ATOM     28  C   UNL     1       6.483   4.077  13.776  0.00  0.00    +0.000 C 
ATOM     29  C   UNL     1       7.546   5.099  13.477  0.00  0.00    +0.000 C 
ATOM     30  C   UNL     1       5.870   3.433  12.561  0.00  0.00    +0.000 C 
ENDBRANCH  26  27
ENDBRANCH   9  26
TORSDOF 8
ENDMDL
