MODEL 1
REMARK VINA RESULT:      -6.8      0.000      0.000
REMARK  Name = 
REMARK  3 active torsions:
REMARK  status: ('A' for Active; 'I' for Inactive)
REMARK    1  A    between atoms: C_2  and  C_14
REMARK    2  A    between atoms: N_3  and  N_4
REMARK    3  A    between atoms: N_4  and  C_5
REMARK                            x       y       z     vdW  Elec       q    Type
REMARK                         _______ _______ _______ _____ _____    ______ ____
ROOT
ATOM      1  N   UNL     1       3.662   5.808  17.486  0.00  0.00    +0.000 N 
ATOM      2  H   UNL     1       3.541   5.410  16.539  0.00  0.00    +0.000 HD
ENDROOT
BRANCH   1   3
ATOM      3  C   UNL     1       3.014   4.994  18.467  0.00  0.00    +0.000 A 
ATOM      4  C   UNL     1       3.097   3.582  18.513  0.00  0.00    +0.000 A 
ATOM      5 CL   UNL     1       3.941   2.633  17.328  0.00  0.00    +0.000 Cl
ATOM      6  C   UNL     1       2.523   2.853  19.563  0.00  0.00    +0.000 A 
ATOM      7  C   UNL     1       1.889   3.515  20.606  0.00  0.00    +0.000 A 
ATOM      8 CL   UNL     1       1.215   2.610  21.904  0.00  0.00    +0.000 Cl
ATOM      9  C   UNL     1       1.815   4.900  20.616  0.00  0.00    +0.000 A 
ATOM     10  C   UNL     1       2.378   5.629  19.562  0.00  0.00    +0.000 A 
ATOM     11 CL   UNL     1       2.262   7.356  19.640  0.00  0.00    +0.000 Cl
ENDBRANCH   1   3
BRANCH   1  14
ATOM     12  O   UNL     1       5.404   6.474  15.522  0.00  0.00    +0.000 OA
ATOM     13  C   UNL     1       5.823   6.455  16.683  0.00  0.00    +0.000 C 
ATOM     14  N   UNL     1       5.016   6.058  17.735  0.00  0.00    +0.000 N 
ATOM     15  H   UNL     1       5.281   6.234  18.701  0.00  0.00    +0.000 HD
BRANCH  13  16
ATOM     16  C   UNL     1       7.265   6.842  17.119  0.00  0.00    +0.000 C 
ATOM     17  C   UNL     1       7.544   8.301  17.588  0.00  0.00    +0.000 C 
ATOM     18  C   UNL     1       8.486   7.720  18.656  0.00  0.00    +0.000 C 
ATOM     19  C   UNL     1       7.693   6.407  18.549  0.00  0.00    +0.000 C 
ENDBRANCH  13  16
ENDBRANCH   1  14
TORSDOF 3
ENDMDL
MODEL 2
REMARK VINA RESULT:      -6.6      2.614      6.231
REMARK  Name = 
REMARK  3 active torsions:
REMARK  status: ('A' for Active; 'I' for Inactive)
REMARK    1  A    between atoms: C_2  and  C_14
REMARK    2  A    between atoms: N_3  and  N_4
REMARK    3  A    between atoms: N_4  and  C_5
REMARK                            x       y       z     vdW  Elec       q    Type
REMARK                         _______ _______ _______ _____ _____    ______ ____
ROOT
ATOM      1  N   UNL     1       3.726   4.120  16.651  0.00  0.00    +0.000 N 
ATOM      2  H   UNL     1       2.899   4.440  16.119  0.00  0.00    +0.000 HD
ENDROOT
BRANCH   1   3
ATOM      3  C   UNL     1       4.676   5.178  16.800  0.00  0.00    +0.000 A 
ATOM      4  C   UNL     1       4.430   6.375  17.513  0.00  0.00    +0.000 A 
ATOM      5 CL   UNL     1       2.902   6.759  18.244  0.00  0.00    +0.000 Cl
ATOM      6  C   UNL     1       5.441   7.327  17.709  0.00  0.00    +0.000 A 
ATOM      7  C   UNL     1       6.723   7.089  17.233  0.00  0.00    +0.000 A 
ATOM      8 CL   UNL     1       7.962   8.250  17.506  0.00  0.00    +0.000 Cl
ATOM      9  C   UNL     1       7.014   5.912  16.558  0.00  0.00    +0.000 A 
ATOM     10  C   UNL     1       6.003   4.967  16.352  0.00  0.00    +0.000 A 
ATOM     11 CL   UNL     1       6.433   3.513  15.512  0.00  0.00    +0.000 Cl
ENDBRANCH   1   3
BRANCH   1  14
ATOM     12  O   UNL     1       1.126   3.928  17.387  0.00  0.00    +0.000 OA
ATOM     13  C   UNL     1       1.973   3.406  18.117  0.00  0.00    +0.000 C 
ATOM     14  N   UNL     1       3.326   3.519  17.850  0.00  0.00    +0.000 N 
ATOM     15  H   UNL     1       4.010   2.930  18.319  0.00  0.00    +0.000 HD
BRANCH  13  16
ATOM     16  C   UNL     1       1.661   2.591  19.405  0.00  0.00    +0.000 C 
ATOM     17  C   UNL     1       2.727   2.537  20.539  0.00  0.00    +0.000 C 
ATOM     18  C   UNL     1       1.574   2.619  21.553  0.00  0.00    +0.000 C 
ATOM     19  C   UNL     1       0.733   3.277  20.447  0.00  0.00    +0.000 C 
ENDBRANCH  13  16
ENDBRANCH   1  14
TORSDOF 3
ENDMDL
MODEL 3
REMARK VINA RESULT:      -6.6      0.815      2.367
REMARK  Name = 
REMARK  3 active torsions:
REMARK  status: ('A' for Active; 'I' for Inactive)
REMARK    1  A    between atoms: C_2  and  C_14
REMARK    2  A    between atoms: N_3  and  N_4
REMARK    3  A    between atoms: N_4  and  C_5
REMARK                            x       y       z     vdW  Elec       q    Type
REMARK                         _______ _______ _______ _____ _____    ______ ____
ROOT
ATOM      1  N   UNL     1       3.656   5.153  17.592  0.00  0.00    +0.000 N 
ATOM      2  H   UNL     1       3.709   4.465  16.822  0.00  0.00    +0.000 HD
ENDROOT
BRANCH   1   3
ATOM      3  C   UNL     1       3.096   4.561  18.766  0.00  0.00    +0.000 A 
ATOM      4  C   UNL     1       2.458   5.289  19.799  0.00  0.00    +0.000 A 
ATOM      5 CL   UNL     1       2.337   7.021  19.817  0.00  0.00    +0.000 Cl
ATOM      6  C   UNL     1       1.838   4.635  20.874  0.00  0.00    +0.000 A 
ATOM      7  C   UNL     1       1.808   3.249  20.922  0.00  0.00    +0.000 A 
ATOM      8 CL   UNL     1       1.018   2.459  22.231  0.00  0.00    +0.000 Cl
ATOM      9  C   UNL     1       2.393   2.498  19.912  0.00  0.00    +0.000 A 
ATOM     10  C   UNL     1       3.021   3.149  18.845  0.00  0.00    +0.000 A 
ATOM     11 CL   UNL     1       3.723   2.155  17.610  0.00  0.00    +0.000 Cl
ENDBRANCH   1   3
BRANCH   1  14
ATOM     12  O   UNL     1       5.909   4.268  16.375  0.00  0.00    +0.000 OA
ATOM     13  C   UNL     1       5.989   5.285  17.070  0.00  0.00    +0.000 C 
ATOM     14  N   UNL     1       4.902   5.762  17.780  0.00  0.00    +0.000 N 
ATOM     15  H   UNL     1       4.900   6.697  18.182  0.00  0.00    +0.000 HD
BRANCH  13  16
ATOM     16  C   UNL     1       7.276   6.139  17.257  0.00  0.00    +0.000 C 
ATOM     17  C   UNL     1       7.152   7.692  17.288  0.00  0.00    +0.000 C 
ATOM     18  C   UNL     1       8.228   7.701  18.387  0.00  0.00    +0.000 C 
ATOM     19  C   UNL     1       7.822   6.254  18.709  0.00  0.00    +0.000 C 
ENDBRANCH  13  16
ENDBRANCH   1  14
TORSDOF 3
ENDMDL
MODEL 4
REMARK VINA RESULT:      -6.6      2.934      6.356
REMARK  Name = 
REMARK  3 active torsions:
REMARK  status: ('A' for Active; 'I' for Inactive)
REMARK    1  A    between atoms: C_2  and  C_14
REMARK    2  A    between atoms: N_3  and  N_4
REMARK    3  A    between atoms: N_4  and  C_5
REMARK                            x       y       z     vdW  Elec       q    Type
REMARK                         _______ _______ _______ _____ _____    ______ ____
ROOT
ATOM      1  N   UNL     1       6.339   3.979  18.333  0.00  0.00    +0.000 N 
ATOM      2  H   UNL     1       6.029   3.637  17.407  0.00  0.00    +0.000 HD
ENDROOT
BRANCH   1   3
ATOM      3  C   UNL     1       6.782   5.336  18.254  0.00  0.00    +0.000 A 
ATOM      4  C   UNL     1       7.788   5.896  19.076  0.00  0.00    +0.000 A 
ATOM      5 CL   UNL     1       8.575   5.024  20.356  0.00  0.00    +0.000 Cl
ATOM      6  C   UNL     1       8.247   7.205  18.875  0.00  0.00    +0.000 A 
ATOM      7  C   UNL     1       7.743   7.968  17.831  0.00  0.00    +0.000 A 
ATOM      8 CL   UNL     1       8.336   9.562  17.577  0.00  0.00    +0.000 Cl
ATOM      9  C   UNL     1       6.779   7.444  16.981  0.00  0.00    +0.000 A 
ATOM     10  C   UNL     1       6.312   6.141  17.188  0.00  0.00    +0.000 A 
ATOM     11 CL   UNL     1       5.116   5.542  16.085  0.00  0.00    +0.000 Cl
ENDBRANCH   1   3
BRANCH   1  14
ATOM     12  O   UNL     1       3.956   2.850  17.714  0.00  0.00    +0.000 OA
ATOM     13  C   UNL     1       4.185   3.102  18.900  0.00  0.00    +0.000 C 
ATOM     14  N   UNL     1       5.348   3.741  19.292  0.00  0.00    +0.000 N 
ATOM     15  H   UNL     1       5.636   3.766  20.267  0.00  0.00    +0.000 HD
BRANCH  13  16
ATOM     16  C   UNL     1       3.232   2.767  20.084  0.00  0.00    +0.000 C 
ATOM     17  C   UNL     1       2.508   3.933  20.822  0.00  0.00    +0.000 C 
ATOM     18  C   UNL     1       1.268   3.029  20.918  0.00  0.00    +0.000 C 
ATOM     19  C   UNL     1       1.812   2.259  19.704  0.00  0.00    +0.000 C 
ENDBRANCH  13  16
ENDBRANCH   1  14
TORSDOF 3
ENDMDL
MODEL 5
REMARK VINA RESULT:      -6.6      2.937      4.119
REMARK  Name = 
REMARK  3 active torsions:
REMARK  status: ('A' for Active; 'I' for Inactive)
REMARK    1  A    between atoms: C_2  and  C_14
REMARK    2  A    between atoms: N_3  and  N_4
REMARK    3  A    between atoms: N_4  and  C_5
REMARK                            x       y       z     vdW  Elec       q    Type
REMARK                         _______ _______ _______ _____ _____    ______ ____
ROOT
ATOM      1  N   UNL     1       5.621   3.527  17.277  0.00  0.00    +0.000 N 
ATOM      2  H   UNL     1       6.581   3.653  17.641  0.00  0.00    +0.000 HD
ENDROOT
BRANCH   1   3
ATOM      3  C   UNL     1       4.660   4.109  18.162  0.00  0.00    +0.000 A 
ATOM      4  C   UNL     1       4.587   5.490  18.462  0.00  0.00    +0.000 A 
ATOM      5 CL   UNL     1       5.712   6.664  17.853  0.00  0.00    +0.000 Cl
ATOM      6  C   UNL     1       3.554   6.008  19.257  0.00  0.00    +0.000 A 
ATOM      7  C   UNL     1       2.556   5.171  19.735  0.00  0.00    +0.000 A 
ATOM      8 CL   UNL     1       1.279   5.824  20.683  0.00  0.00    +0.000 Cl
ATOM      9  C   UNL     1       2.572   3.816  19.435  0.00  0.00    +0.000 A 
ATOM     10  C   UNL     1       3.608   3.296  18.651  0.00  0.00    +0.000 A 
ATOM     11 CL   UNL     1       3.566   1.598  18.304  0.00  0.00    +0.000 Cl
ENDBRANCH   1   3
BRANCH   1  14
ATOM     12  O   UNL     1       7.759   4.532  15.953  0.00  0.00    +0.000 OA
ATOM     13  C   UNL     1       6.700   4.413  15.332  0.00  0.00    +0.000 C 
ATOM     14  N   UNL     1       5.544   3.974  15.953  0.00  0.00    +0.000 N 
ATOM     15  H   UNL     1       4.732   3.679  15.415  0.00  0.00    +0.000 HD
BRANCH  13  16
ATOM     16  C   UNL     1       6.507   4.741  13.824  0.00  0.00    +0.000 C 
ATOM     17  C   UNL     1       7.764   5.010  12.943  0.00  0.00    +0.000 C 
ATOM     18  C   UNL     1       7.064   4.245  11.807  0.00  0.00    +0.000 C 
ATOM     19  C   UNL     1       6.231   3.533  12.885  0.00  0.00    +0.000 C 
ENDBRANCH  13  16
ENDBRANCH   1  14
TORSDOF 3
ENDMDL
MODEL 6
REMARK VINA RESULT:      -6.6      4.141      6.310
REMARK  Name = 
REMARK  3 active torsions:
REMARK  status: ('A' for Active; 'I' for Inactive)
REMARK    1  A    between atoms: C_2  and  C_14
REMARK    2  A    between atoms: N_3  and  N_4
REMARK    3  A    between atoms: N_4  and  C_5
REMARK                            x       y       z     vdW  Elec       q    Type
REMARK                         _______ _______ _______ _____ _____    ______ ____
ROOT
ATOM      1  N   UNL     1       2.186   7.582  20.780  0.00  0.00    +0.000 N 
ATOM      2  H   UNL     1       3.198   7.714  20.615  0.00  0.00    +0.000 HD
ENDROOT
BRANCH   1   3
ATOM      3  C   UNL     1       1.424   8.584  20.103  0.00  0.00    +0.000 A 
ATOM      4  C   UNL     1       1.564   8.901  18.731  0.00  0.00    +0.000 A 
ATOM      5 CL   UNL     1       2.745   8.163  17.693  0.00  0.00    +0.000 Cl
ATOM      6  C   UNL     1       0.711   9.822  18.107  0.00  0.00    +0.000 A 
ATOM      7  C   UNL     1      -0.318  10.416  18.823  0.00  0.00    +0.000 A 
ATOM      8 CL   UNL     1      -1.375  11.522  18.037  0.00  0.00    +0.000 Cl
ATOM      9  C   UNL     1      -0.511  10.107  20.162  0.00  0.00    +0.000 A 
ATOM     10  C   UNL     1       0.346   9.196  20.790  0.00  0.00    +0.000 A 
ATOM     11 CL   UNL     1       0.046   8.845  22.460  0.00  0.00    +0.000 Cl
ENDBRANCH   1   3
BRANCH   1  14
ATOM     12  O   UNL     1       3.904   5.802  19.677  0.00  0.00    +0.000 OA
ATOM     13  C   UNL     1       2.776   5.404  19.980  0.00  0.00    +0.000 C 
ATOM     14  N   UNL     1       1.817   6.265  20.483  0.00  0.00    +0.000 N 
ATOM     15  H   UNL     1       0.969   5.915  20.923  0.00  0.00    +0.000 HD
BRANCH  13  16
ATOM     16  C   UNL     1       2.277   3.938  19.833  0.00  0.00    +0.000 C 
ATOM     17  C   UNL     1       0.822   3.589  20.267  0.00  0.00    +0.000 C 
ATOM     18  C   UNL     1       0.743   2.648  19.054  0.00  0.00    +0.000 C 
ATOM     19  C   UNL     1       1.849   3.495  18.404  0.00  0.00    +0.000 C 
ENDBRANCH  13  16
ENDBRANCH   1  14
TORSDOF 3
ENDMDL
MODEL 7
REMARK VINA RESULT:      -6.6      3.008      3.780
REMARK  Name = 
REMARK  3 active torsions:
REMARK  status: ('A' for Active; 'I' for Inactive)
REMARK    1  A    between atoms: C_2  and  C_14
REMARK    2  A    between atoms: N_3  and  N_4
REMARK    3  A    between atoms: N_4  and  C_5
REMARK                            x       y       z     vdW  Elec       q    Type
REMARK                         _______ _______ _______ _____ _____    ______ ____
ROOT
ATOM      1  N   UNL     1       5.467   3.487  17.121  0.00  0.00    +0.000 N 
ATOM      2  H   UNL     1       6.404   3.646  17.531  0.00  0.00    +0.000 HD
ENDROOT
BRANCH   1   3
ATOM      3  C   UNL     1       4.448   4.060  17.944  0.00  0.00    +0.000 A 
ATOM      4  C   UNL     1       3.167   3.492  18.138  0.00  0.00    +0.000 A 
ATOM      5 CL   UNL     1       2.628   2.048  17.336  0.00  0.00    +0.000 Cl
ATOM      6  C   UNL     1       2.251   4.051  19.041  0.00  0.00    +0.000 A 
ATOM      7  C   UNL     1       2.605   5.162  19.793  0.00  0.00    +0.000 A 
ATOM      8 CL   UNL     1       1.483   5.821  20.918  0.00  0.00    +0.000 Cl
ATOM      9  C   UNL     1       3.864   5.730  19.657  0.00  0.00    +0.000 A 
ATOM     10  C   UNL     1       4.774   5.179  18.749  0.00  0.00    +0.000 A 
ATOM     11 CL   UNL     1       6.333   5.929  18.633  0.00  0.00    +0.000 Cl
ENDBRANCH   1   3
BRANCH   1  14
ATOM     12  O   UNL     1       7.608   4.637  15.925  0.00  0.00    +0.000 OA
ATOM     13  C   UNL     1       6.606   4.426  15.236  0.00  0.00    +0.000 C 
ATOM     14  N   UNL     1       5.448   3.907  15.787  0.00  0.00    +0.000 N 
ATOM     15  H   UNL     1       4.700   3.542  15.201  0.00  0.00    +0.000 HD
BRANCH  13  16
ATOM     16  C   UNL     1       6.493   4.716  13.712  0.00  0.00    +0.000 C 
ATOM     17  C   UNL     1       7.794   4.967  12.893  0.00  0.00    +0.000 C 
ATOM     18  C   UNL     1       7.158   4.172  11.741  0.00  0.00    +0.000 C 
ATOM     19  C   UNL     1       6.271   3.483  12.790  0.00  0.00    +0.000 C 
ENDBRANCH  13  16
ENDBRANCH   1  14
TORSDOF 3
ENDMDL
MODEL 8
REMARK VINA RESULT:      -6.5      2.689      5.903
REMARK  Name = 
REMARK  3 active torsions:
REMARK  status: ('A' for Active; 'I' for Inactive)
REMARK    1  A    between atoms: C_2  and  C_14
REMARK    2  A    between atoms: N_3  and  N_4
REMARK    3  A    between atoms: N_4  and  C_5
REMARK                            x       y       z     vdW  Elec       q    Type
REMARK                         _______ _______ _______ _____ _____    ______ ____
ROOT
ATOM      1  N   UNL     1       4.893   5.994  18.681  0.00  0.00    +0.000 N 
ATOM      2  H   UNL     1       5.706   6.412  19.164  0.00  0.00    +0.000 HD
ENDROOT
BRANCH   1   3
ATOM      3  C   UNL     1       5.294   5.356  17.466  0.00  0.00    +0.000 A 
ATOM      4  C   UNL     1       4.484   4.457  16.732  0.00  0.00    +0.000 A 
ATOM      5 CL   UNL     1       2.909   3.943  17.253  0.00  0.00    +0.000 Cl
ATOM      6  C   UNL     1       4.900   3.948  15.493  0.00  0.00    +0.000 A 
ATOM      7  C   UNL     1       6.109   4.352  14.944  0.00  0.00    +0.000 A 
ATOM      8 CL   UNL     1       6.593   3.743  13.410  0.00  0.00    +0.000 Cl
ATOM      9  C   UNL     1       6.917   5.258  15.616  0.00  0.00    +0.000 A 
ATOM     10  C   UNL     1       6.509   5.758  16.858  0.00  0.00    +0.000 A 
ATOM     11 CL   UNL     1       7.558   6.894  17.641  0.00  0.00    +0.000 Cl
ENDBRANCH   1   3
BRANCH   1  14
ATOM     12  O   UNL     1       2.563   6.774  19.822  0.00  0.00    +0.000 OA
ATOM     13  C   UNL     1       2.963   5.629  20.049  0.00  0.00    +0.000 C 
ATOM     14  N   UNL     1       4.176   5.177  19.562  0.00  0.00    +0.000 N 
ATOM     15  H   UNL     1       4.415   4.187  19.568  0.00  0.00    +0.000 HD
BRANCH  13  16
ATOM     16  C   UNL     1       2.202   4.569  20.897  0.00  0.00    +0.000 C 
ATOM     17  C   UNL     1       0.892   3.946  20.327  0.00  0.00    +0.000 C 
ATOM     18  C   UNL     1       1.334   2.602  20.929  0.00  0.00    +0.000 C 
ATOM     19  C   UNL     1       2.779   3.125  20.876  0.00  0.00    +0.000 C 
ENDBRANCH  13  16
ENDBRANCH   1  14
TORSDOF 3
ENDMDL
MODEL 9
REMARK VINA RESULT:      -6.5      2.973      6.377
REMARK  Name = 
REMARK  3 active torsions:
REMARK  status: ('A' for Active; 'I' for Inactive)
REMARK    1  A    between atoms: C_2  and  C_14
REMARK    2  A    between atoms: N_3  and  N_4
REMARK    3  A    between atoms: N_4  and  C_5
REMARK                            x       y       z     vdW  Elec       q    Type
REMARK                         _______ _______ _______ _____ _____    ______ ____
ROOT
ATOM      1  N   UNL     1       4.791   3.020  16.965  0.00  0.00    +0.000 N 
ATOM      2  H   UNL     1       4.734   2.739  15.971  0.00  0.00    +0.000 HD
ENDROOT
BRANCH   1   3
ATOM      3  C   UNL     1       5.473   4.269  17.103  0.00  0.00    +0.000 A 
ATOM      4  C   UNL     1       5.550   5.006  18.309  0.00  0.00    +0.000 A 
ATOM      5 CL   UNL     1       4.756   4.527  19.777  0.00  0.00    +0.000 Cl
ATOM      6  C   UNL     1       6.322   6.173  18.401  0.00  0.00    +0.000 A 
ATOM      7  C   UNL     1       7.062   6.606  17.309  0.00  0.00    +0.000 A 
ATOM      8 CL   UNL     1       8.029   8.022  17.444  0.00  0.00    +0.000 Cl
ATOM      9  C   UNL     1       7.040   5.894  16.118  0.00  0.00    +0.000 A 
ATOM     10  C   UNL     1       6.260   4.736  16.022  0.00  0.00    +0.000 A 
ATOM     11 CL   UNL     1       6.284   3.885  14.512  0.00  0.00    +0.000 Cl
ENDBRANCH   1   3
BRANCH   1  14
ATOM     12  O   UNL     1       3.969   0.949  18.506  0.00  0.00    +0.000 OA
ATOM     13  C   UNL     1       3.208   1.911  18.378  0.00  0.00    +0.000 C 
ATOM     14  N   UNL     1       3.522   2.977  17.553  0.00  0.00    +0.000 N 
ATOM     15  H   UNL     1       3.008   3.854  17.600  0.00  0.00    +0.000 HD
BRANCH  13  16
ATOM     16  C   UNL     1       1.828   2.058  19.082  0.00  0.00    +0.000 C 
ATOM     17  C   UNL     1       1.789   2.434  20.593  0.00  0.00    +0.000 C 
ATOM     18  C   UNL     1       0.568   3.317  20.286  0.00  0.00    +0.000 C 
ATOM     19  C   UNL     1       1.066   3.391  18.833  0.00  0.00    +0.000 C 
ENDBRANCH  13  16
ENDBRANCH   1  14
TORSDOF 3
ENDMDL
