MODEL 1
REMARK VINA RESULT:      -9.4      0.000      0.000
REMARK  Name = 
REMARK  3 active torsions:
REMARK  status: ('A' for Active; 'I' for Inactive)
REMARK    1  A    between atoms: N_2  and  C_4
REMARK    2  A    between atoms: C_8  and  C_9
REMARK    3  A    between atoms: C_12  and  C_13
REMARK                            x       y       z     vdW  Elec       q    Type
REMARK                         _______ _______ _______ _____ _____    ______ ____
ROOT
ATOM      1  C   UNL     1       5.674   4.918  15.909  0.00  0.00    +0.000 A 
ATOM      2  N   UNL     1       6.145   5.805  16.762  0.00  0.00    +0.000 NA
ATOM      3  N   UNL     1       5.406   5.678  17.912  0.00  0.00    +0.000 NA
ATOM      4  C   UNL     1       4.524   4.726  17.692  0.00  0.00    +0.000 A 
ATOM      5  O   UNL     1       4.627   4.196  16.425  0.00  0.00    +0.000 OA
ENDROOT
BRANCH   4   6
ATOM      6  C   UNL     1       3.468   4.183  18.607  0.00  0.00    +0.000 C 
ATOM      7  C   UNL     1       3.779   2.710  18.996  0.00  0.00    +0.000 C 
ATOM      8  C   UNL     1       2.694   2.154  19.937  0.00  0.00    +0.000 C 
ATOM      9  C   UNL     1       2.640   3.007  21.215  0.00  0.00    +0.000 C 
ATOM     10  C   UNL     1       2.318   4.466  20.857  0.00  0.00    +0.000 C 
ATOM     11  C   UNL     1       0.955   4.525  20.147  0.00  0.00    +0.000 C 
ATOM     12  C   UNL     1       0.993   3.676  18.867  0.00  0.00    +0.000 C 
ATOM     13  C   UNL     1       1.329   2.220  19.231  0.00  0.00    +0.000 C 
ATOM     14  C   UNL     1       2.079   4.225  17.924  0.00  0.00    +0.000 C 
ATOM     15  C   UNL     1       3.405   5.011  19.914  0.00  0.00    +0.000 C 
ENDBRANCH   4   6
BRANCH   1  20
ATOM     16  C   UNL     1       5.959   3.491  12.421  0.00  0.00    +0.000 A 
ATOM     17  C   UNL     1       7.108   4.142  11.955  0.00  0.00    +0.000 A 
ATOM     18  C   UNL     1       7.792   5.005  12.803  0.00  0.00    +0.000 A 
ATOM     19  C   UNL     1       7.311   5.232  14.093  0.00  0.00    +0.000 A 
ATOM     20  C   UNL     1       6.135   4.614  14.560  0.00  0.00    +0.000 A 
ATOM     21  C   UNL     1       5.457   3.733  13.711  0.00  0.00    +0.000 A 
BRANCH  16  23
ATOM     22  O   UNL     1       4.165   2.821  11.120  0.00  0.00    +0.000 OA
ATOM     23  N   UNL     1       5.290   2.530  11.544  0.00  0.00    +0.000 N 
ATOM     24  O   UNL     1       5.898   1.485  11.262  0.00  0.00    +0.000 OA
ENDBRANCH  16  23
ENDBRANCH   1  20
TORSDOF 3
ENDMDL
MODEL 2
REMARK VINA RESULT:      -9.4      0.684      1.622
REMARK  Name = 
REMARK  3 active torsions:
REMARK  status: ('A' for Active; 'I' for Inactive)
REMARK    1  A    between atoms: N_2  and  C_4
REMARK    2  A    between atoms: C_8  and  C_9
REMARK    3  A    between atoms: C_12  and  C_13
REMARK                            x       y       z     vdW  Elec       q    Type
REMARK                         _______ _______ _______ _____ _____    ______ ____
ROOT
ATOM      1  C   UNL     1       6.125   4.312  16.273  0.00  0.00    +0.000 A 
ATOM      2  N   UNL     1       6.955   4.524  17.274  0.00  0.00    +0.000 NA
ATOM      3  N   UNL     1       6.219   4.416  18.428  0.00  0.00    +0.000 NA
ATOM      4  C   UNL     1       4.983   4.150  18.064  0.00  0.00    +0.000 A 
ATOM      5  O   UNL     1       4.840   4.077  16.696  0.00  0.00    +0.000 OA
ENDROOT
BRANCH   4   6
ATOM      6  C   UNL     1       3.769   3.936  18.918  0.00  0.00    +0.000 C 
ATOM      7  C   UNL     1       2.517   3.658  18.039  0.00  0.00    +0.000 C 
ATOM      8  C   UNL     1       1.272   3.438  18.919  0.00  0.00    +0.000 C 
ATOM      9  C   UNL     1       1.508   2.234  19.846  0.00  0.00    +0.000 C 
ATOM     10  C   UNL     1       2.733   2.492  20.736  0.00  0.00    +0.000 C 
ATOM     11  C   UNL     1       2.486   3.749  21.587  0.00  0.00    +0.000 C 
ATOM     12  C   UNL     1       2.248   4.961  20.674  0.00  0.00    +0.000 C 
ATOM     13  C   UNL     1       1.029   4.692  19.775  0.00  0.00    +0.000 C 
ATOM     14  C   UNL     1       3.488   5.184  19.790  0.00  0.00    +0.000 C 
ATOM     15  C   UNL     1       3.970   2.715  19.849  0.00  0.00    +0.000 C 
ENDBRANCH   4   6
BRANCH   1  20
ATOM     16  C   UNL     1       5.995   3.510  12.582  0.00  0.00    +0.000 A 
ATOM     17  C   UNL     1       7.030   4.317  12.093  0.00  0.00    +0.000 A 
ATOM     18  C   UNL     1       7.778   5.079  12.983  0.00  0.00    +0.000 A 
ATOM     19  C   UNL     1       7.471   5.050  14.344  0.00  0.00    +0.000 A 
ATOM     20  C   UNL     1       6.408   4.273  14.844  0.00  0.00    +0.000 A 
ATOM     21  C   UNL     1       5.667   3.495  13.948  0.00  0.00    +0.000 A 
BRANCH  16  23
ATOM     22  O   UNL     1       5.781   1.583  11.315  0.00  0.00    +0.000 OA
ATOM     23  N   UNL     1       5.263   2.658  11.644  0.00  0.00    +0.000 N 
ATOM     24  O   UNL     1       4.157   3.056  11.246  0.00  0.00    +0.000 OA
ENDBRANCH  16  23
ENDBRANCH   1  20
TORSDOF 3
ENDMDL
MODEL 3
REMARK VINA RESULT:      -9.4      0.154      1.672
REMARK  Name = 
REMARK  3 active torsions:
REMARK  status: ('A' for Active; 'I' for Inactive)
REMARK    1  A    between atoms: N_2  and  C_4
REMARK    2  A    between atoms: C_8  and  C_9
REMARK    3  A    between atoms: C_12  and  C_13
REMARK                            x       y       z     vdW  Elec       q    Type
REMARK                         _______ _______ _______ _____ _____    ______ ____
ROOT
ATOM      1  C   UNL     1       5.821   4.772  15.970  0.00  0.00    +0.000 A 
ATOM      2  N   UNL     1       6.413   5.511  16.887  0.00  0.00    +0.000 NA
ATOM      3  N   UNL     1       5.674   5.380  18.037  0.00  0.00    +0.000 NA
ATOM      4  C   UNL     1       4.673   4.575  17.753  0.00  0.00    +0.000 A 
ATOM      5  O   UNL     1       4.693   4.150  16.444  0.00  0.00    +0.000 OA
ENDROOT
BRANCH   4   6
ATOM      6  C   UNL     1       3.563   4.095  18.640  0.00  0.00    +0.000 C 
ATOM      7  C   UNL     1       3.468   4.966  19.925  0.00  0.00    +0.000 C 
ATOM      8  C   UNL     1       2.327   4.471  20.834  0.00  0.00    +0.000 C 
ATOM      9  C   UNL     1       0.993   4.557  20.074  0.00  0.00    +0.000 C 
ATOM     10  C   UNL     1       1.058   3.691  18.806  0.00  0.00    +0.000 C 
ATOM     11  C   UNL     1       1.325   2.230  19.203  0.00  0.00    +0.000 C 
ATOM     12  C   UNL     1       2.655   2.128  19.966  0.00  0.00    +0.000 C 
ATOM     13  C   UNL     1       2.589   3.008  21.226  0.00  0.00    +0.000 C 
ATOM     14  C   UNL     1       3.798   2.624  19.063  0.00  0.00    +0.000 C 
ATOM     15  C   UNL     1       2.203   4.190  17.906  0.00  0.00    +0.000 C 
ENDBRANCH   4   6
BRANCH   1  20
ATOM     16  C   UNL     1       5.978   3.485  12.421  0.00  0.00    +0.000 A 
ATOM     17  C   UNL     1       7.086   4.184  11.927  0.00  0.00    +0.000 A 
ATOM     18  C   UNL     1       7.787   5.033  12.775  0.00  0.00    +0.000 A 
ATOM     19  C   UNL     1       7.362   5.199  14.094  0.00  0.00    +0.000 A 
ATOM     20  C   UNL     1       6.226   4.531  14.591  0.00  0.00    +0.000 A 
ATOM     21  C   UNL     1       5.531   3.665  13.741  0.00  0.00    +0.000 A 
BRANCH  16  23
ATOM     22  O   UNL     1       5.869   1.479  11.268  0.00  0.00    +0.000 OA
ATOM     23  N   UNL     1       5.292   2.539  11.539  0.00  0.00    +0.000 N 
ATOM     24  O   UNL     1       4.162   2.849  11.127  0.00  0.00    +0.000 OA
ENDBRANCH  16  23
ENDBRANCH   1  20
TORSDOF 3
ENDMDL
MODEL 4
REMARK VINA RESULT:      -8.6      5.167      8.413
REMARK  Name = 
REMARK  3 active torsions:
REMARK  status: ('A' for Active; 'I' for Inactive)
REMARK    1  A    between atoms: N_2  and  C_4
REMARK    2  A    between atoms: C_8  and  C_9
REMARK    3  A    between atoms: C_12  and  C_13
REMARK                            x       y       z     vdW  Elec       q    Type
REMARK                         _______ _______ _______ _____ _____    ______ ____
ROOT
ATOM      1  C   UNL     1       1.850   8.426  19.076  0.00  0.00    +0.000 A 
ATOM      2  N   UNL     1       2.684   8.437  18.056  0.00  0.00    +0.000 NA
ATOM      3  N   UNL     1       3.066   7.136  17.842  0.00  0.00    +0.000 NA
ATOM      4  C   UNL     1       2.449   6.408  18.748  0.00  0.00    +0.000 A 
ATOM      5  O   UNL     1       1.657   7.165  19.583  0.00  0.00    +0.000 OA
ENDROOT
BRANCH   4   6
ATOM      6  C   UNL     1       2.508   4.926  18.973  0.00  0.00    +0.000 C 
ATOM      7  C   UNL     1       1.526   4.500  20.101  0.00  0.00    +0.000 C 
ATOM      8  C   UNL     1       1.589   2.978  20.330  0.00  0.00    +0.000 C 
ATOM      9  C   UNL     1       1.204   2.249  19.031  0.00  0.00    +0.000 C 
ATOM     10  C   UNL     1       2.172   2.644  17.904  0.00  0.00    +0.000 C 
ATOM     11  C   UNL     1       3.603   2.251  18.304  0.00  0.00    +0.000 C 
ATOM     12  C   UNL     1       4.002   2.971  19.602  0.00  0.00    +0.000 C 
ATOM     13  C   UNL     1       3.022   2.583  20.723  0.00  0.00    +0.000 C 
ATOM     14  C   UNL     1       3.938   4.493  19.380  0.00  0.00    +0.000 C 
ATOM     15  C   UNL     1       2.105   4.166  17.686  0.00  0.00    +0.000 C 
ENDBRANCH   4   6
BRANCH   1  20
ATOM     16  C   UNL     1      -0.005  10.636  21.517  0.00  0.00    +0.000 A 
ATOM     17  C   UNL     1      -0.229  11.775  20.735  0.00  0.00    +0.000 A 
ATOM     18  C   UNL     1       0.195  11.785  19.411  0.00  0.00    +0.000 A 
ATOM     19  C   UNL     1       0.860  10.675  18.889  0.00  0.00    +0.000 A 
ATOM     20  C   UNL     1       1.126   9.538  19.677  0.00  0.00    +0.000 A 
ATOM     21  C   UNL     1       0.685   9.524  21.004  0.00  0.00    +0.000 A 
BRANCH  16  23
ATOM     22  O   UNL     1      -1.520  11.291  23.141  0.00  0.00    +0.000 OA
ATOM     23  N   UNL     1      -0.520  10.610  22.887  0.00  0.00    +0.000 N 
ATOM     24  O   UNL     1       0.068   9.891  23.711  0.00  0.00    +0.000 OA
ENDBRANCH  16  23
ENDBRANCH   1  20
TORSDOF 3
ENDMDL
MODEL 5
REMARK VINA RESULT:      -8.6      5.107      8.313
REMARK  Name = 
REMARK  3 active torsions:
REMARK  status: ('A' for Active; 'I' for Inactive)
REMARK    1  A    between atoms: N_2  and  C_4
REMARK    2  A    between atoms: C_8  and  C_9
REMARK    3  A    between atoms: C_12  and  C_13
REMARK                            x       y       z     vdW  Elec       q    Type
REMARK                         _______ _______ _______ _____ _____    ______ ____
ROOT
ATOM      1  C   UNL     1       1.842   8.322  19.110  0.00  0.00    +0.000 A 
ATOM      2  N   UNL     1       2.646   8.350  18.066  0.00  0.00    +0.000 NA
ATOM      3  N   UNL     1       3.036   7.054  17.832  0.00  0.00    +0.000 NA
ATOM      4  C   UNL     1       2.452   6.313  18.750  0.00  0.00    +0.000 A 
ATOM      5  O   UNL     1       1.677   7.056  19.613  0.00  0.00    +0.000 OA
ENDROOT
BRANCH   4   6
ATOM      6  C   UNL     1       2.533   4.831  18.963  0.00  0.00    +0.000 C 
ATOM      7  C   UNL     1       3.987   4.401  19.307  0.00  0.00    +0.000 C 
ATOM      8  C   UNL     1       4.068   2.879  19.525  0.00  0.00    +0.000 C 
ATOM      9  C   UNL     1       3.142   2.479  20.686  0.00  0.00    +0.000 C 
ATOM     10  C   UNL     1       1.694   2.880  20.362  0.00  0.00    +0.000 C 
ATOM     11  C   UNL     1       1.244   2.161  19.079  0.00  0.00    +0.000 C 
ATOM     12  C   UNL     1       2.162   2.550  17.910  0.00  0.00    +0.000 C 
ATOM     13  C   UNL     1       3.611   2.158  18.246  0.00  0.00    +0.000 C 
ATOM     14  C   UNL     1       2.087   4.071  17.689  0.00  0.00    +0.000 C 
ATOM     15  C   UNL     1       1.625   4.402  20.141  0.00  0.00    +0.000 C 
ENDBRANCH   4   6
BRANCH   1  20
ATOM     16  C   UNL     1       0.064  10.510  21.626  0.00  0.00    +0.000 A 
ATOM     17  C   UNL     1      -0.226  11.637  20.849  0.00  0.00    +0.000 A 
ATOM     18  C   UNL     1       0.129  11.646  19.505  0.00  0.00    +0.000 A 
ATOM     19  C   UNL     1       0.792  10.547  18.958  0.00  0.00    +0.000 A 
ATOM     20  C   UNL     1       1.124   9.423  19.739  0.00  0.00    +0.000 A 
ATOM     21  C   UNL     1       0.752   9.410  21.087  0.00  0.00    +0.000 A 
BRANCH  16  23
ATOM     22  O   UNL     1       0.219   9.735  23.804  0.00  0.00    +0.000 OA
ATOM     23  N   UNL     1      -0.380  10.483  23.021  0.00  0.00    +0.000 N 
ATOM     24  O   UNL     1      -1.321  11.227  23.341  0.00  0.00    +0.000 OA
ENDBRANCH  16  23
ENDBRANCH   1  20
TORSDOF 3
ENDMDL
MODEL 6
REMARK VINA RESULT:      -8.6      5.084      8.373
REMARK  Name = 
REMARK  3 active torsions:
REMARK  status: ('A' for Active; 'I' for Inactive)
REMARK    1  A    between atoms: N_2  and  C_4
REMARK    2  A    between atoms: C_8  and  C_9
REMARK    3  A    between atoms: C_12  and  C_13
REMARK                            x       y       z     vdW  Elec       q    Type
REMARK                         _______ _______ _______ _____ _____    ______ ____
ROOT
ATOM      1  C   UNL     1       1.891   8.345  19.075  0.00  0.00    +0.000 A 
ATOM      2  N   UNL     1       2.694   8.393  18.031  0.00  0.00    +0.000 NA
ATOM      3  N   UNL     1       3.111   7.106  17.793  0.00  0.00    +0.000 NA
ATOM      4  C   UNL     1       2.543   6.350  18.708  0.00  0.00    +0.000 A 
ATOM      5  O   UNL     1       1.753   7.073  19.573  0.00  0.00    +0.000 OA
ENDROOT
BRANCH   4   6
ATOM      6  C   UNL     1       2.656   4.869  18.916  0.00  0.00    +0.000 C 
ATOM      7  C   UNL     1       1.629   4.108  18.030  0.00  0.00    +0.000 C 
ATOM      8  C   UNL     1       1.746   2.588  18.245  0.00  0.00    +0.000 C 
ATOM      9  C   UNL     1       3.165   2.127  17.871  0.00  0.00    +0.000 C 
ATOM     10  C   UNL     1       4.198   2.855  18.745  0.00  0.00    +0.000 C 
ATOM     11  C   UNL     1       3.930   2.531  20.223  0.00  0.00    +0.000 C 
ATOM     12  C   UNL     1       2.514   2.985  20.612  0.00  0.00    +0.000 C 
ATOM     13  C   UNL     1       1.486   2.263  19.725  0.00  0.00    +0.000 C 
ATOM     14  C   UNL     1       2.391   4.504  20.397  0.00  0.00    +0.000 C 
ATOM     15  C   UNL     1       4.070   4.373  18.527  0.00  0.00    +0.000 C 
ENDBRANCH   4   6
BRANCH   1  20
ATOM     16  C   UNL     1       0.085  10.495  21.603  0.00  0.00    +0.000 A 
ATOM     17  C   UNL     1      -0.249  11.608  20.823  0.00  0.00    +0.000 A 
ATOM     18  C   UNL     1       0.086  11.619  19.474  0.00  0.00    +0.000 A 
ATOM     19  C   UNL     1       0.774  10.536  18.924  0.00  0.00    +0.000 A 
ATOM     20  C   UNL     1       1.150   9.428  19.708  0.00  0.00    +0.000 A 
ATOM     21  C   UNL     1       0.797   9.412  21.061  0.00  0.00    +0.000 A 
BRANCH  16  23
ATOM     22  O   UNL     1       0.268   9.708  23.774  0.00  0.00    +0.000 OA
ATOM     23  N   UNL     1      -0.338  10.464  23.005  0.00  0.00    +0.000 N 
ATOM     24  O   UNL     1      -1.269  11.212  23.342  0.00  0.00    +0.000 OA
ENDBRANCH  16  23
ENDBRANCH   1  20
TORSDOF 3
ENDMDL
MODEL 7
REMARK VINA RESULT:      -8.4      5.485      8.664
REMARK  Name = 
REMARK  3 active torsions:
REMARK  status: ('A' for Active; 'I' for Inactive)
REMARK    1  A    between atoms: N_2  and  C_4
REMARK    2  A    between atoms: C_8  and  C_9
REMARK    3  A    between atoms: C_12  and  C_13
REMARK                            x       y       z     vdW  Elec       q    Type
REMARK                         _______ _______ _______ _____ _____    ______ ____
ROOT
ATOM      1  C   UNL     1       1.500   9.220  18.737  0.00  0.00    +0.000 A 
ATOM      2  N   UNL     1       2.142   9.451  17.609  0.00  0.00    +0.000 NA
ATOM      3  N   UNL     1       2.764   8.278  17.260  0.00  0.00    +0.000 NA
ATOM      4  C   UNL     1       2.471   7.402  18.198  0.00  0.00    +0.000 A 
ATOM      5  O   UNL     1       1.672   7.934  19.185  0.00  0.00    +0.000 OA
ENDROOT
BRANCH   4   6
ATOM      6  C   UNL     1       2.891   5.967  18.317  0.00  0.00    +0.000 C 
ATOM      7  C   UNL     1       4.211   5.711  17.537  0.00  0.00    +0.000 C 
ATOM      8  C   UNL     1       4.640   4.238  17.661  0.00  0.00    +0.000 C 
ATOM      9  C   UNL     1       4.862   3.893  19.143  0.00  0.00    +0.000 C 
ATOM     10  C   UNL     1       3.564   4.124  19.933  0.00  0.00    +0.000 C 
ATOM     11  C   UNL     1       2.456   3.225  19.362  0.00  0.00    +0.000 C 
ATOM     12  C   UNL     1       2.223   3.556  17.879  0.00  0.00    +0.000 C 
ATOM     13  C   UNL     1       3.529   3.337  17.096  0.00  0.00    +0.000 C 
ATOM     14  C   UNL     1       1.797   5.030  17.749  0.00  0.00    +0.000 C 
ATOM     15  C   UNL     1       3.142   5.597  19.800  0.00  0.00    +0.000 C 
ENDBRANCH   4   6
BRANCH   1  20
ATOM     16  C   UNL     1      -0.429  10.852  21.547  0.00  0.00    +0.000 A 
ATOM     17  C   UNL     1      -0.979  11.959  20.891  0.00  0.00    +0.000 A 
ATOM     18  C   UNL     1      -0.743  12.131  19.532  0.00  0.00    +0.000 A 
ATOM     19  C   UNL     1       0.059  11.216  18.849  0.00  0.00    +0.000 A 
ATOM     20  C   UNL     1       0.651  10.120  19.506  0.00  0.00    +0.000 A 
ATOM     21  C   UNL     1       0.399   9.940  20.870  0.00  0.00    +0.000 A 
BRANCH  16  23
ATOM     22  O   UNL     1      -1.807  11.108  23.391  0.00  0.00    +0.000 OA
ATOM     23  N   UNL     1      -0.744  10.642  22.961  0.00  0.00    +0.000 N 
ATOM     24  O   UNL     1       0.065   9.995  23.643  0.00  0.00    +0.000 OA
ENDBRANCH  16  23
ENDBRANCH   1  20
TORSDOF 3
ENDMDL
MODEL 8
REMARK VINA RESULT:      -8.4      5.313      8.563
REMARK  Name = 
REMARK  3 active torsions:
REMARK  status: ('A' for Active; 'I' for Inactive)
REMARK    1  A    between atoms: N_2  and  C_4
REMARK    2  A    between atoms: C_8  and  C_9
REMARK    3  A    between atoms: C_12  and  C_13
REMARK                            x       y       z     vdW  Elec       q    Type
REMARK                         _______ _______ _______ _____ _____    ______ ____
ROOT
ATOM      1  C   UNL     1       1.720   8.876  18.839  0.00  0.00    +0.000 A 
ATOM      2  N   UNL     1       2.377   9.022  17.706  0.00  0.00    +0.000 NA
ATOM      3  N   UNL     1       2.883   7.788  17.380  0.00  0.00    +0.000 NA
ATOM      4  C   UNL     1       2.510   6.963  18.335  0.00  0.00    +0.000 A 
ATOM      5  O   UNL     1       1.769   7.588  19.313  0.00  0.00    +0.000 OA
ENDROOT
BRANCH   4   6
ATOM      6  C   UNL     1       2.790   5.497  18.483  0.00  0.00    +0.000 C 
ATOM      7  C   UNL     1       2.917   5.108  19.983  0.00  0.00    +0.000 C 
ATOM      8  C   UNL     1       3.204   3.602  20.133  0.00  0.00    +0.000 C 
ATOM      9  C   UNL     1       2.054   2.798  19.504  0.00  0.00    +0.000 C 
ATOM     10  C   UNL     1       1.919   3.155  18.016  0.00  0.00    +0.000 C 
ATOM     11  C   UNL     1       3.232   2.816  17.292  0.00  0.00    +0.000 C 
ATOM     12  C   UNL     1       4.392   3.612  17.910  0.00  0.00    +0.000 C 
ATOM     13  C   UNL     1       4.514   3.261  19.402  0.00  0.00    +0.000 C 
ATOM     14  C   UNL     1       4.109   5.118  17.766  0.00  0.00    +0.000 C 
ATOM     15  C   UNL     1       1.636   4.661  17.877  0.00  0.00    +0.000 C 
ENDBRANCH   4   6
BRANCH   1  20
ATOM     16  C   UNL     1      -0.131  10.689  21.589  0.00  0.00    +0.000 A 
ATOM     17  C   UNL     1      -0.465  11.887  20.948  0.00  0.00    +0.000 A 
ATOM     18  C   UNL     1      -0.114  12.066  19.614  0.00  0.00    +0.000 A 
ATOM     19  C   UNL     1       0.588  11.063  18.944  0.00  0.00    +0.000 A 
ATOM     20  C   UNL     1       0.964   9.869  19.591  0.00  0.00    +0.000 A 
ATOM     21  C   UNL     1       0.595   9.685  20.927  0.00  0.00    +0.000 A 
BRANCH  16  23
ATOM     22  O   UNL     1       0.155   9.812  23.714  0.00  0.00    +0.000 OA
ATOM     23  N   UNL     1      -0.570  10.484  22.971  0.00  0.00    +0.000 N 
ATOM     24  O   UNL     1      -1.638  11.012  23.321  0.00  0.00    +0.000 OA
ENDBRANCH  16  23
ENDBRANCH   1  20
TORSDOF 3
ENDMDL
MODEL 9
REMARK VINA RESULT:      -8.3      5.370      8.898
REMARK  Name = 
REMARK  3 active torsions:
REMARK  status: ('A' for Active; 'I' for Inactive)
REMARK    1  A    between atoms: N_2  and  C_4
REMARK    2  A    between atoms: C_8  and  C_9
REMARK    3  A    between atoms: C_12  and  C_13
REMARK                            x       y       z     vdW  Elec       q    Type
REMARK                         _______ _______ _______ _____ _____    ______ ____
ROOT
ATOM      1  C   UNL     1       1.437   8.455  20.090  0.00  0.00    +0.000 A 
ATOM      2  N   UNL     1       2.069   8.707  18.961  0.00  0.00    +0.000 NA
ATOM      3  N   UNL     1       2.509   7.500  18.477  0.00  0.00    +0.000 NA
ATOM      4  C   UNL     1       2.125   6.584  19.340  0.00  0.00    +0.000 A 
ATOM      5  O   UNL     1       1.439   7.119  20.407  0.00  0.00    +0.000 OA
ENDROOT
BRANCH   4   6
ATOM      6  C   UNL     1       2.342   5.100  19.305  0.00  0.00    +0.000 C 
ATOM      7  C   UNL     1       1.905   4.511  17.934  0.00  0.00    +0.000 C 
ATOM      8  C   UNL     1       2.129   2.987  17.900  0.00  0.00    +0.000 C 
ATOM      9  C   UNL     1       3.621   2.685  18.122  0.00  0.00    +0.000 C 
ATOM     10  C   UNL     1       4.072   3.245  19.480  0.00  0.00    +0.000 C 
ATOM     11  C   UNL     1       3.247   2.588  20.599  0.00  0.00    +0.000 C 
ATOM     12  C   UNL     1       1.753   2.881  20.390  0.00  0.00    +0.000 C 
ATOM     13  C   UNL     1       1.311   2.330  19.024  0.00  0.00    +0.000 C 
ATOM     14  C   UNL     1       1.524   4.403  20.420  0.00  0.00    +0.000 C 
ATOM     15  C   UNL     1       3.840   4.767  19.505  0.00  0.00    +0.000 C 
ENDBRANCH   4   6
BRANCH   1  20
ATOM     16  C   UNL     1       0.065  11.599  21.675  0.00  0.00    +0.000 A 
ATOM     17  C   UNL     1      -0.666  11.067  22.744  0.00  0.00    +0.000 A 
ATOM     18  C   UNL     1      -0.666   9.693  22.951  0.00  0.00    +0.000 A 
ATOM     19  C   UNL     1       0.039   8.862  22.079  0.00  0.00    +0.000 A 
ATOM     20  C   UNL     1       0.746   9.382  20.977  0.00  0.00    +0.000 A 
ATOM     21  C   UNL     1       0.758  10.766  20.780  0.00  0.00    +0.000 A 
BRANCH  16  23
ATOM     22  O   UNL     1      -0.940  13.642  21.249  0.00  0.00    +0.000 OA
ATOM     23  N   UNL     1       0.116  13.053  21.511  0.00  0.00    +0.000 N 
ATOM     24  O   UNL     1       1.214  13.612  21.661  0.00  0.00    +0.000 OA
ENDBRANCH  16  23
ENDBRANCH   1  20
TORSDOF 3
ENDMDL
