MODEL 1
REMARK VINA RESULT:      -8.7      0.000      0.000
REMARK  Name = 
REMARK  5 active torsions:
REMARK  status: ('A' for Active; 'I' for Inactive)
REMARK    1  A    between atoms: C_1  and  C_2
REMARK    2  A    between atoms: N_4  and  C_5
REMARK    3  A    between atoms: C_7  and  C_8
REMARK    4  A    between atoms: C_8  and  N_9
REMARK    5  A    between atoms: C_15  and  C_16
REMARK                            x       y       z     vdW  Elec       q    Type
REMARK                         _______ _______ _______ _____ _____    ______ ____
ROOT
ATOM      1  N   UNL     1       4.067   4.483  18.866  0.00  0.00    +0.000 NA
ATOM      2  C   UNL     1       4.442   3.169  19.364  0.00  0.00    +0.000 C 
ATOM      3  C   UNL     1       3.737   1.871  19.013  0.00  0.00    +0.000 C 
ATOM      4  C   UNL     1       2.255   1.842  19.306  0.00  0.00    +0.000 C 
ATOM      5  C   UNL     1       1.488   2.729  18.343  0.00  0.00    +0.000 C 
ATOM      6  C   UNL     1       1.493   4.188  18.779  0.00  0.00    +0.000 C 
ATOM      7  C   UNL     1       2.761   4.986  18.407  0.00  0.00    +0.000 C 
ENDROOT
BRANCH   7   8
ATOM      8  C   UNL     1       2.512   6.494  18.731  0.00  0.00    +0.000 A 
ATOM      9  C   UNL     1       2.593   7.502  17.753  0.00  0.00    +0.000 A 
ATOM     10  C   UNL     1       2.119   8.798  17.993  0.00  0.00    +0.000 A 
ATOM     11  C   UNL     1       1.626   9.129  19.247  0.00  0.00    +0.000 A 
ATOM     12 CL   UNL     1       0.976  10.698  19.528  0.00  0.00    +0.000 Cl
ATOM     13  C   UNL     1       1.641   8.187  20.271  0.00  0.00    +0.000 A 
ATOM     14  C   UNL     1       2.078   6.883  20.013  0.00  0.00    +0.000 A 
ENDBRANCH   7   8
BRANCH   1  15
ATOM     15  C   UNL     1       5.170   5.427  18.943  0.00  0.00    +0.000 C 
BRANCH  15  22
ATOM     16  C   UNL     1       7.662   7.608  17.776  0.00  0.00    +0.000 C 
ATOM     17  C   UNL     1       7.016   6.399  17.207  0.00  0.00    +0.000 A 
ATOM     18  N   UNL     1       7.423   6.046  15.979  0.00  0.00    +0.000 NA
ATOM     19  N   UNL     1       6.664   5.003  15.657  0.00  0.00    +0.000 N 
ATOM     20  C   UNL     1       6.700   4.475  14.318  0.00  0.00    +0.000 C 
ATOM     21  C   UNL     1       5.859   4.580  16.669  0.00  0.00    +0.000 A 
ATOM     22  C   UNL     1       5.997   5.499  17.694  0.00  0.00    +0.000 A 
ENDBRANCH  15  22
ENDBRANCH   1  15
TORSDOF 3
ENDMDL
MODEL 2
REMARK VINA RESULT:      -7.9      1.222      1.255
REMARK  Name = 
REMARK  5 active torsions:
REMARK  status: ('A' for Active; 'I' for Inactive)
REMARK    1  A    between atoms: C_1  and  C_2
REMARK    2  A    between atoms: N_4  and  C_5
REMARK    3  A    between atoms: C_7  and  C_8
REMARK    4  A    between atoms: C_8  and  N_9
REMARK    5  A    between atoms: C_15  and  C_16
REMARK                            x       y       z     vdW  Elec       q    Type
REMARK                         _______ _______ _______ _____ _____    ______ ____
ROOT
ATOM      1  N   UNL     1       3.706   5.180  19.054  0.00  0.00    +0.000 NA
ATOM      2  C   UNL     1       4.447   4.053  19.598  0.00  0.00    +0.000 C 
ATOM      3  C   UNL     1       3.839   2.719  19.991  0.00  0.00    +0.000 C 
ATOM      4  C   UNL     1       2.713   2.794  20.996  0.00  0.00    +0.000 C 
ATOM      5  C   UNL     1       1.461   3.386  20.375  0.00  0.00    +0.000 C 
ATOM      6  C   UNL     1       1.490   4.909  20.369  0.00  0.00    +0.000 C 
ATOM      7  C   UNL     1       2.291   5.553  19.218  0.00  0.00    +0.000 C 
ENDROOT
BRANCH   7   8
ATOM      8  C   UNL     1       2.038   7.094  19.239  0.00  0.00    +0.000 A 
ATOM      9  C   UNL     1       2.074   7.883  18.074  0.00  0.00    +0.000 A 
ATOM     10  C   UNL     1       1.595   9.200  18.064  0.00  0.00    +0.000 A 
ATOM     11  C   UNL     1       1.145   9.777  19.242  0.00  0.00    +0.000 A 
ATOM     12 CL   UNL     1       0.490  11.369  19.224  0.00  0.00    +0.000 Cl
ATOM     13  C   UNL     1       1.207   9.062  20.434  0.00  0.00    +0.000 A 
ATOM     14  C   UNL     1       1.648   7.734  20.430  0.00  0.00    +0.000 A 
ENDBRANCH   7   8
BRANCH   1  15
ATOM     15  C   UNL     1       4.568   6.092  18.320  0.00  0.00    +0.000 C 
BRANCH  15  22
ATOM     16  C   UNL     1       7.978   5.295  18.579  0.00  0.00    +0.000 C 
ATOM     17  C   UNL     1       6.959   5.085  17.521  0.00  0.00    +0.000 A 
ATOM     18  N   UNL     1       7.398   4.492  16.401  0.00  0.00    +0.000 NA
ATOM     19  N   UNL     1       6.345   4.482  15.588  0.00  0.00    +0.000 N 
ATOM     20  C   UNL     1       6.503   4.082  14.215  0.00  0.00    +0.000 C 
ATOM     21  C   UNL     1       5.201   4.934  16.171  0.00  0.00    +0.000 A 
ATOM     22  C   UNL     1       5.555   5.407  17.422  0.00  0.00    +0.000 A 
ENDBRANCH  15  22
ENDBRANCH   1  15
TORSDOF 3
ENDMDL
MODEL 3
REMARK VINA RESULT:      -7.8      1.139      1.182
REMARK  Name = 
REMARK  5 active torsions:
REMARK  status: ('A' for Active; 'I' for Inactive)
REMARK    1  A    between atoms: C_1  and  C_2
REMARK    2  A    between atoms: N_4  and  C_5
REMARK    3  A    between atoms: C_7  and  C_8
REMARK    4  A    between atoms: C_8  and  N_9
REMARK    5  A    between atoms: C_15  and  C_16
REMARK                            x       y       z     vdW  Elec       q    Type
REMARK                         _______ _______ _______ _____ _____    ______ ____
ROOT
ATOM      1  N   UNL     1       3.614   4.822  17.747  0.00  0.00    +0.000 NA
ATOM      2  C   UNL     1       4.282   3.535  17.848  0.00  0.00    +0.000 C 
ATOM      3  C   UNL     1       3.584   2.186  17.806  0.00  0.00    +0.000 C 
ATOM      4  C   UNL     1       2.495   1.991  18.835  0.00  0.00    +0.000 C 
ATOM      5  C   UNL     1       1.276   2.834  18.511  0.00  0.00    +0.000 C 
ATOM      6  C   UNL     1       1.420   4.266  19.009  0.00  0.00    +0.000 C 
ATOM      7  C   UNL     1       2.236   5.207  18.098  0.00  0.00    +0.000 C 
ENDROOT
BRANCH   7   8
ATOM      8  C   UNL     1       2.102   6.665  18.641  0.00  0.00    +0.000 A 
ATOM      9  C   UNL     1       2.008   7.783  17.793  0.00  0.00    +0.000 A 
ATOM     10  C   UNL     1       1.630   9.043  18.278  0.00  0.00    +0.000 A 
ATOM     11  C   UNL     1       1.416   9.221  19.637  0.00  0.00    +0.000 A 
ATOM     12 CL   UNL     1       0.883  10.747  20.230  0.00  0.00    +0.000 Cl
ATOM     13  C   UNL     1       1.615   8.162  20.517  0.00  0.00    +0.000 A 
ATOM     14  C   UNL     1       1.953   6.897  20.022  0.00  0.00    +0.000 A 
ENDBRANCH   7   8
BRANCH   1  15
ATOM     15  C   UNL     1       4.523   5.872  17.315  0.00  0.00    +0.000 C 
BRANCH  15  22
ATOM     16  C   UNL     1       7.782   4.813  18.080  0.00  0.00    +0.000 C 
ATOM     17  C   UNL     1       7.025   4.948  16.811  0.00  0.00    +0.000 A 
ATOM     18  N   UNL     1       7.700   4.635  15.695  0.00  0.00    +0.000 NA
ATOM     19  N   UNL     1       6.857   4.902  14.703  0.00  0.00    +0.000 N 
ATOM     20  C   UNL     1       7.316   4.857  13.339  0.00  0.00    +0.000 C 
ATOM     21  C   UNL     1       5.614   5.263  15.124  0.00  0.00    +0.000 A 
ATOM     22  C   UNL     1       5.681   5.376  16.501  0.00  0.00    +0.000 A 
ENDBRANCH  15  22
ENDBRANCH   1  15
TORSDOF 3
ENDMDL
MODEL 4
REMARK VINA RESULT:      -7.5      0.308      1.067
REMARK  Name = 
REMARK  5 active torsions:
REMARK  status: ('A' for Active; 'I' for Inactive)
REMARK    1  A    between atoms: C_1  and  C_2
REMARK    2  A    between atoms: N_4  and  C_5
REMARK    3  A    between atoms: C_7  and  C_8
REMARK    4  A    between atoms: C_8  and  N_9
REMARK    5  A    between atoms: C_15  and  C_16
REMARK                            x       y       z     vdW  Elec       q    Type
REMARK                         _______ _______ _______ _____ _____    ______ ____
ROOT
ATOM      1  N   UNL     1       3.961   4.606  18.789  0.00  0.00    +0.000 NA
ATOM      2  C   UNL     1       4.512   3.383  19.351  0.00  0.00    +0.000 C 
ATOM      3  C   UNL     1       3.980   1.985  19.085  0.00  0.00    +0.000 C 
ATOM      4  C   UNL     1       2.518   1.779  19.408  0.00  0.00    +0.000 C 
ATOM      5  C   UNL     1       1.629   2.502  18.413  0.00  0.00    +0.000 C 
ATOM      6  C   UNL     1       1.448   3.972  18.769  0.00  0.00    +0.000 C 
ATOM      7  C   UNL     1       2.595   4.907  18.329  0.00  0.00    +0.000 C 
ENDROOT
BRANCH   7   8
ATOM      8  C   UNL     1       2.153   6.385  18.575  0.00  0.00    +0.000 A 
ATOM      9  C   UNL     1       1.837   6.878  19.855  0.00  0.00    +0.000 A 
ATOM     10  C   UNL     1       1.697   8.250  20.099  0.00  0.00    +0.000 A 
ATOM     11  C   UNL     1       1.793   9.149  19.047  0.00  0.00    +0.000 A 
ATOM     12 CL   UNL     1       1.692  10.841  19.351  0.00  0.00    +0.000 Cl
ATOM     13  C   UNL     1       1.987   8.684  17.750  0.00  0.00    +0.000 A 
ATOM     14  C   UNL     1       2.167   7.316  17.519  0.00  0.00    +0.000 A 
ENDBRANCH   7   8
BRANCH   1  15
ATOM     15  C   UNL     1       4.931   5.689  18.794  0.00  0.00    +0.000 C 
BRANCH  15  22
ATOM     16  C   UNL     1       7.729   7.593  17.858  0.00  0.00    +0.000 C 
ATOM     17  C   UNL     1       6.994   6.475  17.214  0.00  0.00    +0.000 A 
ATOM     18  N   UNL     1       7.446   6.100  16.009  0.00  0.00    +0.000 NA
ATOM     19  N   UNL     1       6.600   5.155  15.609  0.00  0.00    +0.000 N 
ATOM     20  C   UNL     1       6.672   4.650  14.263  0.00  0.00    +0.000 C 
ATOM     21  C   UNL     1       5.681   4.809  16.552  0.00  0.00    +0.000 A 
ATOM     22  C   UNL     1       5.848   5.688  17.607  0.00  0.00    +0.000 A 
ENDBRANCH  15  22
ENDBRANCH   1  15
TORSDOF 3
ENDMDL
MODEL 5
REMARK VINA RESULT:      -7.4      1.524      4.723
REMARK  Name = 
REMARK  5 active torsions:
REMARK  status: ('A' for Active; 'I' for Inactive)
REMARK    1  A    between atoms: C_1  and  C_2
REMARK    2  A    between atoms: N_4  and  C_5
REMARK    3  A    between atoms: C_7  and  C_8
REMARK    4  A    between atoms: C_8  and  N_9
REMARK    5  A    between atoms: C_15  and  C_16
REMARK                            x       y       z     vdW  Elec       q    Type
REMARK                         _______ _______ _______ _____ _____    ______ ____
ROOT
ATOM      1  N   UNL     1       4.206   4.777  17.215  0.00  0.00    +0.000 NA
ATOM      2  C   UNL     1       4.853   4.030  16.147  0.00  0.00    +0.000 C 
ATOM      3  C   UNL     1       6.332   4.099  15.810  0.00  0.00    +0.000 C 
ATOM      4  C   UNL     1       6.862   5.482  15.511  0.00  0.00    +0.000 C 
ATOM      5  C   UNL     1       6.926   6.328  16.769  0.00  0.00    +0.000 C 
ATOM      6  C   UNL     1       5.584   6.969  17.098  0.00  0.00    +0.000 C 
ATOM      7  C   UNL     1       4.578   6.060  17.835  0.00  0.00    +0.000 C 
ENDROOT
BRANCH   7   8
ATOM      8  C   UNL     1       3.358   6.928  18.280  0.00  0.00    +0.000 A 
ATOM      9  C   UNL     1       2.799   6.843  19.569  0.00  0.00    +0.000 A 
ATOM     10  C   UNL     1       1.886   7.797  20.037  0.00  0.00    +0.000 A 
ATOM     11  C   UNL     1       1.457   8.811  19.193  0.00  0.00    +0.000 A 
ATOM     12 CL   UNL     1       0.391  10.027  19.784  0.00  0.00    +0.000 Cl
ATOM     13  C   UNL     1       1.901   8.853  17.876  0.00  0.00    +0.000 A 
ATOM     14  C   UNL     1       2.844   7.922  17.426  0.00  0.00    +0.000 A 
ENDBRANCH   7   8
BRANCH   1  15
ATOM     15  C   UNL     1       2.956   4.160  17.627  0.00  0.00    +0.000 C 
BRANCH  15  22
ATOM     16  C   UNL     1       0.913   3.825  20.463  0.00  0.00    +0.000 C 
ATOM     17  C   UNL     1       2.223   3.245  20.076  0.00  0.00    +0.000 A 
ATOM     18  N   UNL     1       2.792   2.438  20.983  0.00  0.00    +0.000 NA
ATOM     19  N   UNL     1       3.967   2.109  20.453  0.00  0.00    +0.000 N 
ATOM     20  C   UNL     1       4.934   1.392  21.242  0.00  0.00    +0.000 C 
ATOM     21  C   UNL     1       4.142   2.568  19.184  0.00  0.00    +0.000 A 
ATOM     22  C   UNL     1       3.056   3.378  18.904  0.00  0.00    +0.000 A 
ENDBRANCH  15  22
ENDBRANCH   1  15
TORSDOF 3
ENDMDL
MODEL 6
REMARK VINA RESULT:      -7.3      1.327      2.039
REMARK  Name = 
REMARK  5 active torsions:
REMARK  status: ('A' for Active; 'I' for Inactive)
REMARK    1  A    between atoms: C_1  and  C_2
REMARK    2  A    between atoms: N_4  and  C_5
REMARK    3  A    between atoms: C_7  and  C_8
REMARK    4  A    between atoms: C_8  and  N_9
REMARK    5  A    between atoms: C_15  and  C_16
REMARK                            x       y       z     vdW  Elec       q    Type
REMARK                         _______ _______ _______ _____ _____    ______ ____
ROOT
ATOM      1  N   UNL     1       3.631   4.771  19.614  0.00  0.00    +0.000 NA
ATOM      2  C   UNL     1       4.172   3.662  20.382  0.00  0.00    +0.000 C 
ATOM      3  C   UNL     1       3.396   2.420  20.785  0.00  0.00    +0.000 C 
ATOM      4  C   UNL     1       2.128   2.678  21.566  0.00  0.00    +0.000 C 
ATOM      5  C   UNL     1       1.053   3.283  20.683  0.00  0.00    +0.000 C 
ATOM      6  C   UNL     1       1.210   4.791  20.541  0.00  0.00    +0.000 C 
ATOM      7  C   UNL     1       2.245   5.254  19.492  0.00  0.00    +0.000 C 
ENDROOT
BRANCH   7   8
ATOM      8  C   UNL     1       2.123   6.802  19.324  0.00  0.00    +0.000 A 
ATOM      9  C   UNL     1       2.292   7.444  18.084  0.00  0.00    +0.000 A 
ATOM     10  C   UNL     1       1.928   8.784  17.895  0.00  0.00    +0.000 A 
ATOM     11  C   UNL     1       1.463   9.528  18.970  0.00  0.00    +0.000 A 
ATOM     12 CL   UNL     1       0.948  11.153  18.730  0.00  0.00    +0.000 Cl
ATOM     13  C   UNL     1       1.396   8.955  20.235  0.00  0.00    +0.000 A 
ATOM     14  C   UNL     1       1.721   7.605  20.408  0.00  0.00    +0.000 A 
ENDBRANCH   7   8
BRANCH   1  15
ATOM     15  C   UNL     1       4.678   5.540  18.961  0.00  0.00    +0.000 C 
BRANCH  15  22
ATOM     16  C   UNL     1       3.275   3.160  16.793  0.00  0.00    +0.000 C 
ATOM     17  C   UNL     1       4.419   4.099  16.675  0.00  0.00    +0.000 A 
ATOM     18  N   UNL     1       5.103   4.039  15.523  0.00  0.00    +0.000 NA
ATOM     19  N   UNL     1       6.104   4.900  15.679  0.00  0.00    +0.000 N 
ATOM     20  C   UNL     1       7.157   4.961  14.700  0.00  0.00    +0.000 C 
ATOM     21  C   UNL     1       6.038   5.611  16.838  0.00  0.00    +0.000 A 
ATOM     22  C   UNL     1       4.987   5.083  17.566  0.00  0.00    +0.000 A 
ENDBRANCH  15  22
ENDBRANCH   1  15
TORSDOF 3
ENDMDL
MODEL 7
REMARK VINA RESULT:      -7.2      1.596      4.915
REMARK  Name = 
REMARK  5 active torsions:
REMARK  status: ('A' for Active; 'I' for Inactive)
REMARK    1  A    between atoms: C_1  and  C_2
REMARK    2  A    between atoms: N_4  and  C_5
REMARK    3  A    between atoms: C_7  and  C_8
REMARK    4  A    between atoms: C_8  and  N_9
REMARK    5  A    between atoms: C_15  and  C_16
REMARK                            x       y       z     vdW  Elec       q    Type
REMARK                         _______ _______ _______ _____ _____    ______ ____
ROOT
ATOM      1  N   UNL     1       3.633   5.063  17.362  0.00  0.00    +0.000 NA
ATOM      2  C   UNL     1       4.253   4.264  16.316  0.00  0.00    +0.000 C 
ATOM      3  C   UNL     1       5.744   4.206  16.034  0.00  0.00    +0.000 C 
ATOM      4  C   UNL     1       6.402   5.539  15.763  0.00  0.00    +0.000 C 
ATOM      5  C   UNL     1       6.491   6.374  17.026  0.00  0.00    +0.000 C 
ATOM      6  C   UNL     1       5.198   7.128  17.307  0.00  0.00    +0.000 C 
ATOM      7  C   UNL     1       4.090   6.308  18.002  0.00  0.00    +0.000 C 
ENDROOT
BRANCH   7   8
ATOM      8  C   UNL     1       2.934   7.277  18.406  0.00  0.00    +0.000 A 
ATOM      9  C   UNL     1       2.371   7.288  19.696  0.00  0.00    +0.000 A 
ATOM     10  C   UNL     1       1.527   8.323  20.120  0.00  0.00    +0.000 A 
ATOM     11  C   UNL     1       1.168   9.325  19.230  0.00  0.00    +0.000 A 
ATOM     12 CL   UNL     1       0.189  10.637  19.764  0.00  0.00    +0.000 Cl
ATOM     13  C   UNL     1       1.614   9.279  17.913  0.00  0.00    +0.000 A 
ATOM     14  C   UNL     1       2.489   8.266  17.508  0.00  0.00    +0.000 A 
ENDBRANCH   7   8
BRANCH   1  15
ATOM     15  C   UNL     1       2.320   4.555  17.725  0.00  0.00    +0.000 C 
BRANCH  15  22
ATOM     16  C   UNL     1       3.646   1.348  18.257  0.00  0.00    +0.000 C 
ATOM     17  C   UNL     1       2.870   2.285  19.108  0.00  0.00    +0.000 A 
ATOM     18  N   UNL     1       2.570   1.841  20.337  0.00  0.00    +0.000 NA
ATOM     19  N   UNL     1       1.823   2.803  20.871  0.00  0.00    +0.000 N 
ATOM     20  C   UNL     1       1.163   2.582  22.131  0.00  0.00    +0.000 C 
ATOM     21  C   UNL     1       1.721   3.913  20.090  0.00  0.00    +0.000 A 
ATOM     22  C   UNL     1       2.334   3.608  18.888  0.00  0.00    +0.000 A 
ENDBRANCH  15  22
ENDBRANCH   1  15
TORSDOF 3
ENDMDL
MODEL 8
REMARK VINA RESULT:      -7.1      1.311      1.989
REMARK  Name = 
REMARK  5 active torsions:
REMARK  status: ('A' for Active; 'I' for Inactive)
REMARK    1  A    between atoms: C_1  and  C_2
REMARK    2  A    between atoms: N_4  and  C_5
REMARK    3  A    between atoms: C_7  and  C_8
REMARK    4  A    between atoms: C_8  and  N_9
REMARK    5  A    between atoms: C_15  and  C_16
REMARK                            x       y       z     vdW  Elec       q    Type
REMARK                         _______ _______ _______ _____ _____    ______ ____
ROOT
ATOM      1  N   UNL     1       3.292   4.564  17.716  0.00  0.00    +0.000 NA
ATOM      2  C   UNL     1       3.942   3.264  17.776  0.00  0.00    +0.000 C 
ATOM      3  C   UNL     1       3.219   1.935  17.909  0.00  0.00    +0.000 C 
ATOM      4  C   UNL     1       2.300   1.817  19.102  0.00  0.00    +0.000 C 
ATOM      5  C   UNL     1       1.062   2.677  18.929  0.00  0.00    +0.000 C 
ATOM      6  C   UNL     1       1.310   4.126  19.327  0.00  0.00    +0.000 C 
ATOM      7  C   UNL     1       1.993   5.002  18.255  0.00  0.00    +0.000 C 
ENDROOT
BRANCH   7   8
ATOM      8  C   UNL     1       1.974   6.486  18.740  0.00  0.00    +0.000 A 
ATOM      9  C   UNL     1       1.932   7.574  17.848  0.00  0.00    +0.000 A 
ATOM     10  C   UNL     1       1.654   8.874  18.289  0.00  0.00    +0.000 A 
ATOM     11  C   UNL     1       1.493   9.122  19.644  0.00  0.00    +0.000 A 
ATOM     12 CL   UNL     1       1.082  10.703  20.186  0.00  0.00    +0.000 Cl
ATOM     13  C   UNL     1       1.646   8.088  20.563  0.00  0.00    +0.000 A 
ATOM     14  C   UNL     1       1.882   6.784  20.113  0.00  0.00    +0.000 A 
ENDBRANCH   7   8
BRANCH   1  15
ATOM     15  C   UNL     1       4.143   5.567  17.097  0.00  0.00    +0.000 C 
BRANCH  15  22
ATOM     16  C   UNL     1       6.989   4.379  15.418  0.00  0.00    +0.000 C 
ATOM     17  C   UNL     1       6.765   4.943  16.773  0.00  0.00    +0.000 A 
ATOM     18  N   UNL     1       7.847   5.006  17.562  0.00  0.00    +0.000 NA
ATOM     19  N   UNL     1       7.392   5.464  18.725  0.00  0.00    +0.000 N 
ATOM     20  C   UNL     1       8.255   5.484  19.876  0.00  0.00    +0.000 C 
ATOM     21  C   UNL     1       6.078   5.820  18.695  0.00  0.00    +0.000 A 
ATOM     22  C   UNL     1       5.594   5.439  17.457  0.00  0.00    +0.000 A 
ENDBRANCH  15  22
ENDBRANCH   1  15
TORSDOF 3
ENDMDL
MODEL 9
REMARK VINA RESULT:      -7.1      3.038      5.223
REMARK  Name = 
REMARK  5 active torsions:
REMARK  status: ('A' for Active; 'I' for Inactive)
REMARK    1  A    between atoms: C_1  and  C_2
REMARK    2  A    between atoms: N_4  and  C_5
REMARK    3  A    between atoms: C_7  and  C_8
REMARK    4  A    between atoms: C_8  and  N_9
REMARK    5  A    between atoms: C_15  and  C_16
REMARK                            x       y       z     vdW  Elec       q    Type
REMARK                         _______ _______ _______ _____ _____    ______ ____
ROOT
ATOM      1  N   UNL     1       3.136   4.487  19.302  0.00  0.00    +0.000 NA
ATOM      2  C   UNL     1       1.797   4.489  19.871  0.00  0.00    +0.000 C 
ATOM      3  C   UNL     1       1.006   3.245  20.238  0.00  0.00    +0.000 C 
ATOM      4  C   UNL     1       0.807   2.253  19.116  0.00  0.00    +0.000 C 
ATOM      5  C   UNL     1       2.104   1.545  18.772  0.00  0.00    +0.000 C 
ATOM      6  C   UNL     1       2.971   2.364  17.825  0.00  0.00    +0.000 C 
ATOM      7  C   UNL     1       3.821   3.468  18.491  0.00  0.00    +0.000 C 
ENDROOT
BRANCH   7   8
ATOM      8  C   UNL     1       4.796   4.056  17.422  0.00  0.00    +0.000 A 
ATOM      9  C   UNL     1       6.117   4.432  17.728  0.00  0.00    +0.000 A 
ATOM     10  C   UNL     1       7.053   4.709  16.723  0.00  0.00    +0.000 A 
ATOM     11  C   UNL     1       6.660   4.691  15.393  0.00  0.00    +0.000 A 
ATOM     12 CL   UNL     1       7.820   4.961  14.150  0.00  0.00    +0.000 Cl
ATOM     13  C   UNL     1       5.332   4.438  15.064  0.00  0.00    +0.000 A 
ATOM     14  C   UNL     1       4.412   4.122  16.069  0.00  0.00    +0.000 A 
ENDBRANCH   7   8
BRANCH   1  15
ATOM     15  C   UNL     1       3.820   5.751  19.524  0.00  0.00    +0.000 C 
BRANCH  15  22
ATOM     16  C   UNL     1       4.301   7.490  16.512  0.00  0.00    +0.000 C 
ATOM     17  C   UNL     1       3.351   7.650  17.642  0.00  0.00    +0.000 A 
ATOM     18  N   UNL     1       2.497   8.679  17.542  0.00  0.00    +0.000 NA
ATOM     19  N   UNL     1       1.814   8.664  18.682  0.00  0.00    +0.000 N 
ATOM     20  C   UNL     1       0.927   9.751  19.002  0.00  0.00    +0.000 C 
ATOM     21  C   UNL     1       2.099   7.595  19.476  0.00  0.00    +0.000 A 
ATOM     22  C   UNL     1       3.151   6.927  18.875  0.00  0.00    +0.000 A 
ENDBRANCH  15  22
ENDBRANCH   1  15
TORSDOF 3
ENDMDL
