MODEL 1
REMARK VINA RESULT:      -7.7      0.000      0.000
REMARK  Name = 
REMARK  7 active torsions:
REMARK  status: ('A' for Active; 'I' for Inactive)
REMARK    1  A    between atoms: C_1  and  C_2
REMARK    2  A    between atoms: C_2  and  O_4
REMARK    3  A    between atoms: O_4  and  C_5
REMARK    4  A    between atoms: C_11  and  C_12
REMARK    5  A    between atoms: C_21  and  O_22
REMARK    6  A    between atoms: O_22  and  C_23
REMARK    7  A    between atoms: C_23  and  C_24
REMARK                            x       y       z     vdW  Elec       q    Type
REMARK                         _______ _______ _______ _____ _____    ______ ____
ROOT
ATOM      1  C   UNL     1       4.902   5.472  17.926  0.00  0.00    +0.000 A 
ATOM      2  C   UNL     1       4.780   6.414  16.900  0.00  0.00    +0.000 A 
ATOM      3  C   UNL     1       3.879   7.470  17.029  0.00  0.00    +0.000 A 
ATOM      4  C   UNL     1       3.055   7.545  18.156  0.00  0.00    +0.000 A 
ATOM      5  C   UNL     1       2.132   8.688  18.314  0.00  0.00    +0.000 A 
ATOM      6  O   UNL     1       2.047   9.562  17.456  0.00  0.00    +0.000 OA
ATOM      7  C   UNL     1       1.340   8.713  19.563  0.00  0.00    +0.000 A 
ATOM      8  C   UNL     1       1.418   7.639  20.362  0.00  0.00    +0.000 A 
ATOM      9  O   UNL     1       2.184   6.524  20.157  0.00  0.00    +0.000 OA
ATOM     10  C   UNL     1       3.094   6.544  19.135  0.00  0.00    +0.000 A 
ATOM     11  C   UNL     1       4.046   5.521  19.041  0.00  0.00    +0.000 A 
ENDROOT
BRANCH   7  12
ATOM     12  C   UNL     1       0.442   9.803  19.946  0.00  0.00    +0.000 A 
ATOM     13  C   UNL     1      -0.639  10.163  19.129  0.00  0.00    +0.000 A 
ATOM     14  C   UNL     1      -1.381  11.310  19.413  0.00  0.00    +0.000 A 
ATOM     15  C   UNL     1      -1.049  12.102  20.512  0.00  0.00    +0.000 A 
ATOM     16  C   UNL     1       0.008  11.736  21.343  0.00  0.00    +0.000 A 
ATOM     17  C   UNL     1       0.749  10.588  21.065  0.00  0.00    +0.000 A 
ENDBRANCH   7  12
BRANCH   1  18
ATOM     18  O   UNL     1       5.839   4.413  17.845  0.00  0.00    +0.000 OA
BRANCH  18  20
ATOM     19  C   UNL     1       7.705   5.457  18.863  0.00  0.00    +0.000 C 
ATOM     20  C   UNL     1       7.202   4.688  17.682  0.00  0.00    +0.000 C 
ATOM     21  O   UNL     1       7.903   4.385  16.727  0.00  0.00    +0.000 OA
ENDBRANCH  18  20
ENDBRANCH   1  18
BRANCH  11  22
ATOM     22  O   UNL     1       4.158   4.451  19.975  0.00  0.00    +0.000 OA
BRANCH  22  23
ATOM     23  C   UNL     1       3.410   3.266  19.950  0.00  0.00    +0.000 C 
ATOM     24  C   UNL     1       2.548   3.196  21.180  0.00  0.00    +0.000 C 
ATOM     25  O   UNL     1       3.363   2.440  19.051  0.00  0.00    +0.000 OA
ENDBRANCH  22  23
ENDBRANCH  11  22
TORSDOF 5
ENDMDL
MODEL 2
REMARK VINA RESULT:      -7.7      1.345      1.889
REMARK  Name = 
REMARK  7 active torsions:
REMARK  status: ('A' for Active; 'I' for Inactive)
REMARK    1  A    between atoms: C_1  and  C_2
REMARK    2  A    between atoms: C_2  and  O_4
REMARK    3  A    between atoms: O_4  and  C_5
REMARK    4  A    between atoms: C_11  and  C_12
REMARK    5  A    between atoms: C_21  and  O_22
REMARK    6  A    between atoms: O_22  and  C_23
REMARK    7  A    between atoms: C_23  and  C_24
REMARK                            x       y       z     vdW  Elec       q    Type
REMARK                         _______ _______ _______ _____ _____    ______ ____
ROOT
ATOM      1  C   UNL     1       4.790   5.025  17.353  0.00  0.00    +0.000 A 
ATOM      2  C   UNL     1       4.613   6.179  16.583  0.00  0.00    +0.000 A 
ATOM      3  C   UNL     1       3.814   7.216  17.060  0.00  0.00    +0.000 A 
ATOM      4  C   UNL     1       3.141   7.072  18.277  0.00  0.00    +0.000 A 
ATOM      5  C   UNL     1       2.331   8.189  18.803  0.00  0.00    +0.000 A 
ATOM      6  O   UNL     1       2.206   9.237  18.175  0.00  0.00    +0.000 OA
ATOM      7  C   UNL     1       1.701   7.967  20.123  0.00  0.00    +0.000 A 
ATOM      8  C   UNL     1       1.797   6.739  20.651  0.00  0.00    +0.000 A 
ATOM      9  O   UNL     1       2.449   5.665  20.107  0.00  0.00    +0.000 OA
ATOM     10  C   UNL     1       3.226   5.875  19.000  0.00  0.00    +0.000 A 
ATOM     11  C   UNL     1       4.083   4.859  18.558  0.00  0.00    +0.000 A 
ENDROOT
BRANCH   7  12
ATOM     12  C   UNL     1       0.938   8.981  20.853  0.00  0.00    +0.000 A 
ATOM     13  C   UNL     1       0.873   8.959  22.253  0.00  0.00    +0.000 A 
ATOM     14  C   UNL     1       0.005   9.820  22.928  0.00  0.00    +0.000 A 
ATOM     15  C   UNL     1      -0.801  10.703  22.209  0.00  0.00    +0.000 A 
ATOM     16  C   UNL     1      -0.722  10.746  20.819  0.00  0.00    +0.000 A 
ATOM     17  C   UNL     1       0.147   9.892  20.141  0.00  0.00    +0.000 A 
ENDBRANCH   7  12
BRANCH   1  18
ATOM     18  O   UNL     1       5.631   3.972  16.918  0.00  0.00    +0.000 OA
BRANCH  18  20
ATOM     19  C   UNL     1       6.350   3.960  14.662  0.00  0.00    +0.000 C 
ATOM     20  C   UNL     1       6.723   4.239  16.085  0.00  0.00    +0.000 C 
ATOM     21  O   UNL     1       7.834   4.620  16.428  0.00  0.00    +0.000 OA
ENDBRANCH  18  20
ENDBRANCH   1  18
BRANCH  11  22
ATOM     22  O   UNL     1       4.229   3.602  19.212  0.00  0.00    +0.000 OA
BRANCH  22  23
ATOM     23  C   UNL     1       3.257   2.594  19.268  0.00  0.00    +0.000 C 
ATOM     24  C   UNL     1       3.425   1.674  18.092  0.00  0.00    +0.000 C 
ATOM     25  O   UNL     1       2.443   2.402  20.159  0.00  0.00    +0.000 OA
ENDBRANCH  22  23
ENDBRANCH  11  22
TORSDOF 5
ENDMDL
MODEL 3
REMARK VINA RESULT:      -7.7      2.713      7.217
REMARK  Name = 
REMARK  7 active torsions:
REMARK  status: ('A' for Active; 'I' for Inactive)
REMARK    1  A    between atoms: C_1  and  C_2
REMARK    2  A    between atoms: C_2  and  O_4
REMARK    3  A    between atoms: O_4  and  C_5
REMARK    4  A    between atoms: C_11  and  C_12
REMARK    5  A    between atoms: C_21  and  O_22
REMARK    6  A    between atoms: O_22  and  C_23
REMARK    7  A    between atoms: C_23  and  C_24
REMARK                            x       y       z     vdW  Elec       q    Type
REMARK                         _______ _______ _______ _____ _____    ______ ____
ROOT
ATOM      1  C   UNL     1       2.339   6.645  19.662  0.00  0.00    +0.000 A 
ATOM      2  C   UNL     1       2.555   7.761  18.847  0.00  0.00    +0.000 A 
ATOM      3  C   UNL     1       3.323   7.639  17.691  0.00  0.00    +0.000 A 
ATOM      4  C   UNL     1       3.929   6.416  17.386  0.00  0.00    +0.000 A 
ATOM      5  C   UNL     1       4.706   6.275  16.137  0.00  0.00    +0.000 A 
ATOM      6  O   UNL     1       4.862   7.223  15.372  0.00  0.00    +0.000 OA
ATOM      7  C   UNL     1       5.264   4.931  15.870  0.00  0.00    +0.000 A 
ATOM      8  C   UNL     1       5.144   4.012  16.838  0.00  0.00    +0.000 A 
ATOM      9  O   UNL     1       4.526   4.177  18.048  0.00  0.00    +0.000 OA
ATOM     10  C   UNL     1       3.809   5.325  18.255  0.00  0.00    +0.000 A 
ATOM     11  C   UNL     1       2.981   5.426  19.381  0.00  0.00    +0.000 A 
ENDROOT
BRANCH   7  12
ATOM     12  C   UNL     1       5.983   4.566  14.649  0.00  0.00    +0.000 A 
ATOM     13  C   UNL     1       7.204   5.174  14.327  0.00  0.00    +0.000 A 
ATOM     14  C   UNL     1       7.792   4.950  13.080  0.00  0.00    +0.000 A 
ATOM     15  C   UNL     1       7.164   4.119  12.152  0.00  0.00    +0.000 A 
ATOM     16  C   UNL     1       5.963   3.492  12.476  0.00  0.00    +0.000 A 
ATOM     17  C   UNL     1       5.375   3.710  13.722  0.00  0.00    +0.000 A 
ENDBRANCH   7  12
BRANCH   1  18
ATOM     18  O   UNL     1       1.528   6.725  20.820  0.00  0.00    +0.000 OA
BRANCH  18  20
ATOM     19  C   UNL     1      -0.301   8.185  21.184  0.00  0.00    +0.000 C 
ATOM     20  C   UNL     1       1.172   7.972  21.347  0.00  0.00    +0.000 C 
ATOM     21  O   UNL     1       1.920   8.799  21.850  0.00  0.00    +0.000 OA
ENDBRANCH  18  20
ENDBRANCH   1  18
BRANCH  11  22
ATOM     22  O   UNL     1       2.804   4.380  20.333  0.00  0.00    +0.000 OA
BRANCH  22  23
ATOM     23  C   UNL     1       1.694   3.528  20.411  0.00  0.00    +0.000 C 
ATOM     24  C   UNL     1       1.247   3.165  19.022  0.00  0.00    +0.000 C 
ATOM     25  O   UNL     1       1.193   3.057  21.421  0.00  0.00    +0.000 OA
ENDBRANCH  22  23
ENDBRANCH  11  22
TORSDOF 5
ENDMDL
MODEL 4
REMARK VINA RESULT:      -7.6      0.497      1.148
REMARK  Name = 
REMARK  7 active torsions:
REMARK  status: ('A' for Active; 'I' for Inactive)
REMARK    1  A    between atoms: C_1  and  C_2
REMARK    2  A    between atoms: C_2  and  O_4
REMARK    3  A    between atoms: O_4  and  C_5
REMARK    4  A    between atoms: C_11  and  C_12
REMARK    5  A    between atoms: C_21  and  O_22
REMARK    6  A    between atoms: O_22  and  C_23
REMARK    7  A    between atoms: C_23  and  C_24
REMARK                            x       y       z     vdW  Elec       q    Type
REMARK                         _______ _______ _______ _____ _____    ______ ____
ROOT
ATOM      1  C   UNL     1       4.896   5.541  17.869  0.00  0.00    +0.000 A 
ATOM      2  C   UNL     1       4.770   6.462  16.825  0.00  0.00    +0.000 A 
ATOM      3  C   UNL     1       3.884   7.531  16.944  0.00  0.00    +0.000 A 
ATOM      4  C   UNL     1       3.077   7.641  18.080  0.00  0.00    +0.000 A 
ATOM      5  C   UNL     1       2.171   8.799  18.227  0.00  0.00    +0.000 A 
ATOM      6  O   UNL     1       2.085   9.656  17.351  0.00  0.00    +0.000 OA
ATOM      7  C   UNL     1       1.398   8.861  19.486  0.00  0.00    +0.000 A 
ATOM      8  C   UNL     1       1.473   7.804  20.307  0.00  0.00    +0.000 A 
ATOM      9  O   UNL     1       2.223   6.674  20.116  0.00  0.00    +0.000 OA
ATOM     10  C   UNL     1       3.118   6.661  19.081  0.00  0.00    +0.000 A 
ATOM     11  C   UNL     1       4.056   5.624  18.995  0.00  0.00    +0.000 A 
ENDROOT
BRANCH   7  12
ATOM     12  C   UNL     1       0.518   9.970  19.858  0.00  0.00    +0.000 A 
ATOM     13  C   UNL     1       0.699  10.652  21.069  0.00  0.00    +0.000 A 
ATOM     14  C   UNL     1      -0.246  11.587  21.495  0.00  0.00    +0.000 A 
ATOM     15  C   UNL     1      -1.374  11.844  20.716  0.00  0.00    +0.000 A 
ATOM     16  C   UNL     1      -1.546  11.187  19.499  0.00  0.00    +0.000 A 
ATOM     17  C   UNL     1      -0.602  10.257  19.068  0.00  0.00    +0.000 A 
ENDBRANCH   7  12
BRANCH   1  18
ATOM     18  O   UNL     1       5.818   4.469  17.798  0.00  0.00    +0.000 OA
BRANCH  18  20
ATOM     19  C   UNL     1       7.701   5.515  18.782  0.00  0.00    +0.000 C 
ATOM     20  C   UNL     1       7.183   4.723  17.622  0.00  0.00    +0.000 C 
ATOM     21  O   UNL     1       7.876   4.388  16.671  0.00  0.00    +0.000 OA
ENDBRANCH  18  20
ENDBRANCH   1  18
BRANCH  11  22
ATOM     22  O   UNL     1       4.168   4.573  19.950  0.00  0.00    +0.000 OA
BRANCH  22  23
ATOM     23  C   UNL     1       3.398   3.403  19.967  0.00  0.00    +0.000 C 
ATOM     24  C   UNL     1       4.309   2.207  19.928  0.00  0.00    +0.000 C 
ATOM     25  O   UNL     1       2.185   3.318  20.088  0.00  0.00    +0.000 OA
ENDBRANCH  22  23
ENDBRANCH  11  22
TORSDOF 5
ENDMDL
MODEL 5
REMARK VINA RESULT:      -7.6      1.492      1.868
REMARK  Name = 
REMARK  7 active torsions:
REMARK  status: ('A' for Active; 'I' for Inactive)
REMARK    1  A    between atoms: C_1  and  C_2
REMARK    2  A    between atoms: C_2  and  O_4
REMARK    3  A    between atoms: O_4  and  C_5
REMARK    4  A    between atoms: C_11  and  C_12
REMARK    5  A    between atoms: C_21  and  O_22
REMARK    6  A    between atoms: O_22  and  C_23
REMARK    7  A    between atoms: C_23  and  C_24
REMARK                            x       y       z     vdW  Elec       q    Type
REMARK                         _______ _______ _______ _____ _____    ______ ____
ROOT
ATOM      1  C   UNL     1       5.290   5.426  16.997  0.00  0.00    +0.000 A 
ATOM      2  C   UNL     1       4.907   6.532  16.232  0.00  0.00    +0.000 A 
ATOM      3  C   UNL     1       3.965   7.429  16.731  0.00  0.00    +0.000 A 
ATOM      4  C   UNL     1       3.359   7.184  17.968  0.00  0.00    +0.000 A 
ATOM      5  C   UNL     1       2.395   8.159  18.518  0.00  0.00    +0.000 A 
ATOM      6  O   UNL     1       2.084   9.170  17.893  0.00  0.00    +0.000 OA
ATOM      7  C   UNL     1       1.847   7.844  19.855  0.00  0.00    +0.000 A 
ATOM      8  C   UNL     1       2.155   6.650  20.380  0.00  0.00    +0.000 A 
ATOM      9  O   UNL     1       2.955   5.693  19.817  0.00  0.00    +0.000 OA
ATOM     10  C   UNL     1       3.657   6.021  18.689  0.00  0.00    +0.000 A 
ATOM     11  C   UNL     1       4.653   5.153  18.221  0.00  0.00    +0.000 A 
ENDROOT
BRANCH   7  12
ATOM     12  C   UNL     1       0.951   8.725  20.606  0.00  0.00    +0.000 A 
ATOM     13  C   UNL     1       0.208   9.717  19.952  0.00  0.00    +0.000 A 
ATOM     14  C   UNL     1      -0.505  10.662  20.693  0.00  0.00    +0.000 A 
ATOM     15  C   UNL     1      -0.477  10.620  22.087  0.00  0.00    +0.000 A 
ATOM     16  C   UNL     1       0.240   9.621  22.743  0.00  0.00    +0.000 A 
ATOM     17  C   UNL     1       0.949   8.673  22.006  0.00  0.00    +0.000 A 
ENDBRANCH   7  12
BRANCH   1  18
ATOM     18  O   UNL     1       6.276   4.519  16.538  0.00  0.00    +0.000 OA
BRANCH  18  20
ATOM     19  C   UNL     1       6.104   3.798  14.288  0.00  0.00    +0.000 C 
ATOM     20  C   UNL     1       6.834   4.670  15.263  0.00  0.00    +0.000 C 
ATOM     21  O   UNL     1       7.784   5.376  14.954  0.00  0.00    +0.000 OA
ENDBRANCH  18  20
ENDBRANCH   1  18
BRANCH  11  22
ATOM     22  O   UNL     1       5.019   3.939  18.872  0.00  0.00    +0.000 OA
BRANCH  22  23
ATOM     23  C   UNL     1       4.161   2.862  19.129  0.00  0.00    +0.000 C 
ATOM     24  C   UNL     1       3.521   2.417  17.843  0.00  0.00    +0.000 C 
ATOM     25  O   UNL     1       3.997   2.285  20.194  0.00  0.00    +0.000 OA
ENDBRANCH  22  23
ENDBRANCH  11  22
TORSDOF 5
ENDMDL
MODEL 6
REMARK VINA RESULT:      -7.6      1.169      1.639
REMARK  Name = 
REMARK  7 active torsions:
REMARK  status: ('A' for Active; 'I' for Inactive)
REMARK    1  A    between atoms: C_1  and  C_2
REMARK    2  A    between atoms: C_2  and  O_4
REMARK    3  A    between atoms: O_4  and  C_5
REMARK    4  A    between atoms: C_11  and  C_12
REMARK    5  A    between atoms: C_21  and  O_22
REMARK    6  A    between atoms: O_22  and  C_23
REMARK    7  A    between atoms: C_23  and  C_24
REMARK                            x       y       z     vdW  Elec       q    Type
REMARK                         _______ _______ _______ _____ _____    ______ ____
ROOT
ATOM      1  C   UNL     1       4.022   5.767  18.247  0.00  0.00    +0.000 A 
ATOM      2  C   UNL     1       3.868   6.830  17.350  0.00  0.00    +0.000 A 
ATOM      3  C   UNL     1       3.049   7.907  17.683  0.00  0.00    +0.000 A 
ATOM      4  C   UNL     1       2.334   7.890  18.884  0.00  0.00    +0.000 A 
ATOM      5  C   UNL     1       1.501   9.052  19.258  0.00  0.00    +0.000 A 
ATOM      6  O   UNL     1       1.395  10.025  18.516  0.00  0.00    +0.000 OA
ATOM      7  C   UNL     1       0.826   8.969  20.571  0.00  0.00    +0.000 A 
ATOM      8  C   UNL     1       0.906   7.806  21.232  0.00  0.00    +0.000 A 
ATOM      9  O   UNL     1       1.581   6.685  20.831  0.00  0.00    +0.000 OA
ATOM     10  C   UNL     1       2.397   6.780  19.736  0.00  0.00    +0.000 A 
ATOM     11  C   UNL     1       3.272   5.727  19.436  0.00  0.00    +0.000 A 
ENDROOT
BRANCH   7  12
ATOM     12  C   UNL     1       0.033  10.051  21.159  0.00  0.00    +0.000 A 
ATOM     13  C   UNL     1      -0.234  10.077  22.535  0.00  0.00    +0.000 A 
ATOM     14  C   UNL     1      -1.131  11.010  23.057  0.00  0.00    +0.000 A 
ATOM     15  C   UNL     1      -1.766  11.918  22.210  0.00  0.00    +0.000 A 
ATOM     16  C   UNL     1      -1.485  11.913  20.845  0.00  0.00    +0.000 A 
ATOM     17  C   UNL     1      -0.585  10.986  20.320  0.00  0.00    +0.000 A 
ENDBRANCH   7  12
BRANCH   1  18
ATOM     18  O   UNL     1       4.880   4.679  17.958  0.00  0.00    +0.000 OA
BRANCH  18  20
ATOM     19  C   UNL     1       7.061   4.657  17.034  0.00  0.00    +0.000 C 
ATOM     20  C   UNL     1       6.240   4.748  18.283  0.00  0.00    +0.000 C 
ATOM     21  O   UNL     1       6.725   4.844  19.402  0.00  0.00    +0.000 OA
ENDBRANCH  18  20
ENDBRANCH   1  18
BRANCH  11  22
ATOM     22  O   UNL     1       3.399   4.550  20.228  0.00  0.00    +0.000 OA
BRANCH  22  23
ATOM     23  C   UNL     1       2.531   3.450  20.198  0.00  0.00    +0.000 C 
ATOM     24  C   UNL     1       1.999   3.197  21.580  0.00  0.00    +0.000 C 
ATOM     25  O   UNL     1       2.165   2.825  19.213  0.00  0.00    +0.000 OA
ENDBRANCH  22  23
ENDBRANCH  11  22
TORSDOF 5
ENDMDL
MODEL 7
REMARK VINA RESULT:      -7.6      1.736      3.467
REMARK  Name = 
REMARK  7 active torsions:
REMARK  status: ('A' for Active; 'I' for Inactive)
REMARK    1  A    between atoms: C_1  and  C_2
REMARK    2  A    between atoms: C_2  and  O_4
REMARK    3  A    between atoms: O_4  and  C_5
REMARK    4  A    between atoms: C_11  and  C_12
REMARK    5  A    between atoms: C_21  and  O_22
REMARK    6  A    between atoms: O_22  and  C_23
REMARK    7  A    between atoms: C_23  and  C_24
REMARK                            x       y       z     vdW  Elec       q    Type
REMARK                         _______ _______ _______ _____ _____    ______ ____
ROOT
ATOM      1  C   UNL     1       3.745   4.741  18.933  0.00  0.00    +0.000 A 
ATOM      2  C   UNL     1       3.127   4.882  20.180  0.00  0.00    +0.000 A 
ATOM      3  C   UNL     1       2.384   6.026  20.462  0.00  0.00    +0.000 A 
ATOM      4  C   UNL     1       2.313   7.057  19.521  0.00  0.00    +0.000 A 
ATOM      5  C   UNL     1       1.487   8.250  19.801  0.00  0.00    +0.000 A 
ATOM      6  O   UNL     1       0.885   8.373  20.865  0.00  0.00    +0.000 OA
ATOM      7  C   UNL     1       1.427   9.264  18.726  0.00  0.00    +0.000 A 
ATOM      8  C   UNL     1       2.230   9.086  17.667  0.00  0.00    +0.000 A 
ATOM      9  O   UNL     1       3.086   8.038  17.460  0.00  0.00    +0.000 OA
ATOM     10  C   UNL     1       3.020   6.972  18.315  0.00  0.00    +0.000 A 
ATOM     11  C   UNL     1       3.711   5.794  18.001  0.00  0.00    +0.000 A 
ENDROOT
BRANCH   7  12
ATOM     12  C   UNL     1       0.595  10.468  18.774  0.00  0.00    +0.000 A 
ATOM     13  C   UNL     1      -0.770  10.408  18.461  0.00  0.00    +0.000 A 
ATOM     14  C   UNL     1      -1.513  11.584  18.339  0.00  0.00    +0.000 A 
ATOM     15  C   UNL     1      -0.897  12.821  18.528  0.00  0.00    +0.000 A 
ATOM     16  C   UNL     1       0.454  12.885  18.865  0.00  0.00    +0.000 A 
ATOM     17  C   UNL     1       1.198  11.713  18.992  0.00  0.00    +0.000 A 
ENDBRANCH   7  12
BRANCH   1  18
ATOM     18  O   UNL     1       4.471   3.572  18.599  0.00  0.00    +0.000 OA
BRANCH  18  20
ATOM     19  C   UNL     1       3.085   1.652  18.628  0.00  0.00    +0.000 C 
ATOM     20  C   UNL     1       4.227   2.372  19.277  0.00  0.00    +0.000 C 
ATOM     21  O   UNL     1       4.815   1.952  20.263  0.00  0.00    +0.000 OA
ENDBRANCH  18  20
ENDBRANCH   1  18
BRANCH  11  22
ATOM     22  O   UNL     1       4.471   5.612  16.809  0.00  0.00    +0.000 OA
BRANCH  22  23
ATOM     23  C   UNL     1       5.796   6.026  16.617  0.00  0.00    +0.000 C 
ATOM     24  C   UNL     1       6.602   4.880  16.075  0.00  0.00    +0.000 C 
ATOM     25  O   UNL     1       6.247   7.153  16.765  0.00  0.00    +0.000 OA
ENDBRANCH  22  23
ENDBRANCH  11  22
TORSDOF 5
ENDMDL
MODEL 8
REMARK VINA RESULT:      -7.5      1.368      1.709
REMARK  Name = 
REMARK  7 active torsions:
REMARK  status: ('A' for Active; 'I' for Inactive)
REMARK    1  A    between atoms: C_1  and  C_2
REMARK    2  A    between atoms: C_2  and  O_4
REMARK    3  A    between atoms: O_4  and  C_5
REMARK    4  A    between atoms: C_11  and  C_12
REMARK    5  A    between atoms: C_21  and  O_22
REMARK    6  A    between atoms: O_22  and  C_23
REMARK    7  A    between atoms: C_23  and  C_24
REMARK                            x       y       z     vdW  Elec       q    Type
REMARK                         _______ _______ _______ _____ _____    ______ ____
ROOT
ATOM      1  C   UNL     1       4.606   5.076  17.596  0.00  0.00    +0.000 A 
ATOM      2  C   UNL     1       4.522   6.283  16.895  0.00  0.00    +0.000 A 
ATOM      3  C   UNL     1       3.708   7.309  17.371  0.00  0.00    +0.000 A 
ATOM      4  C   UNL     1       2.928   7.103  18.513  0.00  0.00    +0.000 A 
ATOM      5  C   UNL     1       2.100   8.206  19.044  0.00  0.00    +0.000 A 
ATOM      6  O   UNL     1       2.054   9.296  18.481  0.00  0.00    +0.000 OA
ATOM      7  C   UNL     1       1.353   7.914  20.286  0.00  0.00    +0.000 A 
ATOM      8  C   UNL     1       1.374   6.651  20.735  0.00  0.00    +0.000 A 
ATOM      9  O   UNL     1       2.047   5.598  20.177  0.00  0.00    +0.000 OA
ATOM     10  C   UNL     1       2.923   5.859  19.158  0.00  0.00    +0.000 A 
ATOM     11  C   UNL     1       3.792   4.851  18.721  0.00  0.00    +0.000 A 
ENDROOT
BRANCH   7  12
ATOM     12  C   UNL     1       0.552   8.899  21.016  0.00  0.00    +0.000 A 
ATOM     13  C   UNL     1      -0.047   9.974  20.345  0.00  0.00    +0.000 A 
ATOM     14  C   UNL     1      -0.659  10.999  21.069  0.00  0.00    +0.000 A 
ATOM     15  C   UNL     1      -0.674  10.955  22.463  0.00  0.00    +0.000 A 
ATOM     16  C   UNL     1      -0.103   9.876  23.135  0.00  0.00    +0.000 A 
ATOM     17  C   UNL     1       0.505   8.848  22.415  0.00  0.00    +0.000 A 
ENDBRANCH   7  12
BRANCH   1  18
ATOM     18  O   UNL     1       5.457   4.031  17.163  0.00  0.00    +0.000 OA
BRANCH  18  20
ATOM     19  C   UNL     1       6.159   3.922  14.904  0.00  0.00    +0.000 C 
ATOM     20  C   UNL     1       6.528   4.303  16.305  0.00  0.00    +0.000 C 
ATOM     21  O   UNL     1       7.620   4.759  16.613  0.00  0.00    +0.000 OA
ENDBRANCH  18  20
ENDBRANCH   1  18
BRANCH  11  22
ATOM     22  O   UNL     1       3.852   3.549  19.298  0.00  0.00    +0.000 OA
BRANCH  22  23
ATOM     23  C   UNL     1       2.960   2.501  19.038  0.00  0.00    +0.000 C 
ATOM     24  C   UNL     1       3.707   1.354  18.416  0.00  0.00    +0.000 C 
ATOM     25  O   UNL     1       1.776   2.446  19.336  0.00  0.00    +0.000 OA
ENDBRANCH  22  23
ENDBRANCH  11  22
TORSDOF 5
ENDMDL
MODEL 9
REMARK VINA RESULT:      -7.5      1.812      3.550
REMARK  Name = 
REMARK  7 active torsions:
REMARK  status: ('A' for Active; 'I' for Inactive)
REMARK    1  A    between atoms: C_1  and  C_2
REMARK    2  A    between atoms: C_2  and  O_4
REMARK    3  A    between atoms: O_4  and  C_5
REMARK    4  A    between atoms: C_11  and  C_12
REMARK    5  A    between atoms: C_21  and  O_22
REMARK    6  A    between atoms: O_22  and  C_23
REMARK    7  A    between atoms: C_23  and  C_24
REMARK                            x       y       z     vdW  Elec       q    Type
REMARK                         _______ _______ _______ _____ _____    ______ ____
ROOT
ATOM      1  C   UNL     1       3.330   4.821  18.969  0.00  0.00    +0.000 A 
ATOM      2  C   UNL     1       2.744   5.004  20.225  0.00  0.00    +0.000 A 
ATOM      3  C   UNL     1       2.104   6.206  20.525  0.00  0.00    +0.000 A 
ATOM      4  C   UNL     1       2.106   7.245  19.591  0.00  0.00    +0.000 A 
ATOM      5  C   UNL     1       1.388   8.502  19.890  0.00  0.00    +0.000 A 
ATOM      6  O   UNL     1       0.815   8.668  20.963  0.00  0.00    +0.000 OA
ATOM      7  C   UNL     1       1.398   9.524  18.821  0.00  0.00    +0.000 A 
ATOM      8  C   UNL     1       2.167   9.286  17.750  0.00  0.00    +0.000 A 
ATOM      9  O   UNL     1       2.929   8.171  17.523  0.00  0.00    +0.000 OA
ATOM     10  C   UNL     1       2.786   7.108  18.373  0.00  0.00    +0.000 A 
ATOM     11  C   UNL     1       3.370   5.878  18.043  0.00  0.00    +0.000 A 
ENDROOT
BRANCH   7  12
ATOM     12  C   UNL     1       0.671  10.793  18.889  0.00  0.00    +0.000 A 
ATOM     13  C   UNL     1      -0.720  10.831  18.727  0.00  0.00    +0.000 A 
ATOM     14  C   UNL     1      -1.380  12.056  18.618  0.00  0.00    +0.000 A 
ATOM     15  C   UNL     1      -0.654  13.247  18.669  0.00  0.00    +0.000 A 
ATOM     16  C   UNL     1       0.726  13.215  18.855  0.00  0.00    +0.000 A 
ATOM     17  C   UNL     1       1.388  11.993  18.969  0.00  0.00    +0.000 A 
ENDBRANCH   7  12
BRANCH   1  18
ATOM     18  O   UNL     1       3.950   3.597  18.617  0.00  0.00    +0.000 OA
BRANCH  18  20
ATOM     19  C   UNL     1       3.702   1.242  18.625  0.00  0.00    +0.000 C 
ATOM     20  C   UNL     1       3.188   2.545  18.096  0.00  0.00    +0.000 C 
ATOM     21  O   UNL     1       2.255   2.632  17.310  0.00  0.00    +0.000 OA
ENDBRANCH  18  20
ENDBRANCH   1  18
BRANCH  11  22
ATOM     22  O   UNL     1       4.095   5.642  16.839  0.00  0.00    +0.000 OA
BRANCH  22  23
ATOM     23  C   UNL     1       5.192   6.387  16.388  0.00  0.00    +0.000 C 
ATOM     24  C   UNL     1       6.270   6.370  17.435  0.00  0.00    +0.000 C 
ATOM     25  O   UNL     1       5.331   6.908  15.290  0.00  0.00    +0.000 OA
ENDBRANCH  22  23
ENDBRANCH  11  22
TORSDOF 5
ENDMDL
