MODEL 1
REMARK VINA RESULT:      -7.2      0.000      0.000
REMARK  Name = 
REMARK  6 active torsions:
REMARK  status: ('A' for Active; 'I' for Inactive)
REMARK    1  A    between atoms: C_1  and  C_2
REMARK    2  A    between atoms: C_2  and  O_3
REMARK    3  A    between atoms: O_3  and  C_4
REMARK    4  A    between atoms: C_4  and  C_6
REMARK    5  A    between atoms: C_11  and  N_12
REMARK    6  A    between atoms: C_13  and  C_15
REMARK                            x       y       z     vdW  Elec       q    Type
REMARK                         _______ _______ _______ _____ _____    ______ ____
ROOT
ATOM      1  C   UNL     1       2.320   3.654  18.980  0.00  0.00    +0.000 A 
ATOM      2  C   UNL     1       1.589   3.444  20.173  0.00  0.00    +0.000 A 
ATOM      3  C   UNL     1       2.140   2.754  21.247  0.00  0.00    +0.000 A 
ATOM      4  C   UNL     1       3.430   2.272  21.151  0.00  0.00    +0.000 A 
ATOM      5  C   UNL     1       4.161   2.459  19.975  0.00  0.00    +0.000 A 
ATOM      6  C   UNL     1       3.626   3.123  18.860  0.00  0.00    +0.000 A 
ENDROOT
BRANCH   6   7
ATOM      7  N   UNL     1       4.401   3.273  17.665  0.00  0.00    +0.000 N 
ATOM      8  C   UNL     1       5.369   4.259  17.479  0.00  0.00    +0.000 C 
ATOM      9  O   UNL     1       5.743   5.052  18.340  0.00  0.00    +0.000 OA
ATOM     10  H   UNL     1       4.345   2.501  17.001  0.00  0.00    +0.000 HD
BRANCH   8  11
ATOM     11  C   UNL     1       6.047   4.358  16.169  0.00  0.00    +0.000 A 
ATOM     12  C   UNL     1       5.712   3.623  15.034  0.00  0.00    +0.000 A 
ATOM     13  C   UNL     1       6.377   3.892  13.832  0.00  0.00    +0.000 A 
ATOM     14  C   UNL     1       7.352   4.880  13.811  0.00  0.00    +0.000 A 
ATOM     15  N   UNL     1       7.697   5.611  14.888  0.00  0.00    +0.000 NA
ATOM     16  C   UNL     1       7.028   5.341  16.036  0.00  0.00    +0.000 A 
ENDBRANCH   8  11
ENDBRANCH   6   7
BRANCH   1  17
ATOM     17  C   UNL     1       1.716   4.497  17.905  0.00  0.00    +0.000 C 
ATOM     18  O   UNL     1       0.739   4.175  17.246  0.00  0.00    +0.000 OA
BRANCH  17  19
ATOM     19  O   UNL     1       2.500   5.586  17.698  0.00  0.00    +0.000 OA
BRANCH  19  21
ATOM     20  C   UNL     1       2.812   7.947  17.917  0.00  0.00    +0.000 C 
ATOM     21  C   UNL     1       2.373   6.674  18.621  0.00  0.00    +0.000 C 
ENDBRANCH  19  21
ENDBRANCH  17  19
ENDBRANCH   1  17
TORSDOF 5
ENDMDL
MODEL 2
REMARK VINA RESULT:      -7.2      1.295      1.519
REMARK  Name = 
REMARK  6 active torsions:
REMARK  status: ('A' for Active; 'I' for Inactive)
REMARK    1  A    between atoms: C_1  and  C_2
REMARK    2  A    between atoms: C_2  and  O_3
REMARK    3  A    between atoms: O_3  and  C_4
REMARK    4  A    between atoms: C_4  and  C_6
REMARK    5  A    between atoms: C_11  and  N_12
REMARK    6  A    between atoms: C_13  and  C_15
REMARK                            x       y       z     vdW  Elec       q    Type
REMARK                         _______ _______ _______ _____ _____    ______ ____
ROOT
ATOM      1  C   UNL     1       2.512   4.841  19.751  0.00  0.00    +0.000 A 
ATOM      2  C   UNL     1       1.798   4.675  20.961  0.00  0.00    +0.000 A 
ATOM      3  C   UNL     1       1.917   3.513  21.717  0.00  0.00    +0.000 A 
ATOM      4  C   UNL     1       2.756   2.507  21.282  0.00  0.00    +0.000 A 
ATOM      5  C   UNL     1       3.457   2.650  20.083  0.00  0.00    +0.000 A 
ATOM      6  C   UNL     1       3.337   3.794  19.279  0.00  0.00    +0.000 A 
ENDROOT
BRANCH   6   7
ATOM      7  N   UNL     1       4.057   3.891  18.043  0.00  0.00    +0.000 N 
ATOM      8  C   UNL     1       5.403   4.241  17.948  0.00  0.00    +0.000 C 
ATOM      9  O   UNL     1       6.158   4.412  18.903  0.00  0.00    +0.000 OA
ATOM     10  H   UNL     1       3.583   3.511  17.225  0.00  0.00    +0.000 HD
BRANCH   8  11
ATOM     11  C   UNL     1       6.012   4.383  16.608  0.00  0.00    +0.000 A 
ATOM     12  C   UNL     1       5.633   3.667  15.475  0.00  0.00    +0.000 A 
ATOM     13  C   UNL     1       6.231   3.977  14.247  0.00  0.00    +0.000 A 
ATOM     14  C   UNL     1       7.187   4.983  14.200  0.00  0.00    +0.000 A 
ATOM     15  N   UNL     1       7.573   5.695  15.276  0.00  0.00    +0.000 NA
ATOM     16  C   UNL     1       6.968   5.387  16.450  0.00  0.00    +0.000 A 
ENDBRANCH   8  11
ENDBRANCH   6   7
BRANCH   1  17
ATOM     17  C   UNL     1       2.428   6.154  19.042  0.00  0.00    +0.000 C 
ATOM     18  O   UNL     1       2.565   6.293  17.836  0.00  0.00    +0.000 OA
BRANCH  17  19
ATOM     19  O   UNL     1       2.318   7.150  19.958  0.00  0.00    +0.000 OA
BRANCH  19  21
ATOM     20  C   UNL     1       0.980   9.006  20.652  0.00  0.00    +0.000 C 
ATOM     21  C   UNL     1       1.778   8.399  19.511  0.00  0.00    +0.000 C 
ENDBRANCH  19  21
ENDBRANCH  17  19
ENDBRANCH   1  17
TORSDOF 5
ENDMDL
MODEL 3
REMARK VINA RESULT:      -7.2      1.774      6.141
REMARK  Name = 
REMARK  6 active torsions:
REMARK  status: ('A' for Active; 'I' for Inactive)
REMARK    1  A    between atoms: C_1  and  C_2
REMARK    2  A    between atoms: C_2  and  O_3
REMARK    3  A    between atoms: O_3  and  C_4
REMARK    4  A    between atoms: C_4  and  C_6
REMARK    5  A    between atoms: C_11  and  N_12
REMARK    6  A    between atoms: C_13  and  C_15
REMARK                            x       y       z     vdW  Elec       q    Type
REMARK                         _______ _______ _______ _____ _____    ______ ____
ROOT
ATOM      1  C   UNL     1       6.711   4.597  16.388  0.00  0.00    +0.000 A 
ATOM      2  C   UNL     1       7.481   4.919  15.247  0.00  0.00    +0.000 A 
ATOM      3  C   UNL     1       7.007   4.679  13.962  0.00  0.00    +0.000 A 
ATOM      4  C   UNL     1       5.755   4.121  13.798  0.00  0.00    +0.000 A 
ATOM      5  C   UNL     1       4.987   3.784  14.914  0.00  0.00    +0.000 A 
ATOM      6  C   UNL     1       5.446   3.983  16.225  0.00  0.00    +0.000 A 
ENDROOT
BRANCH   6   7
ATOM      7  N   UNL     1       4.636   3.601  17.344  0.00  0.00    +0.000 N 
ATOM      8  C   UNL     1       3.662   4.416  17.918  0.00  0.00    +0.000 C 
ATOM      9  O   UNL     1       3.310   5.510  17.483  0.00  0.00    +0.000 OA
ATOM     10  H   UNL     1       4.675   2.616  17.602  0.00  0.00    +0.000 HD
BRANCH   8  11
ATOM     11  C   UNL     1       2.945   3.937  19.119  0.00  0.00    +0.000 A 
ATOM     12  C   UNL     1       1.595   4.149  19.386  0.00  0.00    +0.000 A 
ATOM     13  C   UNL     1       1.026   3.551  20.517  0.00  0.00    +0.000 A 
ATOM     14  C   UNL     1       1.828   2.771  21.339  0.00  0.00    +0.000 A 
ATOM     15  N   UNL     1       3.134   2.543  21.108  0.00  0.00    +0.000 NA
ATOM     16  C   UNL     1       3.658   3.121  19.998  0.00  0.00    +0.000 A 
ENDBRANCH   8  11
ENDBRANCH   6   7
BRANCH   1  17
ATOM     17  C   UNL     1       7.227   4.980  17.737  0.00  0.00    +0.000 C 
ATOM     18  O   UNL     1       6.972   4.377  18.768  0.00  0.00    +0.000 OA
BRANCH  17  19
ATOM     19  O   UNL     1       7.894   6.159  17.640  0.00  0.00    +0.000 OA
BRANCH  19  21
ATOM     20  C   UNL     1       8.030   8.544  17.753  0.00  0.00    +0.000 C 
ATOM     21  C   UNL     1       7.109   7.354  17.547  0.00  0.00    +0.000 C 
ENDBRANCH  19  21
ENDBRANCH  17  19
ENDBRANCH   1  17
TORSDOF 5
ENDMDL
MODEL 4
REMARK VINA RESULT:      -7.1      1.813      6.206
REMARK  Name = 
REMARK  6 active torsions:
REMARK  status: ('A' for Active; 'I' for Inactive)
REMARK    1  A    between atoms: C_1  and  C_2
REMARK    2  A    between atoms: C_2  and  O_3
REMARK    3  A    between atoms: O_3  and  C_4
REMARK    4  A    between atoms: C_4  and  C_6
REMARK    5  A    between atoms: C_11  and  N_12
REMARK    6  A    between atoms: C_13  and  C_15
REMARK                            x       y       z     vdW  Elec       q    Type
REMARK                         _______ _______ _______ _____ _____    ______ ____
ROOT
ATOM      1  C   UNL     1       6.637   4.761  16.540  0.00  0.00    +0.000 A 
ATOM      2  C   UNL     1       7.414   5.148  15.423  0.00  0.00    +0.000 A 
ATOM      3  C   UNL     1       7.052   4.788  14.129  0.00  0.00    +0.000 A 
ATOM      4  C   UNL     1       5.905   4.045  13.931  0.00  0.00    +0.000 A 
ATOM      5  C   UNL     1       5.134   3.643  15.024  0.00  0.00    +0.000 A 
ATOM      6  C   UNL     1       5.486   3.961  16.345  0.00  0.00    +0.000 A 
ENDROOT
BRANCH   6   7
ATOM      7  N   UNL     1       4.680   3.509  17.439  0.00  0.00    +0.000 N 
ATOM      8  C   UNL     1       3.625   4.238  17.986  0.00  0.00    +0.000 C 
ATOM      9  O   UNL     1       3.195   5.300  17.543  0.00  0.00    +0.000 OA
ATOM     10  H   UNL     1       4.794   2.530  17.698  0.00  0.00    +0.000 HD
BRANCH   8  11
ATOM     11  C   UNL     1       2.917   3.696  19.167  0.00  0.00    +0.000 A 
ATOM     12  C   UNL     1       3.507   2.943  20.179  0.00  0.00    +0.000 A 
ATOM     13  C   UNL     1       2.736   2.579  21.289  0.00  0.00    +0.000 A 
ATOM     14  C   UNL     1       1.406   2.978  21.343  0.00  0.00    +0.000 A 
ATOM     15  N   UNL     1       0.808   3.710  20.384  0.00  0.00    +0.000 NA
ATOM     16  C   UNL     1       1.580   4.061  19.327  0.00  0.00    +0.000 A 
ENDBRANCH   8  11
ENDBRANCH   6   7
BRANCH   1  17
ATOM     17  C   UNL     1       7.016   5.271  17.892  0.00  0.00    +0.000 C 
ATOM     18  O   UNL     1       7.219   4.559  18.863  0.00  0.00    +0.000 OA
BRANCH  17  19
ATOM     19  O   UNL     1       6.961   6.628  17.888  0.00  0.00    +0.000 OA
BRANCH  19  21
ATOM     20  C   UNL     1       8.059   8.752  17.853  0.00  0.00    +0.000 C 
ATOM     21  C   UNL     1       8.097   7.335  18.400  0.00  0.00    +0.000 C 
ENDBRANCH  19  21
ENDBRANCH  17  19
ENDBRANCH   1  17
TORSDOF 5
ENDMDL
MODEL 5
REMARK VINA RESULT:      -6.9      1.397      2.908
REMARK  Name = 
REMARK  6 active torsions:
REMARK  status: ('A' for Active; 'I' for Inactive)
REMARK    1  A    between atoms: C_1  and  C_2
REMARK    2  A    between atoms: C_2  and  O_3
REMARK    3  A    between atoms: O_3  and  C_4
REMARK    4  A    between atoms: C_4  and  C_6
REMARK    5  A    between atoms: C_11  and  N_12
REMARK    6  A    between atoms: C_13  and  C_15
REMARK                            x       y       z     vdW  Elec       q    Type
REMARK                         _______ _______ _______ _____ _____    ______ ____
ROOT
ATOM      1  C   UNL     1       2.008   4.749  19.361  0.00  0.00    +0.000 A 
ATOM      2  C   UNL     1       1.268   5.138  20.501  0.00  0.00    +0.000 A 
ATOM      3  C   UNL     1       1.245   6.460  20.933  0.00  0.00    +0.000 A 
ATOM      4  C   UNL     1       1.952   7.413  20.227  0.00  0.00    +0.000 A 
ATOM      5  C   UNL     1       2.699   7.043  19.107  0.00  0.00    +0.000 A 
ATOM      6  C   UNL     1       2.770   5.714  18.662  0.00  0.00    +0.000 A 
ENDROOT
BRANCH   6   7
ATOM      7  N   UNL     1       3.567   5.373  17.521  0.00  0.00    +0.000 N 
ATOM      8  C   UNL     1       4.948   5.185  17.560  0.00  0.00    +0.000 C 
ATOM      9  O   UNL     1       5.633   5.191  18.580  0.00  0.00    +0.000 OA
ATOM     10  H   UNL     1       3.051   5.091  16.689  0.00  0.00    +0.000 HD
BRANCH   8  11
ATOM     11  C   UNL     1       5.669   4.913  16.298  0.00  0.00    +0.000 A 
ATOM     12  C   UNL     1       5.171   4.162  15.236  0.00  0.00    +0.000 A 
ATOM     13  C   UNL     1       5.926   4.069  14.060  0.00  0.00    +0.000 A 
ATOM     14  C   UNL     1       7.148   4.725  13.992  0.00  0.00    +0.000 A 
ATOM     15  N   UNL     1       7.655   5.462  14.999  0.00  0.00    +0.000 NA
ATOM     16  C   UNL     1       6.899   5.548  16.121  0.00  0.00    +0.000 A 
ENDBRANCH   8  11
ENDBRANCH   6   7
BRANCH   1  17
ATOM     17  C   UNL     1       1.904   3.337  18.884  0.00  0.00    +0.000 C 
ATOM     18  O   UNL     1       1.578   3.016  17.751  0.00  0.00    +0.000 OA
BRANCH  17  19
ATOM     19  O   UNL     1       2.094   2.496  19.933  0.00  0.00    +0.000 OA
BRANCH  19  21
ATOM     20  C   UNL     1       4.429   2.076  19.637  0.00  0.00    +0.000 C 
ATOM     21  C   UNL     1       3.359   2.554  20.603  0.00  0.00    +0.000 C 
ENDBRANCH  19  21
ENDBRANCH  17  19
ENDBRANCH   1  17
TORSDOF 5
ENDMDL
MODEL 6
REMARK VINA RESULT:      -6.9      1.335      1.666
REMARK  Name = 
REMARK  6 active torsions:
REMARK  status: ('A' for Active; 'I' for Inactive)
REMARK    1  A    between atoms: C_1  and  C_2
REMARK    2  A    between atoms: C_2  and  O_3
REMARK    3  A    between atoms: O_3  and  C_4
REMARK    4  A    between atoms: C_4  and  C_6
REMARK    5  A    between atoms: C_11  and  N_12
REMARK    6  A    between atoms: C_13  and  C_15
REMARK                            x       y       z     vdW  Elec       q    Type
REMARK                         _______ _______ _______ _____ _____    ______ ____
ROOT
ATOM      1  C   UNL     1       2.170   4.695  19.204  0.00  0.00    +0.000 A 
ATOM      2  C   UNL     1       1.234   4.434  20.232  0.00  0.00    +0.000 A 
ATOM      3  C   UNL     1       0.748   3.151  20.459  0.00  0.00    +0.000 A 
ATOM      4  C   UNL     1       1.196   2.110  19.671  0.00  0.00    +0.000 A 
ATOM      5  C   UNL     1       2.110   2.352  18.643  0.00  0.00    +0.000 A 
ATOM      6  C   UNL     1       2.597   3.639  18.365  0.00  0.00    +0.000 A 
ENDROOT
BRANCH   6   7
ATOM      7  N   UNL     1       3.517   3.849  17.286  0.00  0.00    +0.000 N 
ATOM      8  C   UNL     1       4.896   3.968  17.446  0.00  0.00    +0.000 C 
ATOM      9  O   UNL     1       5.500   3.813  18.505  0.00  0.00    +0.000 OA
ATOM     10  H   UNL     1       3.134   3.727  16.349  0.00  0.00    +0.000 HD
BRANCH   8  11
ATOM     11  C   UNL     1       5.731   4.262  16.262  0.00  0.00    +0.000 A 
ATOM     12  C   UNL     1       5.522   3.745  14.985  0.00  0.00    +0.000 A 
ATOM     13  C   UNL     1       6.334   4.188  13.934  0.00  0.00    +0.000 A 
ATOM     14  C   UNL     1       7.325   5.124  14.200  0.00  0.00    +0.000 A 
ATOM     15  N   UNL     1       7.551   5.645  15.420  0.00  0.00    +0.000 NA
ATOM     16  C   UNL     1       6.741   5.211  16.418  0.00  0.00    +0.000 A 
ENDBRANCH   8  11
ENDBRANCH   6   7
BRANCH   1  17
ATOM     17  C   UNL     1       2.738   6.072  19.081  0.00  0.00    +0.000 C 
ATOM     18  O   UNL     1       3.379   6.632  19.957  0.00  0.00    +0.000 OA
BRANCH  17  19
ATOM     19  O   UNL     1       2.310   6.628  17.918  0.00  0.00    +0.000 OA
BRANCH  19  21
ATOM     20  C   UNL     1       1.656   8.928  17.927  0.00  0.00    +0.000 C 
ATOM     21  C   UNL     1       2.773   7.948  17.610  0.00  0.00    +0.000 C 
ENDBRANCH  19  21
ENDBRANCH  17  19
ENDBRANCH   1  17
TORSDOF 5
ENDMDL
MODEL 7
REMARK VINA RESULT:      -6.8      1.424      1.934
REMARK  Name = 
REMARK  6 active torsions:
REMARK  status: ('A' for Active; 'I' for Inactive)
REMARK    1  A    between atoms: C_1  and  C_2
REMARK    2  A    between atoms: C_2  and  O_3
REMARK    3  A    between atoms: O_3  and  C_4
REMARK    4  A    between atoms: C_4  and  C_6
REMARK    5  A    between atoms: C_11  and  N_12
REMARK    6  A    between atoms: C_13  and  C_15
REMARK                            x       y       z     vdW  Elec       q    Type
REMARK                         _______ _______ _______ _____ _____    ______ ____
ROOT
ATOM      1  C   UNL     1       2.502   5.622  18.929  0.00  0.00    +0.000 A 
ATOM      2  C   UNL     1       1.677   5.588  20.076  0.00  0.00    +0.000 A 
ATOM      3  C   UNL     1       1.330   4.385  20.684  0.00  0.00    +0.000 A 
ATOM      4  C   UNL     1       1.809   3.202  20.159  0.00  0.00    +0.000 A 
ATOM      5  C   UNL     1       2.614   3.216  19.018  0.00  0.00    +0.000 A 
ATOM      6  C   UNL     1       2.958   4.408  18.361  0.00  0.00    +0.000 A 
ENDROOT
BRANCH   6   7
ATOM      7  N   UNL     1       3.767   4.378  17.179  0.00  0.00    +0.000 N 
ATOM      8  C   UNL     1       5.160   4.323  17.187  0.00  0.00    +0.000 C 
ATOM      9  O   UNL     1       5.857   4.196  18.191  0.00  0.00    +0.000 OA
ATOM     10  H   UNL     1       3.268   4.214  16.306  0.00  0.00    +0.000 HD
BRANCH   8  11
ATOM     11  C   UNL     1       5.885   4.375  15.899  0.00  0.00    +0.000 A 
ATOM     12  C   UNL     1       5.489   3.731  14.729  0.00  0.00    +0.000 A 
ATOM     13  C   UNL     1       6.220   3.951  13.555  0.00  0.00    +0.000 A 
ATOM     14  C   UNL     1       7.319   4.798  13.597  0.00  0.00    +0.000 A 
ATOM     15  N   UNL     1       7.726   5.438  14.709  0.00  0.00    +0.000 NA
ATOM     16  C   UNL     1       6.992   5.221  15.829  0.00  0.00    +0.000 A 
ENDBRANCH   8  11
ENDBRANCH   6   7
BRANCH   1  17
ATOM     17  C   UNL     1       2.929   6.948  18.389  0.00  0.00    +0.000 C 
ATOM     18  O   UNL     1       3.981   7.143  17.799  0.00  0.00    +0.000 OA
BRANCH  17  19
ATOM     19  O   UNL     1       2.039   7.896  18.779  0.00  0.00    +0.000 OA
BRANCH  19  21
ATOM     20  C   UNL     1       0.654   9.793  18.333  0.00  0.00    +0.000 C 
ATOM     21  C   UNL     1       1.951   9.084  17.983  0.00  0.00    +0.000 C 
ENDBRANCH  19  21
ENDBRANCH  17  19
ENDBRANCH   1  17
TORSDOF 5
ENDMDL
MODEL 8
REMARK VINA RESULT:      -6.8      2.252      5.782
REMARK  Name = 
REMARK  6 active torsions:
REMARK  status: ('A' for Active; 'I' for Inactive)
REMARK    1  A    between atoms: C_1  and  C_2
REMARK    2  A    between atoms: C_2  and  O_3
REMARK    3  A    between atoms: O_3  and  C_4
REMARK    4  A    between atoms: C_4  and  C_6
REMARK    5  A    between atoms: C_11  and  N_12
REMARK    6  A    between atoms: C_13  and  C_15
REMARK                            x       y       z     vdW  Elec       q    Type
REMARK                         _______ _______ _______ _____ _____    ______ ____
ROOT
ATOM      1  C   UNL     1       6.086   6.684  17.424  0.00  0.00    +0.000 A 
ATOM      2  C   UNL     1       7.216   7.535  17.427  0.00  0.00    +0.000 A 
ATOM      3  C   UNL     1       8.250   7.363  18.342  0.00  0.00    +0.000 A 
ATOM      4  C   UNL     1       8.174   6.334  19.260  0.00  0.00    +0.000 A 
ATOM      5  C   UNL     1       7.059   5.494  19.280  0.00  0.00    +0.000 A 
ATOM      6  C   UNL     1       5.984   5.658  18.393  0.00  0.00    +0.000 A 
ENDROOT
BRANCH   6   7
ATOM      7  N   UNL     1       4.847   4.788  18.462  0.00  0.00    +0.000 N 
ATOM      8  C   UNL     1       3.689   5.072  19.184  0.00  0.00    +0.000 C 
ATOM      9  O   UNL     1       3.459   6.131  19.763  0.00  0.00    +0.000 OA
ATOM     10  H   UNL     1       4.844   4.012  17.802  0.00  0.00    +0.000 HD
BRANCH   8  11
ATOM     11  C   UNL     1       2.615   4.056  19.241  0.00  0.00    +0.000 A 
ATOM     12  C   UNL     1       1.667   3.948  20.256  0.00  0.00    +0.000 A 
ATOM     13  C   UNL     1       0.646   2.999  20.129  0.00  0.00    +0.000 A 
ATOM     14  C   UNL     1       0.614   2.193  18.999  0.00  0.00    +0.000 A 
ATOM     15  N   UNL     1       1.512   2.275  17.999  0.00  0.00    +0.000 NA
ATOM     16  C   UNL     1       2.482   3.212  18.138  0.00  0.00    +0.000 A 
ENDBRANCH   8  11
ENDBRANCH   6   7
BRANCH   1  17
ATOM     17  C   UNL     1       5.064   6.851  16.348  0.00  0.00    +0.000 C 
ATOM     18  O   UNL     1       3.908   7.195  16.545  0.00  0.00    +0.000 OA
BRANCH  17  19
ATOM     19  O   UNL     1       5.586   6.430  15.167  0.00  0.00    +0.000 OA
BRANCH  19  21
ATOM     20  C   UNL     1       6.947   4.595  14.461  0.00  0.00    +0.000 C 
ATOM     21  C   UNL     1       5.556   5.024  14.898  0.00  0.00    +0.000 C 
ENDBRANCH  19  21
ENDBRANCH  17  19
ENDBRANCH   1  17
TORSDOF 5
ENDMDL
MODEL 9
REMARK VINA RESULT:      -6.8      1.627      1.944
REMARK  Name = 
REMARK  6 active torsions:
REMARK  status: ('A' for Active; 'I' for Inactive)
REMARK    1  A    between atoms: C_1  and  C_2
REMARK    2  A    between atoms: C_2  and  O_3
REMARK    3  A    between atoms: O_3  and  C_4
REMARK    4  A    between atoms: C_4  and  C_6
REMARK    5  A    between atoms: C_11  and  N_12
REMARK    6  A    between atoms: C_13  and  C_15
REMARK                            x       y       z     vdW  Elec       q    Type
REMARK                         _______ _______ _______ _____ _____    ______ ____
ROOT
ATOM      1  C   UNL     1       2.650   5.065  19.907  0.00  0.00    +0.000 A 
ATOM      2  C   UNL     1       1.761   4.715  20.949  0.00  0.00    +0.000 A 
ATOM      3  C   UNL     1       1.836   3.477  21.580  0.00  0.00    +0.000 A 
ATOM      4  C   UNL     1       2.806   2.577  21.185  0.00  0.00    +0.000 A 
ATOM      5  C   UNL     1       3.683   2.901  20.149  0.00  0.00    +0.000 A 
ATOM      6  C   UNL     1       3.615   4.128  19.469  0.00  0.00    +0.000 A 
ENDROOT
BRANCH   6   7
ATOM      7  N   UNL     1       4.519   4.412  18.395  0.00  0.00    +0.000 N 
ATOM      8  C   UNL     1       4.328   3.990  17.080  0.00  0.00    +0.000 C 
ATOM      9  O   UNL     1       3.327   3.413  16.661  0.00  0.00    +0.000 OA
ATOM     10  H   UNL     1       5.239   5.106  18.594  0.00  0.00    +0.000 HD
BRANCH   8  11
ATOM     11  C   UNL     1       5.375   4.281  16.076  0.00  0.00    +0.000 A 
ATOM     12  C   UNL     1       5.376   3.817  14.762  0.00  0.00    +0.000 A 
ATOM     13  C   UNL     1       6.382   4.254  13.892  0.00  0.00    +0.000 A 
ATOM     14  C   UNL     1       7.349   5.131  14.368  0.00  0.00    +0.000 A 
ATOM     15  N   UNL     1       7.373   5.600  15.630  0.00  0.00    +0.000 NA
ATOM     16  C   UNL     1       6.379   5.174  16.449  0.00  0.00    +0.000 A 
ENDBRANCH   8  11
ENDBRANCH   6   7
BRANCH   1  17
ATOM     17  C   UNL     1       2.590   6.448  19.345  0.00  0.00    +0.000 C 
ATOM     18  O   UNL     1       2.973   6.753  18.226  0.00  0.00    +0.000 OA
BRANCH  17  19
ATOM     19  O   UNL     1       2.181   7.306  20.315  0.00  0.00    +0.000 OA
BRANCH  19  21
ATOM     20  C   UNL     1       0.795   9.091  21.098  0.00  0.00    +0.000 C 
ATOM     21  C   UNL     1       1.517   8.505  19.897  0.00  0.00    +0.000 C 
ENDBRANCH  19  21
ENDBRANCH  17  19
ENDBRANCH   1  17
TORSDOF 5
ENDMDL
