MODEL 1
REMARK VINA RESULT:      -7.9      0.000      0.000
REMARK  Name = 
REMARK  10 active torsions:
REMARK  status: ('A' for Active; 'I' for Inactive)
REMARK    1  A    between atoms: C_1  and  C_2
REMARK    2  A    between atoms: C_2  and  C_3
REMARK    3  A    between atoms: N_9  and  C_10
REMARK    4  A    between atoms: N_9  and  C_17
REMARK    5  A    between atoms: C_10  and  C_11
REMARK    6  A    between atoms: C_11  and  N_12
REMARK    7  A    between atoms: C_20  and  O_21
REMARK    8  A    between atoms: O_21  and  C_22
REMARK    9  A    between atoms: C_23  and  O_24
REMARK   10  A    between atoms: O_24  and  C_25
REMARK                            x       y       z     vdW  Elec       q    Type
REMARK                         _______ _______ _______ _____ _____    ______ ____
ROOT
ATOM      1  C   UNL     1       0.893   9.419  20.455  0.00  0.00    +0.000 A 
ATOM      2  C   UNL     1       0.942   9.791  19.110  0.00  0.00    +0.000 A 
ATOM      3  C   UNL     1       1.521   8.948  18.155  0.00  0.00    +0.000 A 
ATOM      4  C   UNL     1       2.091   7.726  18.554  0.00  0.00    +0.000 A 
ATOM      5  N   UNL     1       2.673   6.794  17.720  0.00  0.00    +0.000 NA
ATOM      6  C   UNL     1       3.180   5.774  18.383  0.00  0.00    +0.000 A 
ATOM      7  N   UNL     1       3.848   4.723  17.789  0.00  0.00    +0.000 N 
ATOM      8  S   UNL     1       2.981   5.941  20.107  0.00  0.00    +0.000 S 
ATOM      9  C   UNL     1       2.090   7.392  19.903  0.00  0.00    +0.000 A 
ATOM     10  C   UNL     1       1.465   8.203  20.867  0.00  0.00    +0.000 A 
ENDROOT
BRANCH   7  11
ATOM     11  C   UNL     1       4.957   4.948  16.903  0.00  0.00    +0.000 A 
ATOM     12  C   UNL     1       5.147   4.197  15.735  0.00  0.00    +0.000 A 
ATOM     13  C   UNL     1       6.223   4.438  14.870  0.00  0.00    +0.000 A 
ATOM     14  C   UNL     1       7.165   5.433  15.137  0.00  0.00    +0.000 A 
ATOM     15  C   UNL     1       7.020   6.205  16.294  0.00  0.00    +0.000 A 
ATOM     16  C   UNL     1       5.920   5.957  17.140  0.00  0.00    +0.000 A 
BRANCH  14  17
ATOM     17  O   UNL     1       8.133   5.503  14.170  0.00  0.00    +0.000 OA
ATOM     18  C   UNL     1       7.802   5.122  12.843  0.00  0.00    +0.000 C 
ENDBRANCH  14  17
BRANCH  15  19
ATOM     19  O   UNL     1       7.948   7.180  16.556  0.00  0.00    +0.000 OA
ATOM     20  C   UNL     1       7.834   7.933  17.764  0.00  0.00    +0.000 C 
ENDBRANCH  15  19
ENDBRANCH   7  11
BRANCH   1  22
ATOM     21  C   UNL     1       0.383  11.803  21.008  0.00  0.00    +0.000 C 
ATOM     22  C   UNL     1       0.297  10.359  21.476  0.00  0.00    +0.000 C 
ENDBRANCH   1  22
BRANCH   7  23
ATOM     23  C   UNL     1       3.766   3.348  18.340  0.00  0.00    +0.000 C 
BRANCH  23  24
ATOM     24  C   UNL     1       2.579   2.472  17.885  0.00  0.00    +0.000 C 
BRANCH  24  25
ATOM     25  N   UNL     1       1.912   1.741  18.995  0.00  0.00    +0.000 NA
ATOM     26  C   UNL     1       0.479   2.094  19.038  0.00  0.00    +0.000 C 
ATOM     27  C   UNL     1       0.424   3.382  19.844  0.00  0.00    +0.000 C 
ATOM     28  C   UNL     1       1.473   3.158  20.914  0.00  0.00    +0.000 C 
ATOM     29  C   UNL     1       2.414   2.108  20.334  0.00  0.00    +0.000 C 
ENDBRANCH  24  25
ENDBRANCH  23  24
ENDBRANCH   7  23
TORSDOF 7
ENDMDL
MODEL 2
REMARK VINA RESULT:      -7.6      1.318      2.110
REMARK  Name = 
REMARK  10 active torsions:
REMARK  status: ('A' for Active; 'I' for Inactive)
REMARK    1  A    between atoms: C_1  and  C_2
REMARK    2  A    between atoms: C_2  and  C_3
REMARK    3  A    between atoms: N_9  and  C_10
REMARK    4  A    between atoms: N_9  and  C_17
REMARK    5  A    between atoms: C_10  and  C_11
REMARK    6  A    between atoms: C_11  and  N_12
REMARK    7  A    between atoms: C_20  and  O_21
REMARK    8  A    between atoms: O_21  and  C_22
REMARK    9  A    between atoms: C_23  and  O_24
REMARK   10  A    between atoms: O_24  and  C_25
REMARK                            x       y       z     vdW  Elec       q    Type
REMARK                         _______ _______ _______ _____ _____    ______ ____
ROOT
ATOM      1  C   UNL     1       0.731  11.561  20.252  0.00  0.00    +0.000 A 
ATOM      2  C   UNL     1       1.080  11.799  18.920  0.00  0.00    +0.000 A 
ATOM      3  C   UNL     1       1.522  10.756  18.099  0.00  0.00    +0.000 A 
ATOM      4  C   UNL     1       1.651   9.458  18.626  0.00  0.00    +0.000 A 
ATOM      5  N   UNL     1       2.054   8.338  17.927  0.00  0.00    +0.000 NA
ATOM      6  C   UNL     1       2.143   7.272  18.696  0.00  0.00    +0.000 A 
ATOM      7  N   UNL     1       2.558   6.033  18.252  0.00  0.00    +0.000 N 
ATOM      8  S   UNL     1       1.753   7.622  20.360  0.00  0.00    +0.000 S 
ATOM      9  C   UNL     1       1.358   9.243  19.967  0.00  0.00    +0.000 A 
ATOM     10  C   UNL     1       0.861  10.269  20.791  0.00  0.00    +0.000 A 
ENDROOT
BRANCH   7  11
ATOM     11  C   UNL     1       3.801   5.869  17.550  0.00  0.00    +0.000 A 
ATOM     12  C   UNL     1       4.084   4.729  16.785  0.00  0.00    +0.000 A 
ATOM     13  C   UNL     1       5.293   4.589  16.091  0.00  0.00    +0.000 A 
ATOM     14  C   UNL     1       6.279   5.576  16.136  0.00  0.00    +0.000 A 
ATOM     15  C   UNL     1       6.044   6.730  16.891  0.00  0.00    +0.000 A 
ATOM     16  C   UNL     1       4.814   6.856  17.567  0.00  0.00    +0.000 A 
BRANCH  14  17
ATOM     17  O   UNL     1       7.380   5.243  15.391  0.00  0.00    +0.000 OA
ATOM     18  C   UNL     1       7.193   4.790  14.059  0.00  0.00    +0.000 C 
ENDBRANCH  14  17
BRANCH  15  19
ATOM     19  O   UNL     1       7.016   7.696  16.937  0.00  0.00    +0.000 OA
ATOM     20  C   UNL     1       7.906   7.725  18.052  0.00  0.00    +0.000 C 
ENDBRANCH  15  19
ENDBRANCH   7  11
BRANCH   1  22
ATOM     21  C   UNL     1      -0.712  12.241  22.177  0.00  0.00    +0.000 C 
ATOM     22  C   UNL     1       0.289  12.706  21.131  0.00  0.00    +0.000 C 
ENDBRANCH   1  22
BRANCH   7  23
ATOM     23  C   UNL     1       2.004   4.783  18.828  0.00  0.00    +0.000 C 
BRANCH  23  24
ATOM     24  C   UNL     1       2.613   4.284  20.156  0.00  0.00    +0.000 C 
BRANCH  24  25
ATOM     25  N   UNL     1       2.497   2.815  20.356  0.00  0.00    +0.000 NA
ATOM     26  C   UNL     1       3.802   2.261  20.769  0.00  0.00    +0.000 C 
ATOM     27  C   UNL     1       4.552   2.031  19.467  0.00  0.00    +0.000 C 
ATOM     28  C   UNL     1       3.465   1.546  18.529  0.00  0.00    +0.000 C 
ATOM     29  C   UNL     1       2.164   2.073  19.124  0.00  0.00    +0.000 C 
ENDBRANCH  24  25
ENDBRANCH  23  24
ENDBRANCH   7  23
TORSDOF 7
ENDMDL
MODEL 3
REMARK VINA RESULT:      -7.4      3.115      7.142
REMARK  Name = 
REMARK  10 active torsions:
REMARK  status: ('A' for Active; 'I' for Inactive)
REMARK    1  A    between atoms: C_1  and  C_2
REMARK    2  A    between atoms: C_2  and  C_3
REMARK    3  A    between atoms: N_9  and  C_10
REMARK    4  A    between atoms: N_9  and  C_17
REMARK    5  A    between atoms: C_10  and  C_11
REMARK    6  A    between atoms: C_11  and  N_12
REMARK    7  A    between atoms: C_20  and  O_21
REMARK    8  A    between atoms: O_21  and  C_22
REMARK    9  A    between atoms: C_23  and  O_24
REMARK   10  A    between atoms: O_24  and  C_25
REMARK                            x       y       z     vdW  Elec       q    Type
REMARK                         _______ _______ _______ _____ _____    ______ ____
ROOT
ATOM      1  C   UNL     1       6.258   4.956  15.415  0.00  0.00    +0.000 A 
ATOM      2  C   UNL     1       6.825   6.133  15.909  0.00  0.00    +0.000 A 
ATOM      3  C   UNL     1       6.221   6.835  16.958  0.00  0.00    +0.000 A 
ATOM      4  C   UNL     1       5.009   6.371  17.503  0.00  0.00    +0.000 A 
ATOM      5  N   UNL     1       4.319   6.950  18.548  0.00  0.00    +0.000 NA
ATOM      6  C   UNL     1       3.182   6.332  18.800  0.00  0.00    +0.000 A 
ATOM      7  N   UNL     1       2.287   6.732  19.772  0.00  0.00    +0.000 N 
ATOM      8  S   UNL     1       2.897   4.999  17.713  0.00  0.00    +0.000 S 
ATOM      9  C   UNL     1       4.423   5.231  16.966  0.00  0.00    +0.000 A 
ATOM     10  C   UNL     1       5.045   4.486  15.948  0.00  0.00    +0.000 A 
ENDROOT
BRANCH   7  11
ATOM     11  C   UNL     1       1.791   8.079  19.822  0.00  0.00    +0.000 A 
ATOM     12  C   UNL     1       1.691   8.883  18.678  0.00  0.00    +0.000 A 
ATOM     13  C   UNL     1       1.189  10.190  18.737  0.00  0.00    +0.000 A 
ATOM     14  C   UNL     1       0.771  10.757  19.942  0.00  0.00    +0.000 A 
ATOM     15  C   UNL     1       0.855   9.994  21.111  0.00  0.00    +0.000 A 
ATOM     16  C   UNL     1       1.348   8.677  21.025  0.00  0.00    +0.000 A 
BRANCH  14  17
ATOM     17  O   UNL     1       0.317  12.040  19.781  0.00  0.00    +0.000 OA
ATOM     18  C   UNL     1      -1.025  12.242  19.361  0.00  0.00    +0.000 C 
ENDBRANCH  14  17
BRANCH  15  19
ATOM     19  O   UNL     1       0.448  10.555  22.295  0.00  0.00    +0.000 OA
ATOM     20  C   UNL     1      -0.465   9.833  23.121  0.00  0.00    +0.000 C 
ENDBRANCH  15  19
ENDBRANCH   7  11
BRANCH   1  22
ATOM     21  C   UNL     1       5.863   3.702  13.289  0.00  0.00    +0.000 C 
ATOM     22  C   UNL     1       6.907   4.234  14.260  0.00  0.00    +0.000 C 
ENDBRANCH   1  22
BRANCH   7  23
ATOM     23  C   UNL     1       1.470   5.744  20.520  0.00  0.00    +0.000 C 
BRANCH  23  24
ATOM     24  C   UNL     1       2.224   4.620  21.263  0.00  0.00    +0.000 C 
BRANCH  24  25
ATOM     25  N   UNL     1       1.478   3.335  21.324  0.00  0.00    +0.000 NA
ATOM     26  C   UNL     1       2.427   2.205  21.360  0.00  0.00    +0.000 C 
ATOM     27  C   UNL     1       2.770   1.943  19.903  0.00  0.00    +0.000 C 
ATOM     28  C   UNL     1       1.449   2.170  19.196  0.00  0.00    +0.000 C 
ATOM     29  C   UNL     1       0.650   3.072  20.130  0.00  0.00    +0.000 C 
ENDBRANCH  24  25
ENDBRANCH  23  24
ENDBRANCH   7  23
TORSDOF 7
ENDMDL
MODEL 4
REMARK VINA RESULT:      -7.4      1.762      2.711
REMARK  Name = 
REMARK  10 active torsions:
REMARK  status: ('A' for Active; 'I' for Inactive)
REMARK    1  A    between atoms: C_1  and  C_2
REMARK    2  A    between atoms: C_2  and  C_3
REMARK    3  A    between atoms: N_9  and  C_10
REMARK    4  A    between atoms: N_9  and  C_17
REMARK    5  A    between atoms: C_10  and  C_11
REMARK    6  A    between atoms: C_11  and  N_12
REMARK    7  A    between atoms: C_20  and  O_21
REMARK    8  A    between atoms: O_21  and  C_22
REMARK    9  A    between atoms: C_23  and  O_24
REMARK   10  A    between atoms: O_24  and  C_25
REMARK                            x       y       z     vdW  Elec       q    Type
REMARK                         _______ _______ _______ _____ _____    ______ ____
ROOT
ATOM      1  C   UNL     1       0.934  11.932  20.045  0.00  0.00    +0.000 A 
ATOM      2  C   UNL     1       1.339  11.854  18.710  0.00  0.00    +0.000 A 
ATOM      3  C   UNL     1       1.678  10.625  18.135  0.00  0.00    +0.000 A 
ATOM      4  C   UNL     1       1.644   9.455  18.916  0.00  0.00    +0.000 A 
ATOM      5  N   UNL     1       1.931   8.179  18.474  0.00  0.00    +0.000 NA
ATOM      6  C   UNL     1       1.879   7.289  19.445  0.00  0.00    +0.000 A 
ATOM      7  N   UNL     1       2.158   5.948  19.277  0.00  0.00    +0.000 N 
ATOM      8  S   UNL     1       1.493   8.010  20.984  0.00  0.00    +0.000 S 
ATOM      9  C   UNL     1       1.296   9.551  20.258  0.00  0.00    +0.000 A 
ATOM     10  C   UNL     1       0.902  10.771  20.836  0.00  0.00    +0.000 A 
ENDROOT
BRANCH   7  11
ATOM     11  C   UNL     1       3.390   5.511  18.680  0.00  0.00    +0.000 A 
ATOM     12  C   UNL     1       3.449   4.994  17.378  0.00  0.00    +0.000 A 
ATOM     13  C   UNL     1       4.660   4.587  16.801  0.00  0.00    +0.000 A 
ATOM     14  C   UNL     1       5.866   4.670  17.500  0.00  0.00    +0.000 A 
ATOM     15  C   UNL     1       5.855   5.175  18.804  0.00  0.00    +0.000 A 
ATOM     16  C   UNL     1       4.629   5.594  19.358  0.00  0.00    +0.000 A 
BRANCH  14  17
ATOM     17  O   UNL     1       6.926   4.222  16.758  0.00  0.00    +0.000 OA
ATOM     18  C   UNL     1       7.228   4.874  15.533  0.00  0.00    +0.000 C 
ENDBRANCH  14  17
BRANCH  15  19
ATOM     19  O   UNL     1       7.040   5.252  19.490  0.00  0.00    +0.000 OA
ATOM     20  C   UNL     1       7.993   6.245  19.111  0.00  0.00    +0.000 C 
ENDBRANCH  15  19
ENDBRANCH   7  11
BRANCH   1  22
ATOM     21  C   UNL     1       1.075  14.412  19.762  0.00  0.00    +0.000 C 
ATOM     22  C   UNL     1       0.607  13.273  20.656  0.00  0.00    +0.000 C 
ENDBRANCH   1  22
BRANCH   7  23
ATOM     23  C   UNL     1       1.450   4.909  20.064  0.00  0.00    +0.000 C 
BRANCH  23  24
ATOM     24  C   UNL     1       2.283   4.105  21.086  0.00  0.00    +0.000 C 
BRANCH  24  25
ATOM     25  N   UNL     1       2.154   2.631  20.939  0.00  0.00    +0.000 NA
ATOM     26  C   UNL     1       3.472   1.991  21.117  0.00  0.00    +0.000 C 
ATOM     27  C   UNL     1       4.129   2.076  19.748  0.00  0.00    +0.000 C 
ATOM     28  C   UNL     1       2.972   1.830  18.800  0.00  0.00    +0.000 C 
ATOM     29  C   UNL     1       1.724   2.204  19.593  0.00  0.00    +0.000 C 
ENDBRANCH  24  25
ENDBRANCH  23  24
ENDBRANCH   7  23
TORSDOF 7
ENDMDL
MODEL 5
REMARK VINA RESULT:      -7.3      1.006      2.024
REMARK  Name = 
REMARK  10 active torsions:
REMARK  status: ('A' for Active; 'I' for Inactive)
REMARK    1  A    between atoms: C_1  and  C_2
REMARK    2  A    between atoms: C_2  and  C_3
REMARK    3  A    between atoms: N_9  and  C_10
REMARK    4  A    between atoms: N_9  and  C_17
REMARK    5  A    between atoms: C_10  and  C_11
REMARK    6  A    between atoms: C_11  and  N_12
REMARK    7  A    between atoms: C_20  and  O_21
REMARK    8  A    between atoms: O_21  and  C_22
REMARK    9  A    between atoms: C_23  and  O_24
REMARK   10  A    between atoms: O_24  and  C_25
REMARK                            x       y       z     vdW  Elec       q    Type
REMARK                         _______ _______ _______ _____ _____    ______ ____
ROOT
ATOM      1  C   UNL     1       1.048   9.905  20.116  0.00  0.00    +0.000 A 
ATOM      2  C   UNL     1       1.210  10.302  18.786  0.00  0.00    +0.000 A 
ATOM      3  C   UNL     1       1.722   9.418  17.832  0.00  0.00    +0.000 A 
ATOM      4  C   UNL     1       2.111   8.121  18.217  0.00  0.00    +0.000 A 
ATOM      5  N   UNL     1       2.610   7.144  17.380  0.00  0.00    +0.000 NA
ATOM      6  C   UNL     1       2.948   6.051  18.033  0.00  0.00    +0.000 A 
ATOM      7  N   UNL     1       3.505   4.937  17.435  0.00  0.00    +0.000 N 
ATOM      8  S   UNL     1       2.688   6.197  19.751  0.00  0.00    +0.000 S 
ATOM      9  C   UNL     1       2.001   7.755  19.553  0.00  0.00    +0.000 A 
ATOM     10  C   UNL     1       1.438   8.615  20.514  0.00  0.00    +0.000 A 
ENDROOT
BRANCH   7  11
ATOM     11  C   UNL     1       4.676   5.040  16.609  0.00  0.00    +0.000 A 
ATOM     12  C   UNL     1       5.684   5.983  16.854  0.00  0.00    +0.000 A 
ATOM     13  C   UNL     1       6.830   6.061  16.051  0.00  0.00    +0.000 A 
ATOM     14  C   UNL     1       7.018   5.208  14.962  0.00  0.00    +0.000 A 
ATOM     15  C   UNL     1       6.036   4.254  14.676  0.00  0.00    +0.000 A 
ATOM     16  C   UNL     1       4.901   4.182  15.507  0.00  0.00    +0.000 A 
BRANCH  14  17
ATOM     17  O   UNL     1       8.199   5.451  14.312  0.00  0.00    +0.000 OA
ATOM     18  C   UNL     1       8.168   5.734  12.920  0.00  0.00    +0.000 C 
ENDBRANCH  14  17
BRANCH  15  19
ATOM     19  O   UNL     1       6.221   3.420  13.604  0.00  0.00    +0.000 OA
ATOM     20  C   UNL     1       5.315   3.500  12.504  0.00  0.00    +0.000 C 
ENDBRANCH  15  19
ENDBRANCH   7  11
BRANCH   1  22
ATOM     21  C   UNL     1       0.841  12.319  20.732  0.00  0.00    +0.000 C 
ATOM     22  C   UNL     1       0.527  10.887  21.137  0.00  0.00    +0.000 C 
ENDBRANCH   1  22
BRANCH   7  23
ATOM     23  C   UNL     1       3.221   3.570  17.938  0.00  0.00    +0.000 C 
BRANCH  23  24
ATOM     24  C   UNL     1       3.849   3.168  19.290  0.00  0.00    +0.000 C 
BRANCH  24  25
ATOM     25  N   UNL     1       3.077   2.132  20.026  0.00  0.00    +0.000 NA
ATOM     26  C   UNL     1       1.749   1.959  19.404  0.00  0.00    +0.000 C 
ATOM     27  C   UNL     1       0.889   3.048  20.023  0.00  0.00    +0.000 C 
ATOM     28  C   UNL     1       1.368   3.085  21.460  0.00  0.00    +0.000 C 
ATOM     29  C   UNL     1       2.775   2.498  21.424  0.00  0.00    +0.000 C 
ENDBRANCH  24  25
ENDBRANCH  23  24
ENDBRANCH   7  23
TORSDOF 7
ENDMDL
MODEL 6
REMARK VINA RESULT:      -7.1      2.625      5.284
REMARK  Name = 
REMARK  10 active torsions:
REMARK  status: ('A' for Active; 'I' for Inactive)
REMARK    1  A    between atoms: C_1  and  C_2
REMARK    2  A    between atoms: C_2  and  C_3
REMARK    3  A    between atoms: N_9  and  C_10
REMARK    4  A    between atoms: N_9  and  C_17
REMARK    5  A    between atoms: C_10  and  C_11
REMARK    6  A    between atoms: C_11  and  N_12
REMARK    7  A    between atoms: C_20  and  O_21
REMARK    8  A    between atoms: O_21  and  C_22
REMARK    9  A    between atoms: C_23  and  O_24
REMARK   10  A    between atoms: O_24  and  C_25
REMARK                            x       y       z     vdW  Elec       q    Type
REMARK                         _______ _______ _______ _____ _____    ______ ____
ROOT
ATOM      1  C   UNL     1      -0.767  11.155  20.681  0.00  0.00    +0.000 A 
ATOM      2  C   UNL     1      -0.527  10.255  21.722  0.00  0.00    +0.000 A 
ATOM      3  C   UNL     1       0.380   9.202  21.565  0.00  0.00    +0.000 A 
ATOM      4  C   UNL     1       1.037   9.023  20.333  0.00  0.00    +0.000 A 
ATOM      5  N   UNL     1       1.967   8.045  20.048  0.00  0.00    +0.000 NA
ATOM      6  C   UNL     1       2.365   8.083  18.792  0.00  0.00    +0.000 A 
ATOM      7  N   UNL     1       3.264   7.192  18.241  0.00  0.00    +0.000 N 
ATOM      8  S   UNL     1       1.567   9.338  17.882  0.00  0.00    +0.000 S 
ATOM      9  C   UNL     1       0.748   9.888  19.285  0.00  0.00    +0.000 A 
ATOM     10  C   UNL     1      -0.121  10.983  19.444  0.00  0.00    +0.000 A 
ENDROOT
BRANCH   7  11
ATOM     11  C   UNL     1       3.063   5.773  18.337  0.00  0.00    +0.000 A 
ATOM     12  C   UNL     1       1.920   5.142  17.827  0.00  0.00    +0.000 A 
ATOM     13  C   UNL     1       1.744   3.754  17.912  0.00  0.00    +0.000 A 
ATOM     14  C   UNL     1       2.697   2.934  18.517  0.00  0.00    +0.000 A 
ATOM     15  C   UNL     1       3.853   3.519  19.044  0.00  0.00    +0.000 A 
ATOM     16  C   UNL     1       4.016   4.914  18.933  0.00  0.00    +0.000 A 
BRANCH  14  17
ATOM     17  O   UNL     1       2.333   1.613  18.495  0.00  0.00    +0.000 OA
ATOM     18  C   UNL     1       1.049   1.250  18.983  0.00  0.00    +0.000 C 
ENDBRANCH  14  17
BRANCH  15  19
ATOM     19  O   UNL     1       4.786   2.711  19.642  0.00  0.00    +0.000 OA
ATOM     20  C   UNL     1       4.443   2.044  20.857  0.00  0.00    +0.000 C 
ENDBRANCH  15  19
ENDBRANCH   7  11
BRANCH   1  22
ATOM     21  C   UNL     1      -1.163  13.619  20.548  0.00  0.00    +0.000 C 
ATOM     22  C   UNL     1      -1.776  12.263  20.859  0.00  0.00    +0.000 C 
ENDBRANCH   1  22
BRANCH   7  23
ATOM     23  C   UNL     1       4.211   7.612  17.179  0.00  0.00    +0.000 C 
BRANCH  23  24
ATOM     24  C   UNL     1       4.925   6.497  16.385  0.00  0.00    +0.000 C 
BRANCH  24  25
ATOM     25  N   UNL     1       6.398   6.679  16.285  0.00  0.00    +0.000 NA
ATOM     26  C   UNL     1       7.048   5.378  16.033  0.00  0.00    +0.000 C 
ATOM     27  C   UNL     1       7.212   4.755  17.410  0.00  0.00    +0.000 C 
ATOM     28  C   UNL     1       7.566   5.944  18.280  0.00  0.00    +0.000 C 
ATOM     29  C   UNL     1       7.023   7.157  17.534  0.00  0.00    +0.000 C 
ENDBRANCH  24  25
ENDBRANCH  23  24
ENDBRANCH   7  23
TORSDOF 7
ENDMDL
MODEL 7
REMARK VINA RESULT:      -7.0      2.823      5.414
REMARK  Name = 
REMARK  10 active torsions:
REMARK  status: ('A' for Active; 'I' for Inactive)
REMARK    1  A    between atoms: C_1  and  C_2
REMARK    2  A    between atoms: C_2  and  C_3
REMARK    3  A    between atoms: N_9  and  C_10
REMARK    4  A    between atoms: N_9  and  C_17
REMARK    5  A    between atoms: C_10  and  C_11
REMARK    6  A    between atoms: C_11  and  N_12
REMARK    7  A    between atoms: C_20  and  O_21
REMARK    8  A    between atoms: O_21  and  C_22
REMARK    9  A    between atoms: C_23  and  O_24
REMARK   10  A    between atoms: O_24  and  C_25
REMARK                            x       y       z     vdW  Elec       q    Type
REMARK                         _______ _______ _______ _____ _____    ______ ____
ROOT
ATOM      1  C   UNL     1      -0.893  11.034  20.642  0.00  0.00    +0.000 A 
ATOM      2  C   UNL     1      -0.465  10.301  21.752  0.00  0.00    +0.000 A 
ATOM      3  C   UNL     1       0.542   9.338  21.630  0.00  0.00    +0.000 A 
ATOM      4  C   UNL     1       1.111   9.078  20.370  0.00  0.00    +0.000 A 
ATOM      5  N   UNL     1       2.122   8.175  20.110  0.00  0.00    +0.000 NA
ATOM      6  C   UNL     1       2.407   8.098  18.826  0.00  0.00    +0.000 A 
ATOM      7  N   UNL     1       3.355   7.246  18.296  0.00  0.00    +0.000 N 
ATOM      8  S   UNL     1       1.397   9.139  17.859  0.00  0.00    +0.000 S 
ATOM      9  C   UNL     1       0.638   9.771  19.262  0.00  0.00    +0.000 A 
ATOM     10  C   UNL     1      -0.335  10.778  19.377  0.00  0.00    +0.000 A 
ENDROOT
BRANCH   7  11
ATOM     11  C   UNL     1       3.329   5.836  18.573  0.00  0.00    +0.000 A 
ATOM     12  C   UNL     1       4.315   5.207  19.346  0.00  0.00    +0.000 A 
ATOM     13  C   UNL     1       4.269   3.834  19.623  0.00  0.00    +0.000 A 
ATOM     14  C   UNL     1       3.242   3.025  19.135  0.00  0.00    +0.000 A 
ATOM     15  C   UNL     1       2.238   3.607  18.355  0.00  0.00    +0.000 A 
ATOM     16  C   UNL     1       2.295   4.993  18.103  0.00  0.00    +0.000 A 
BRANCH  14  17
ATOM     17  O   UNL     1       3.385   1.717  19.519  0.00  0.00    +0.000 OA
ATOM     18  C   UNL     1       4.115   0.834  18.681  0.00  0.00    +0.000 C 
ENDBRANCH  14  17
BRANCH  15  19
ATOM     19  O   UNL     1       1.232   2.810  17.873  0.00  0.00    +0.000 OA
ATOM     20  C   UNL     1       0.314   2.225  18.797  0.00  0.00    +0.000 C 
ENDBRANCH  15  19
ENDBRANCH   7  11
BRANCH   1  22
ATOM     21  C   UNL     1      -1.677  13.333  20.052  0.00  0.00    +0.000 C 
ATOM     22  C   UNL     1      -2.006  12.043  20.789  0.00  0.00    +0.000 C 
ENDBRANCH   1  22
BRANCH   7  23
ATOM     23  C   UNL     1       4.157   7.628  17.107  0.00  0.00    +0.000 C 
BRANCH  23  24
ATOM     24  C   UNL     1       4.884   6.496  16.351  0.00  0.00    +0.000 C 
BRANCH  24  25
ATOM     25  N   UNL     1       6.354   6.692  16.245  0.00  0.00    +0.000 NA
ATOM     26  C   UNL     1       7.000   5.433  15.824  0.00  0.00    +0.000 C 
ATOM     27  C   UNL     1       7.191   4.649  17.113  0.00  0.00    +0.000 C 
ATOM     28  C   UNL     1       7.562   5.725  18.114  0.00  0.00    +0.000 C 
ATOM     29  C   UNL     1       7.004   7.018  17.530  0.00  0.00    +0.000 C 
ENDBRANCH  24  25
ENDBRANCH  23  24
ENDBRANCH   7  23
TORSDOF 7
ENDMDL
MODEL 8
REMARK VINA RESULT:      -6.8      2.746      7.127
REMARK  Name = 
REMARK  10 active torsions:
REMARK  status: ('A' for Active; 'I' for Inactive)
REMARK    1  A    between atoms: C_1  and  C_2
REMARK    2  A    between atoms: C_2  and  C_3
REMARK    3  A    between atoms: N_9  and  C_10
REMARK    4  A    between atoms: N_9  and  C_17
REMARK    5  A    between atoms: C_10  and  C_11
REMARK    6  A    between atoms: C_11  and  N_12
REMARK    7  A    between atoms: C_20  and  O_21
REMARK    8  A    between atoms: O_21  and  C_22
REMARK    9  A    between atoms: C_23  and  O_24
REMARK   10  A    between atoms: O_24  and  C_25
REMARK                            x       y       z     vdW  Elec       q    Type
REMARK                         _______ _______ _______ _____ _____    ______ ____
ROOT
ATOM      1  C   UNL     1       6.423   5.191  15.443  0.00  0.00    +0.000 A 
ATOM      2  C   UNL     1       6.999   6.206  16.210  0.00  0.00    +0.000 A 
ATOM      3  C   UNL     1       6.365   6.678  17.365  0.00  0.00    +0.000 A 
ATOM      4  C   UNL     1       5.117   6.149  17.743  0.00  0.00    +0.000 A 
ATOM      5  N   UNL     1       4.395   6.505  18.864  0.00  0.00    +0.000 NA
ATOM      6  C   UNL     1       3.231   5.890  18.926  0.00  0.00    +0.000 A 
ATOM      7  N   UNL     1       2.303   6.095  19.927  0.00  0.00    +0.000 N 
ATOM      8  S   UNL     1       2.961   4.844  17.557  0.00  0.00    +0.000 S 
ATOM      9  C   UNL     1       4.526   5.181  16.942  0.00  0.00    +0.000 A 
ATOM     10  C   UNL     1       5.174   4.659  15.808  0.00  0.00    +0.000 A 
ENDROOT
BRANCH   7  11
ATOM     11  C   UNL     1       1.841   7.414  20.258  0.00  0.00    +0.000 A 
ATOM     12  C   UNL     1       1.693   7.844  21.584  0.00  0.00    +0.000 A 
ATOM     13  C   UNL     1       1.259   9.140  21.894  0.00  0.00    +0.000 A 
ATOM     14  C   UNL     1       0.944  10.063  20.896  0.00  0.00    +0.000 A 
ATOM     15  C   UNL     1       1.071   9.677  19.557  0.00  0.00    +0.000 A 
ATOM     16  C   UNL     1       1.526   8.375  19.269  0.00  0.00    +0.000 A 
BRANCH  14  17
ATOM     17  O   UNL     1       0.540  11.266  21.411  0.00  0.00    +0.000 OA
ATOM     18  C   UNL     1      -0.636  11.310  22.206  0.00  0.00    +0.000 C 
ENDBRANCH  14  17
BRANCH  15  19
ATOM     19  O   UNL     1       0.758  10.584  18.578  0.00  0.00    +0.000 OA
ATOM     20  C   UNL     1      -0.613  10.767  18.222  0.00  0.00    +0.000 C 
ENDBRANCH  15  19
ENDBRANCH   7  11
BRANCH   1  22
ATOM     21  C   UNL     1       6.186   3.833  13.357  0.00  0.00    +0.000 C 
ATOM     22  C   UNL     1       7.106   4.721  14.181  0.00  0.00    +0.000 C 
ENDBRANCH   1  22
BRANCH   7  23
ATOM     23  C   UNL     1       1.425   4.996  20.401  0.00  0.00    +0.000 C 
BRANCH  23  24
ATOM     24  C   UNL     1       1.966   4.097  21.534  0.00  0.00    +0.000 C 
BRANCH  24  25
ATOM     25  N   UNL     1       1.889   2.642  21.235  0.00  0.00    +0.000 NA
ATOM     26  C   UNL     1       3.210   2.017  21.442  0.00  0.00    +0.000 C 
ATOM     27  C   UNL     1       3.956   2.252  20.139  0.00  0.00    +0.000 C 
ATOM     28  C   UNL     1       2.875   2.076  19.092  0.00  0.00    +0.000 C 
ATOM     29  C   UNL     1       1.565   2.342  19.826  0.00  0.00    +0.000 C 
ENDBRANCH  24  25
ENDBRANCH  23  24
ENDBRANCH   7  23
TORSDOF 7
ENDMDL
MODEL 9
REMARK VINA RESULT:      -6.8      2.891      5.903
REMARK  Name = 
REMARK  10 active torsions:
REMARK  status: ('A' for Active; 'I' for Inactive)
REMARK    1  A    between atoms: C_1  and  C_2
REMARK    2  A    between atoms: C_2  and  C_3
REMARK    3  A    between atoms: N_9  and  C_10
REMARK    4  A    between atoms: N_9  and  C_17
REMARK    5  A    between atoms: C_10  and  C_11
REMARK    6  A    between atoms: C_11  and  N_12
REMARK    7  A    between atoms: C_20  and  O_21
REMARK    8  A    between atoms: O_21  and  C_22
REMARK    9  A    between atoms: C_23  and  O_24
REMARK   10  A    between atoms: O_24  and  C_25
REMARK                            x       y       z     vdW  Elec       q    Type
REMARK                         _______ _______ _______ _____ _____    ______ ____
ROOT
ATOM      1  C   UNL     1      -0.824  12.275  20.541  0.00  0.00    +0.000 A 
ATOM      2  C   UNL     1      -0.568  11.599  21.736  0.00  0.00    +0.000 A 
ATOM      3  C   UNL     1       0.227  10.448  21.752  0.00  0.00    +0.000 A 
ATOM      4  C   UNL     1       0.750   9.943  20.547  0.00  0.00    +0.000 A 
ATOM      5  N   UNL     1       1.563   8.835  20.420  0.00  0.00    +0.000 NA
ATOM      6  C   UNL     1       1.845   8.562  19.162  0.00  0.00    +0.000 A 
ATOM      7  N   UNL     1       2.610   7.486  18.759  0.00  0.00    +0.000 N 
ATOM      8  S   UNL     1       1.077   9.670  18.056  0.00  0.00    +0.000 S 
ATOM      9  C   UNL     1       0.442  10.589  19.356  0.00  0.00    +0.000 A 
ATOM     10  C   UNL     1      -0.311  11.776  19.330  0.00  0.00    +0.000 A 
ENDROOT
BRANCH   7  11
ATOM     11  C   UNL     1       2.298   6.148  19.182  0.00  0.00    +0.000 A 
ATOM     12  C   UNL     1       2.077   5.820  20.526  0.00  0.00    +0.000 A 
ATOM     13  C   UNL     1       1.755   4.515  20.923  0.00  0.00    +0.000 A 
ATOM     14  C   UNL     1       1.649   3.476  19.998  0.00  0.00    +0.000 A 
ATOM     15  C   UNL     1       1.865   3.755  18.644  0.00  0.00    +0.000 A 
ATOM     16  C   UNL     1       2.170   5.077  18.266  0.00  0.00    +0.000 A 
BRANCH  14  17
ATOM     17  O   UNL     1       1.329   2.284  20.592  0.00  0.00    +0.000 OA
ATOM     18  C   UNL     1       1.529   2.141  21.990  0.00  0.00    +0.000 C 
ENDBRANCH  14  17
BRANCH  15  19
ATOM     19  O   UNL     1       1.764   2.731  17.737  0.00  0.00    +0.000 OA
ATOM     20  C   UNL     1       2.902   1.901  17.505  0.00  0.00    +0.000 C 
ENDBRANCH  15  19
ENDBRANCH   7  11
BRANCH   1  22
ATOM     21  C   UNL     1      -1.066  14.646  19.788  0.00  0.00    +0.000 C 
ATOM     22  C   UNL     1      -1.714  13.494  20.541  0.00  0.00    +0.000 C 
ENDBRANCH   1  22
BRANCH   7  23
ATOM     23  C   UNL     1       3.488   7.568  17.566  0.00  0.00    +0.000 C 
BRANCH  23  24
ATOM     24  C   UNL     1       4.973   7.187  17.752  0.00  0.00    +0.000 C 
BRANCH  24  25
ATOM     25  N   UNL     1       5.655   6.795  16.491  0.00  0.00    +0.000 NA
ATOM     26  C   UNL     1       5.020   5.585  15.932  0.00  0.00    +0.000 C 
ATOM     27  C   UNL     1       5.687   4.429  16.659  0.00  0.00    +0.000 C 
ATOM     28  C   UNL     1       7.126   4.887  16.779  0.00  0.00    +0.000 C 
ATOM     29  C   UNL     1       7.068   6.407  16.675  0.00  0.00    +0.000 C 
ENDBRANCH  24  25
ENDBRANCH  23  24
ENDBRANCH   7  23
TORSDOF 7
ENDMDL
