MODEL 1
REMARK VINA RESULT:      -8.7      0.000      0.000
REMARK  Name = 
REMARK  6 active torsions:
REMARK  status: ('A' for Active; 'I' for Inactive)
REMARK    1  A    between atoms: C_1  and  O_2
REMARK    2  A    between atoms: O_2  and  C_3
REMARK    3  A    between atoms: C_6  and  C_7
REMARK    4  A    between atoms: C_10  and  C_11
REMARK    5  A    between atoms: C_11  and  N_12
REMARK    6  A    between atoms: C_16  and  C_17
REMARK                            x       y       z     vdW  Elec       q    Type
REMARK                         _______ _______ _______ _____ _____    ______ ____
ROOT
ATOM      1  C   UNL     1       0.781   9.570  19.531  0.00  0.00    +0.000 C 
ATOM      2  N   UNL     1       0.743  10.050  18.340  0.00  0.00    +0.000 NA
ATOM      3  O   UNL     1       1.709   9.390  17.517  0.00  0.00    +0.000 OA
ATOM      4  C   UNL     1       2.168   8.180  18.166  0.00  0.00    +0.000 C 
ATOM      5  C   UNL     1       1.763   8.437  19.651  0.00  0.00    +0.000 C 
ENDROOT
BRANCH   1   9
ATOM      6  C   UNL     1      -1.499  11.541  22.776  0.00  0.00    +0.000 A 
ATOM      7  C   UNL     1      -1.456  12.039  21.481  0.00  0.00    +0.000 A 
ATOM      8  C   UNL     1      -0.758  11.376  20.452  0.00  0.00    +0.000 A 
ATOM      9  C   UNL     1      -0.047  10.168  20.684  0.00  0.00    +0.000 A 
ATOM     10  C   UNL     1      -0.115   9.665  21.992  0.00  0.00    +0.000 A 
ATOM     11  C   UNL     1      -0.835  10.340  23.032  0.00  0.00    +0.000 A 
BRANCH   6  13
ATOM     12  C   UNL     1      -3.586  12.394  23.644  0.00  0.00    +0.000 C 
ATOM     13  O   UNL     1      -2.164  12.337  23.664  0.00  0.00    +0.000 OA
ENDBRANCH   6  13
ENDBRANCH   1   9
BRANCH   4  14
ATOM     14  C   UNL     1       3.706   7.804  17.610  0.00  0.00    +0.000 C 
BRANCH  14  15
ATOM     15  N   UNL     1       3.985   6.394  17.243  0.00  0.00    +0.000 N 
ATOM     16  C   UNL     1       5.149   6.246  16.518  0.00  0.00    +0.000 A 
ATOM     17  O   UNL     1       5.457   6.818  15.471  0.00  0.00    +0.000 OA
ATOM     18  C   UNL     1       6.075   5.282  17.188  0.00  0.00    +0.000 A 
ATOM     19  C   UNL     1       5.512   4.109  16.863  0.00  0.00    +0.000 A 
ATOM     20  C   UNL     1       5.617   3.552  15.463  0.00  0.00    +0.000 C 
ATOM     21  C   UNL     1       4.180   3.929  17.467  0.00  0.00    +0.000 A 
ATOM     22  C   UNL     1       3.762   2.607  17.696  0.00  0.00    +0.000 A 
ATOM     23  C   UNL     1       2.443   2.352  18.003  0.00  0.00    +0.000 A 
ATOM     24  C   UNL     1       1.576   3.439  18.107  0.00  0.00    +0.000 A 
ATOM     25  C   UNL     1       2.013   4.808  17.948  0.00  0.00    +0.000 A 
ATOM     26  C   UNL     1       3.336   5.092  17.621  0.00  0.00    +0.000 A 
ENDBRANCH  14  15
ENDBRANCH   4  14
TORSDOF 4
ENDMDL
MODEL 2
REMARK VINA RESULT:      -8.3      2.162      9.418
REMARK  Name = 
REMARK  6 active torsions:
REMARK  status: ('A' for Active; 'I' for Inactive)
REMARK    1  A    between atoms: C_1  and  O_2
REMARK    2  A    between atoms: O_2  and  C_3
REMARK    3  A    between atoms: C_6  and  C_7
REMARK    4  A    between atoms: C_10  and  C_11
REMARK    5  A    between atoms: C_11  and  N_12
REMARK    6  A    between atoms: C_16  and  C_17
REMARK                            x       y       z     vdW  Elec       q    Type
REMARK                         _______ _______ _______ _____ _____    ______ ____
ROOT
ATOM      1  C   UNL     1       2.766   7.235  18.312  0.00  0.00    +0.000 C 
ATOM      2  N   UNL     1       2.414   7.128  19.543  0.00  0.00    +0.000 NA
ATOM      3  O   UNL     1       1.702   8.301  19.950  0.00  0.00    +0.000 OA
ATOM      4  C   UNL     1       1.303   9.065  18.787  0.00  0.00    +0.000 C 
ATOM      5  C   UNL     1       2.259   8.506  17.689  0.00  0.00    +0.000 C 
ENDROOT
BRANCH   1   9
ATOM      6  C   UNL     1       5.335   4.387  16.096  0.00  0.00    +0.000 A 
ATOM      7  C   UNL     1       5.536   5.760  16.063  0.00  0.00    +0.000 A 
ATOM      8  C   UNL     1       4.734   6.648  16.807  0.00  0.00    +0.000 A 
ATOM      9  C   UNL     1       3.664   6.191  17.622  0.00  0.00    +0.000 A 
ATOM     10  C   UNL     1       3.483   4.799  17.663  0.00  0.00    +0.000 A 
ATOM     11  C   UNL     1       4.309   3.901  16.911  0.00  0.00    +0.000 A 
BRANCH   6  13
ATOM     12  C   UNL     1       6.251   4.019  13.892  0.00  0.00    +0.000 C 
ATOM     13  O   UNL     1       6.157   3.677  15.271  0.00  0.00    +0.000 OA
ENDBRANCH   6  13
ENDBRANCH   1   9
BRANCH   4  14
ATOM     14  C   UNL     1       1.127  10.677  19.220  0.00  0.00    +0.000 C 
BRANCH  14  15
ATOM     15  N   UNL     1      -0.224  11.145  19.618  0.00  0.00    +0.000 N 
ATOM     16  C   UNL     1      -0.216  11.900  20.772  0.00  0.00    +0.000 A 
ATOM     17  O   UNL     1       0.246  11.586  21.869  0.00  0.00    +0.000 OA
ATOM     18  C   UNL     1      -0.837  13.239  20.535  0.00  0.00    +0.000 A 
ATOM     19  C   UNL     1      -2.142  12.927  20.537  0.00  0.00    +0.000 A 
ATOM     20  C   UNL     1      -2.864  12.591  21.819  0.00  0.00    +0.000 C 
ATOM     21  C   UNL     1      -2.521  12.063  19.406  0.00  0.00    +0.000 A 
ATOM     22  C   UNL     1      -3.854  12.145  18.966  0.00  0.00    +0.000 A 
ATOM     23  C   UNL     1      -4.348  11.189  18.103  0.00  0.00    +0.000 A 
ATOM     24  C   UNL     1      -3.478  10.187  17.674  0.00  0.00    +0.000 A 
ATOM     25  C   UNL     1      -2.086  10.138  18.062  0.00  0.00    +0.000 A 
ATOM     26  C   UNL     1      -1.566  11.081  18.944  0.00  0.00    +0.000 A 
ENDBRANCH  14  15
ENDBRANCH   4  14
TORSDOF 4
ENDMDL
MODEL 3
REMARK VINA RESULT:      -8.3      4.381      7.510
REMARK  Name = 
REMARK  6 active torsions:
REMARK  status: ('A' for Active; 'I' for Inactive)
REMARK    1  A    between atoms: C_1  and  O_2
REMARK    2  A    between atoms: O_2  and  C_3
REMARK    3  A    between atoms: C_6  and  C_7
REMARK    4  A    between atoms: C_10  and  C_11
REMARK    5  A    between atoms: C_11  and  N_12
REMARK    6  A    between atoms: C_16  and  C_17
REMARK                            x       y       z     vdW  Elec       q    Type
REMARK                         _______ _______ _______ _____ _____    ______ ____
ROOT
ATOM      1  C   UNL     1       7.954   7.846  17.983  0.00  0.00    +0.000 C 
ATOM      2  N   UNL     1       8.160   6.900  18.828  0.00  0.00    +0.000 NA
ATOM      3  O   UNL     1       7.489   5.711  18.401  0.00  0.00    +0.000 OA
ATOM      4  C   UNL     1       7.093   5.837  17.014  0.00  0.00    +0.000 C 
ATOM      5  C   UNL     1       7.148   7.382  16.802  0.00  0.00    +0.000 C 
ENDROOT
BRANCH   1   9
ATOM      6  C   UNL     1       9.266  11.960  18.972  0.00  0.00    +0.000 A 
ATOM      7  C   UNL     1       9.600  10.860  19.749  0.00  0.00    +0.000 A 
ATOM      8  C   UNL     1       9.208   9.553  19.397  0.00  0.00    +0.000 A 
ATOM      9  C   UNL     1       8.436   9.288  18.234  0.00  0.00    +0.000 A 
ATOM     10  C   UNL     1       8.121  10.406  17.446  0.00  0.00    +0.000 A 
ATOM     11  C   UNL     1       8.531  11.732  17.805  0.00  0.00    +0.000 A 
BRANCH   6  13
ATOM     12  C   UNL     1       9.745  14.305  18.648  0.00  0.00    +0.000 C 
ATOM     13  O   UNL     1       9.668  13.158  19.487  0.00  0.00    +0.000 OA
ENDBRANCH   6  13
ENDBRANCH   1   9
BRANCH   4  14
ATOM     14  C   UNL     1       5.771   4.845  16.725  0.00  0.00    +0.000 C 
BRANCH  14  15
ATOM     15  N   UNL     1       4.581   5.002  17.597  0.00  0.00    +0.000 N 
ATOM     16  C   UNL     1       4.202   3.826  18.209  0.00  0.00    +0.000 A 
ATOM     17  O   UNL     1       3.945   2.749  17.669  0.00  0.00    +0.000 OA
ATOM     18  C   UNL     1       4.159   3.989  19.695  0.00  0.00    +0.000 A 
ATOM     19  C   UNL     1       3.004   4.653  19.853  0.00  0.00    +0.000 A 
ATOM     20  C   UNL     1       1.674   3.959  19.686  0.00  0.00    +0.000 C 
ATOM     21  C   UNL     1       3.039   6.003  19.265  0.00  0.00    +0.000 A 
ATOM     22  C   UNL     1       2.187   6.964  19.836  0.00  0.00    +0.000 A 
ATOM     23  C   UNL     1       1.967   8.157  19.181  0.00  0.00    +0.000 A 
ATOM     24  C   UNL     1       2.638   8.373  17.978  0.00  0.00    +0.000 A 
ATOM     25  C   UNL     1       3.575   7.422  17.421  0.00  0.00    +0.000 A 
ATOM     26  C   UNL     1       3.802   6.203  18.054  0.00  0.00    +0.000 A 
ENDBRANCH  14  15
ENDBRANCH   4  14
TORSDOF 4
ENDMDL
MODEL 4
REMARK VINA RESULT:      -8.3      4.392      7.504
REMARK  Name = 
REMARK  6 active torsions:
REMARK  status: ('A' for Active; 'I' for Inactive)
REMARK    1  A    between atoms: C_1  and  O_2
REMARK    2  A    between atoms: O_2  and  C_3
REMARK    3  A    between atoms: C_6  and  C_7
REMARK    4  A    between atoms: C_10  and  C_11
REMARK    5  A    between atoms: C_11  and  N_12
REMARK    6  A    between atoms: C_16  and  C_17
REMARK                            x       y       z     vdW  Elec       q    Type
REMARK                         _______ _______ _______ _____ _____    ______ ____
ROOT
ATOM      1  C   UNL     1       8.037   8.006  18.079  0.00  0.00    +0.000 C 
ATOM      2  N   UNL     1       8.253   6.994  18.841  0.00  0.00    +0.000 NA
ATOM      3  O   UNL     1       7.577   5.843  18.325  0.00  0.00    +0.000 OA
ATOM      4  C   UNL     1       7.166   6.082  16.957  0.00  0.00    +0.000 C 
ATOM      5  C   UNL     1       7.218   7.639  16.873  0.00  0.00    +0.000 C 
ENDROOT
BRANCH   1   9
ATOM      6  C   UNL     1       9.501  12.114  18.855  0.00  0.00    +0.000 A 
ATOM      7  C   UNL     1       8.692  11.799  17.773  0.00  0.00    +0.000 A 
ATOM      8  C   UNL     1       8.202  10.494  17.565  0.00  0.00    +0.000 A 
ATOM      9  C   UNL     1       8.520   9.423  18.442  0.00  0.00    +0.000 A 
ATOM     10  C   UNL     1       9.323   9.759  19.544  0.00  0.00    +0.000 A 
ATOM     11  C   UNL     1       9.810  11.090  19.755  0.00  0.00    +0.000 A 
BRANCH   6  13
ATOM     12  C   UNL     1      10.092  14.089  20.114  0.00  0.00    +0.000 C 
ATOM     13  O   UNL     1       9.939  13.406  18.874  0.00  0.00    +0.000 OA
ENDBRANCH   6  13
ENDBRANCH   1   9
BRANCH   4  14
ATOM     14  C   UNL     1       5.843   5.115  16.602  0.00  0.00    +0.000 C 
BRANCH  14  15
ATOM     15  N   UNL     1       4.662   5.198  17.497  0.00  0.00    +0.000 N 
ATOM     16  C   UNL     1       4.349   3.994  18.091  0.00  0.00    +0.000 A 
ATOM     17  O   UNL     1       4.135   2.917  17.534  0.00  0.00    +0.000 OA
ATOM     18  C   UNL     1       4.325   4.125  19.580  0.00  0.00    +0.000 A 
ATOM     19  C   UNL     1       3.143   4.730  19.771  0.00  0.00    +0.000 A 
ATOM     20  C   UNL     1       1.845   3.976  19.612  0.00  0.00    +0.000 C 
ATOM     21  C   UNL     1       3.103   6.092  19.210  0.00  0.00    +0.000 A 
ATOM     22  C   UNL     1       2.217   7.000  19.815  0.00  0.00    +0.000 A 
ATOM     23  C   UNL     1       1.930   8.193  19.188  0.00  0.00    +0.000 A 
ATOM     24  C   UNL     1       2.568   8.464  17.978  0.00  0.00    +0.000 A 
ATOM     25  C   UNL     1       3.539   7.570  17.386  0.00  0.00    +0.000 A 
ATOM     26  C   UNL     1       3.834   6.351  17.991  0.00  0.00    +0.000 A 
ENDBRANCH  14  15
ENDBRANCH   4  14
TORSDOF 4
ENDMDL
MODEL 5
REMARK VINA RESULT:      -7.9      2.791      4.037
REMARK  Name = 
REMARK  6 active torsions:
REMARK  status: ('A' for Active; 'I' for Inactive)
REMARK    1  A    between atoms: C_1  and  O_2
REMARK    2  A    between atoms: O_2  and  C_3
REMARK    3  A    between atoms: C_6  and  C_7
REMARK    4  A    between atoms: C_10  and  C_11
REMARK    5  A    between atoms: C_11  and  N_12
REMARK    6  A    between atoms: C_16  and  C_17
REMARK                            x       y       z     vdW  Elec       q    Type
REMARK                         _______ _______ _______ _____ _____    ______ ____
ROOT
ATOM      1  C   UNL     1       1.462  10.317  18.592  0.00  0.00    +0.000 C 
ATOM      2  N   UNL     1       2.070   9.749  17.614  0.00  0.00    +0.000 NA
ATOM      3  O   UNL     1       2.381   8.394  17.954  0.00  0.00    +0.000 OA
ATOM      4  C   UNL     1       1.622   7.990  19.119  0.00  0.00    +0.000 C 
ATOM      5  C   UNL     1       1.212   9.366  19.730  0.00  0.00    +0.000 C 
ENDROOT
BRANCH   1   9
ATOM      6  C   UNL     1       0.673  14.673  18.745  0.00  0.00    +0.000 A 
ATOM      7  C   UNL     1       1.950  14.147  18.607  0.00  0.00    +0.000 A 
ATOM      8  C   UNL     1       2.177  12.759  18.520  0.00  0.00    +0.000 A 
ATOM      9  C   UNL     1       1.115  11.818  18.582  0.00  0.00    +0.000 A 
ATOM     10  C   UNL     1      -0.173  12.363  18.702  0.00  0.00    +0.000 A 
ATOM     11  C   UNL     1      -0.398  13.776  18.781  0.00  0.00    +0.000 A 
BRANCH   6  13
ATOM     12  C   UNL     1      -0.513  16.756  18.450  0.00  0.00    +0.000 C 
ATOM     13  O   UNL     1       0.634  16.030  18.879  0.00  0.00    +0.000 OA
ENDBRANCH   6  13
ENDBRANCH   1   9
BRANCH   4  14
ATOM     14  C   UNL     1       2.441   6.759  19.912  0.00  0.00    +0.000 C 
BRANCH  14  15
ATOM     15  N   UNL     1       2.865   5.582  19.114  0.00  0.00    +0.000 N 
ATOM     16  C   UNL     1       1.913   4.585  19.075  0.00  0.00    +0.000 A 
ATOM     17  O   UNL     1       1.373   4.028  20.032  0.00  0.00    +0.000 OA
ATOM     18  C   UNL     1       1.553   4.247  17.664  0.00  0.00    +0.000 A 
ATOM     19  C   UNL     1       2.606   3.501  17.298  0.00  0.00    +0.000 A 
ATOM     20  C   UNL     1       2.781   2.090  17.807  0.00  0.00    +0.000 C 
ATOM     21  C   UNL     1       3.861   4.270  17.257  0.00  0.00    +0.000 A 
ATOM     22  C   UNL     1       4.856   3.812  16.375  0.00  0.00    +0.000 A 
ATOM     23  C   UNL     1       6.138   4.310  16.475  0.00  0.00    +0.000 A 
ATOM     24  C   UNL     1       6.385   5.285  17.439  0.00  0.00    +0.000 A 
ATOM     25  C   UNL     1       5.351   5.817  18.300  0.00  0.00    +0.000 A 
ATOM     26  C   UNL     1       4.053   5.320  18.231  0.00  0.00    +0.000 A 
ENDBRANCH  14  15
ENDBRANCH   4  14
TORSDOF 4
ENDMDL
MODEL 6
REMARK VINA RESULT:      -7.9      1.995      9.421
REMARK  Name = 
REMARK  6 active torsions:
REMARK  status: ('A' for Active; 'I' for Inactive)
REMARK    1  A    between atoms: C_1  and  O_2
REMARK    2  A    between atoms: O_2  and  C_3
REMARK    3  A    between atoms: C_6  and  C_7
REMARK    4  A    between atoms: C_10  and  C_11
REMARK    5  A    between atoms: C_11  and  N_12
REMARK    6  A    between atoms: C_16  and  C_17
REMARK                            x       y       z     vdW  Elec       q    Type
REMARK                         _______ _______ _______ _____ _____    ______ ____
ROOT
ATOM      1  C   UNL     1       2.732   6.602  18.923  0.00  0.00    +0.000 C 
ATOM      2  N   UNL     1       2.382   5.970  19.985  0.00  0.00    +0.000 NA
ATOM      3  O   UNL     1       1.689   6.854  20.872  0.00  0.00    +0.000 OA
ATOM      4  C   UNL     1       1.298   8.056  20.166  0.00  0.00    +0.000 C 
ATOM      5  C   UNL     1       2.244   8.024  18.925  0.00  0.00    +0.000 C 
ENDROOT
BRANCH   1   9
ATOM      6  C   UNL     1       5.332   4.543  15.986  0.00  0.00    +0.000 A 
ATOM      7  C   UNL     1       4.416   3.867  16.780  0.00  0.00    +0.000 A 
ATOM      8  C   UNL     1       3.569   4.543  17.680  0.00  0.00    +0.000 A 
ATOM      9  C   UNL     1       3.613   5.954  17.837  0.00  0.00    +0.000 A 
ATOM     10  C   UNL     1       4.529   6.628  17.014  0.00  0.00    +0.000 A 
ATOM     11  C   UNL     1       5.382   5.935  16.095  0.00  0.00    +0.000 A 
BRANCH   6  13
ATOM     12  C   UNL     1       6.225   3.966  13.817  0.00  0.00    +0.000 C 
ATOM     13  O   UNL     1       6.118   3.734  15.218  0.00  0.00    +0.000 OA
ENDBRANCH   6  13
ENDBRANCH   1   9
BRANCH   4  14
ATOM     14  C   UNL     1       1.148   9.316  21.264  0.00  0.00    +0.000 C 
BRANCH  14  15
ATOM     15  N   UNL     1      -0.041  10.196  21.151  0.00  0.00    +0.000 N 
ATOM     16  C   UNL     1      -0.349  10.842  22.330  0.00  0.00    +0.000 A 
ATOM     17  O   UNL     1      -0.549  10.332  23.433  0.00  0.00    +0.000 OA
ATOM     18  C   UNL     1      -0.387  12.323  22.131  0.00  0.00    +0.000 A 
ATOM     19  C   UNL     1      -1.577  12.475  21.530  0.00  0.00    +0.000 A 
ATOM     20  C   UNL     1      -2.867  12.340  22.302  0.00  0.00    +0.000 C 
ATOM     21  C   UNL     1      -1.624  11.853  20.195  0.00  0.00    +0.000 A 
ATOM     22  C   UNL     1      -2.524  12.409  19.270  0.00  0.00    +0.000 A 
ATOM     23  C   UNL     1      -2.816  11.726  18.108  0.00  0.00    +0.000 A 
ATOM     24  C   UNL     1      -2.169  10.511  17.886  0.00  0.00    +0.000 A 
ATOM     25  C   UNL     1      -1.185   9.969  18.797  0.00  0.00    +0.000 A 
ATOM     26  C   UNL     1      -0.884  10.630  19.984  0.00  0.00    +0.000 A 
ENDBRANCH  14  15
ENDBRANCH   4  14
TORSDOF 4
ENDMDL
MODEL 7
REMARK VINA RESULT:      -7.9      2.049      9.724
REMARK  Name = 
REMARK  6 active torsions:
REMARK  status: ('A' for Active; 'I' for Inactive)
REMARK    1  A    between atoms: C_1  and  O_2
REMARK    2  A    between atoms: O_2  and  C_3
REMARK    3  A    between atoms: C_6  and  C_7
REMARK    4  A    between atoms: C_10  and  C_11
REMARK    5  A    between atoms: C_11  and  N_12
REMARK    6  A    between atoms: C_16  and  C_17
REMARK                            x       y       z     vdW  Elec       q    Type
REMARK                         _______ _______ _______ _____ _____    ______ ____
ROOT
ATOM      1  C   UNL     1       2.205   7.852  18.928  0.00  0.00    +0.000 C 
ATOM      2  N   UNL     1       1.917   7.592  20.152  0.00  0.00    +0.000 NA
ATOM      3  O   UNL     1       1.238   8.705  20.740  0.00  0.00    +0.000 OA
ATOM      4  C   UNL     1       0.785   9.611  19.705  0.00  0.00    +0.000 C 
ATOM      5  C   UNL     1       1.678   9.192  18.497  0.00  0.00    +0.000 C 
ENDROOT
BRANCH   1   9
ATOM      6  C   UNL     1       4.682   4.952  16.675  0.00  0.00    +0.000 A 
ATOM      7  C   UNL     1       3.631   4.563  17.492  0.00  0.00    +0.000 A 
ATOM      8  C   UNL     1       2.828   5.502  18.170  0.00  0.00    +0.000 A 
ATOM      9  C   UNL     1       3.057   6.900  18.066  0.00  0.00    +0.000 A 
ATOM     10  C   UNL     1       4.111   7.281  17.220  0.00  0.00    +0.000 A 
ATOM     11  C   UNL     1       4.918   6.321  16.527  0.00  0.00    +0.000 A 
BRANCH   6  13
ATOM     12  C   UNL     1       6.740   4.122  15.718  0.00  0.00    +0.000 C 
ATOM     13  O   UNL     1       5.397   3.917  16.145  0.00  0.00    +0.000 OA
ENDBRANCH   6  13
ENDBRANCH   1   9
BRANCH   4  14
ATOM     14  C   UNL     1       0.646  11.155  20.345  0.00  0.00    +0.000 C 
BRANCH  14  15
ATOM     15  N   UNL     1      -0.659  11.547  20.934  0.00  0.00    +0.000 N 
ATOM     16  C   UNL     1      -0.612  11.689  22.305  0.00  0.00    +0.000 A 
ATOM     17  O   UNL     1      -0.232  10.858  23.131  0.00  0.00    +0.000 OA
ATOM     18  C   UNL     1      -1.069  13.052  22.715  0.00  0.00    +0.000 A 
ATOM     19  C   UNL     1      -2.400  12.929  22.594  0.00  0.00    +0.000 A 
ATOM     20  C   UNL     1      -3.206  12.135  23.593  0.00  0.00    +0.000 C 
ATOM     21  C   UNL     1      -2.828  12.725  21.200  0.00  0.00    +0.000 A 
ATOM     22  C   UNL     1      -4.125  13.154  20.867  0.00  0.00    +0.000 A 
ATOM     23  C   UNL     1      -4.688  12.760  19.671  0.00  0.00    +0.000 A 
ATOM     24  C   UNL     1      -3.920  11.968  18.819  0.00  0.00    +0.000 A 
ATOM     25  C   UNL     1      -2.558  11.585  19.119  0.00  0.00    +0.000 A 
ATOM     26  C   UNL     1      -1.972  11.955  20.326  0.00  0.00    +0.000 A 
ENDBRANCH  14  15
ENDBRANCH   4  14
TORSDOF 4
ENDMDL
MODEL 8
REMARK VINA RESULT:      -7.8      2.261      9.462
REMARK  Name = 
REMARK  6 active torsions:
REMARK  status: ('A' for Active; 'I' for Inactive)
REMARK    1  A    between atoms: C_1  and  O_2
REMARK    2  A    between atoms: O_2  and  C_3
REMARK    3  A    between atoms: C_6  and  C_7
REMARK    4  A    between atoms: C_10  and  C_11
REMARK    5  A    between atoms: C_11  and  N_12
REMARK    6  A    between atoms: C_16  and  C_17
REMARK                            x       y       z     vdW  Elec       q    Type
REMARK                         _______ _______ _______ _____ _____    ______ ____
ROOT
ATOM      1  C   UNL     1       2.624   7.462  18.519  0.00  0.00    +0.000 C 
ATOM      2  N   UNL     1       2.394   7.184  19.752  0.00  0.00    +0.000 NA
ATOM      3  O   UNL     1       1.614   8.224  20.349  0.00  0.00    +0.000 OA
ATOM      4  C   UNL     1       1.042   9.066  19.320  0.00  0.00    +0.000 C 
ATOM      5  C   UNL     1       1.946   8.734  18.092  0.00  0.00    +0.000 C 
ENDROOT
BRANCH   1   9
ATOM      6  C   UNL     1       5.310   4.800  16.213  0.00  0.00    +0.000 A 
ATOM      7  C   UNL     1       4.221   4.326  16.931  0.00  0.00    +0.000 A 
ATOM      8  C   UNL     1       3.354   5.192  17.625  0.00  0.00    +0.000 A 
ATOM      9  C   UNL     1       3.552   6.599  17.643  0.00  0.00    +0.000 A 
ATOM     10  C   UNL     1       4.644   7.067  16.897  0.00  0.00    +0.000 A 
ATOM     11  C   UNL     1       5.517   6.181  16.185  0.00  0.00    +0.000 A 
BRANCH   6  13
ATOM     12  C   UNL     1       6.254   3.775  14.239  0.00  0.00    +0.000 C 
ATOM     13  O   UNL     1       6.083   3.825  15.652  0.00  0.00    +0.000 OA
ENDBRANCH   6  13
ENDBRANCH   1   9
BRANCH   4  14
ATOM     14  C   UNL     1       0.754  10.593  19.953  0.00  0.00    +0.000 C 
BRANCH  14  15
ATOM     15  N   UNL     1      -0.647  11.082  19.973  0.00  0.00    +0.000 N 
ATOM     16  C   UNL     1      -0.909  11.927  21.031  0.00  0.00    +0.000 A 
ATOM     17  O   UNL     1      -0.731  11.703  22.230  0.00  0.00    +0.000 OA
ATOM     18  C   UNL     1      -1.436  13.239  20.548  0.00  0.00    +0.000 A 
ATOM     19  C   UNL     1      -2.706  12.920  20.257  0.00  0.00    +0.000 A 
ATOM     20  C   UNL     1      -3.722  12.682  21.347  0.00  0.00    +0.000 C 
ATOM     21  C   UNL     1      -2.811  11.967  19.138  0.00  0.00    +0.000 A 
ATOM     22  C   UNL     1      -3.996  12.006  18.383  0.00  0.00    +0.000 A 
ATOM     23  C   UNL     1      -4.279  10.982  17.504  0.00  0.00    +0.000 A 
ATOM     24  C   UNL     1      -3.345   9.954  17.378  0.00  0.00    +0.000 A 
ATOM     25  C   UNL     1      -2.089   9.944  18.095  0.00  0.00    +0.000 A 
ATOM     26  C   UNL     1      -1.786  10.957  19.000  0.00  0.00    +0.000 A 
ENDBRANCH  14  15
ENDBRANCH   4  14
TORSDOF 4
ENDMDL
MODEL 9
REMARK VINA RESULT:      -7.8      2.050      9.355
REMARK  Name = 
REMARK  6 active torsions:
REMARK  status: ('A' for Active; 'I' for Inactive)
REMARK    1  A    between atoms: C_1  and  O_2
REMARK    2  A    between atoms: O_2  and  C_3
REMARK    3  A    between atoms: C_6  and  C_7
REMARK    4  A    between atoms: C_10  and  C_11
REMARK    5  A    between atoms: C_11  and  N_12
REMARK    6  A    between atoms: C_16  and  C_17
REMARK                            x       y       z     vdW  Elec       q    Type
REMARK                         _______ _______ _______ _____ _____    ______ ____
ROOT
ATOM      1  C   UNL     1       2.735   6.676  18.800  0.00  0.00    +0.000 C 
ATOM      2  N   UNL     1       2.341   6.056  19.853  0.00  0.00    +0.000 NA
ATOM      3  O   UNL     1       1.679   6.967  20.737  0.00  0.00    +0.000 OA
ATOM      4  C   UNL     1       1.356   8.191  20.033  0.00  0.00    +0.000 C 
ATOM      5  C   UNL     1       2.316   8.120  18.805  0.00  0.00    +0.000 C 
ENDROOT
BRANCH   1   9
ATOM      6  C   UNL     1       5.279   4.515  15.887  0.00  0.00    +0.000 A 
ATOM      7  C   UNL     1       4.343   3.873  16.687  0.00  0.00    +0.000 A 
ATOM      8  C   UNL     1       3.515   4.582  17.578  0.00  0.00    +0.000 A 
ATOM      9  C   UNL     1       3.598   5.993  17.722  0.00  0.00    +0.000 A 
ATOM     10  C   UNL     1       4.534   6.633  16.894  0.00  0.00    +0.000 A 
ATOM     11  C   UNL     1       5.368   5.906  15.982  0.00  0.00    +0.000 A 
BRANCH   6  13
ATOM     12  C   UNL     1       6.233   3.944  13.743  0.00  0.00    +0.000 C 
ATOM     13  O   UNL     1       6.042   3.677  15.128  0.00  0.00    +0.000 OA
ENDBRANCH   6  13
ENDBRANCH   1   9
BRANCH   4  14
ATOM     14  C   UNL     1       1.252   9.450  21.136  0.00  0.00    +0.000 C 
BRANCH  14  15
ATOM     15  N   UNL     1       0.394  10.610  20.786  0.00  0.00    +0.000 N 
ATOM     16  C   UNL     1       0.720  11.174  19.570  0.00  0.00    +0.000 A 
ATOM     17  O   UNL     1       1.821  11.590  19.208  0.00  0.00    +0.000 OA
ATOM     18  C   UNL     1      -0.468  11.205  18.663  0.00  0.00    +0.000 A 
ATOM     19  C   UNL     1      -1.153  12.244  19.163  0.00  0.00    +0.000 A 
ATOM     20  C   UNL     1      -0.692  13.664  18.943  0.00  0.00    +0.000 C 
ATOM     21  C   UNL     1      -1.651  11.993  20.527  0.00  0.00    +0.000 A 
ATOM     22  C   UNL     1      -2.807  12.691  20.917  0.00  0.00    +0.000 A 
ATOM     23  C   UNL     1      -3.174  12.716  22.246  0.00  0.00    +0.000 A 
ATOM     24  C   UNL     1      -2.386  12.008  23.152  0.00  0.00    +0.000 A 
ATOM     25  C   UNL     1      -1.238  11.225  22.750  0.00  0.00    +0.000 A 
ATOM     26  C   UNL     1      -0.837  11.197  21.417  0.00  0.00    +0.000 A 
ENDBRANCH  14  15
ENDBRANCH   4  14
TORSDOF 4
ENDMDL
