MODEL 1
REMARK VINA RESULT:      -7.9      0.000      0.000
REMARK  Name = 
REMARK  9 active torsions:
REMARK  status: ('A' for Active; 'I' for Inactive)
REMARK    1  A    between atoms: C_1  and  C_2
REMARK    2  A    between atoms: C_2  and  O_3
REMARK    3  A    between atoms: O_3  and  C_4
REMARK    4  A    between atoms: C_4  and  C_6
REMARK    5  A    between atoms: C_7  and  C_8
REMARK    6  A    between atoms: C_8  and  S_9
REMARK    7  A    between atoms: S_9  and  C_10
REMARK    8  A    between atoms: N_19  and  C_20
REMARK    9  A    between atoms: C_25  and  O_26
REMARK                            x       y       z     vdW  Elec       q    Type
REMARK                         _______ _______ _______ _____ _____    ______ ____
ROOT
ATOM      1  C   UNL     1       6.093   4.922  18.156  0.00  0.00    +0.000 A 
ATOM      2  C   UNL     1       5.034   4.100  18.565  0.00  0.00    +0.000 A 
ATOM      3  N   UNL     1       4.588   3.430  17.436  0.00  0.00    +0.000 N 
ATOM      4  C   UNL     1       3.541   2.429  17.350  0.00  0.00    +0.000 C 
ATOM      5  C   UNL     1       5.316   3.816  16.320  0.00  0.00    +0.000 A 
ATOM      6  C   UNL     1       5.243   3.399  14.975  0.00  0.00    +0.000 A 
ATOM      7  C   UNL     1       6.138   3.962  14.060  0.00  0.00    +0.000 A 
ATOM      8 BR   UNL     1       6.068   3.402  12.249  0.00  0.00    +0.000 Br
ATOM      9  C   UNL     1       7.073   4.909  14.468  0.00  0.00    +0.000 A 
ATOM     10  C   UNL     1       7.136   5.318  15.798  0.00  0.00    +0.000 A 
ATOM     11  C   UNL     1       6.246   4.763  16.743  0.00  0.00    +0.000 A 
ENDROOT
BRANCH   1  12
ATOM     12  C   UNL     1       6.946   5.772  18.988  0.00  0.00    +0.000 C 
ATOM     13  O   UNL     1       7.426   5.400  20.049  0.00  0.00    +0.000 OA
BRANCH  12  14
ATOM     14  O   UNL     1       7.010   7.050  18.518  0.00  0.00    +0.000 OA
BRANCH  14  16
ATOM     15  C   UNL     1       8.270   9.065  18.026  0.00  0.00    +0.000 C 
ATOM     16  C   UNL     1       8.327   7.609  18.440  0.00  0.00    +0.000 C 
ENDBRANCH  14  16
ENDBRANCH  12  14
ENDBRANCH   1  12
BRANCH   9  17
ATOM     17  O   UNL     1       7.973   5.474  13.606  0.00  0.00    +0.000 OA
ATOM     18  H   UNL     1       7.598   6.321  13.308  0.00  0.00    +0.000 HD
ENDBRANCH   9  17
BRANCH   2  19
ATOM     19  C   UNL     1       4.448   3.930  19.946  0.00  0.00    +0.000 C 
BRANCH  19  20
ATOM     20  S   UNL     1       2.635   4.015  19.888  0.00  0.00    +0.000 S 
BRANCH  20  21
ATOM     21  C   UNL     1       2.371   5.724  19.693  0.00  0.00    +0.000 A 
ATOM     22  N   UNL     1       1.822   6.513  20.600  0.00  0.00    +0.000 NA
ATOM     23  C   UNL     1       1.712   7.724  19.957  0.00  0.00    +0.000 A 
ATOM     24  C   UNL     1       1.166   8.948  20.365  0.00  0.00    +0.000 A 
ATOM     25  C   UNL     1       1.138  10.004  19.439  0.00  0.00    +0.000 A 
ATOM     26  C   UNL     1       1.667   9.853  18.149  0.00  0.00    +0.000 A 
ATOM     27  C   UNL     1       2.245   8.646  17.738  0.00  0.00    +0.000 A 
ATOM     28  C   UNL     1       2.228   7.621  18.677  0.00  0.00    +0.000 A 
ATOM     29  O   UNL     1       2.676   6.348  18.510  0.00  0.00    +0.000 OA
ENDBRANCH  20  21
ENDBRANCH  19  20
ENDBRANCH   2  19
TORSDOF 7
ENDMDL
MODEL 2
REMARK VINA RESULT:      -7.6      3.550      6.271
REMARK  Name = 
REMARK  9 active torsions:
REMARK  status: ('A' for Active; 'I' for Inactive)
REMARK    1  A    between atoms: C_1  and  C_2
REMARK    2  A    between atoms: C_2  and  O_3
REMARK    3  A    between atoms: O_3  and  C_4
REMARK    4  A    between atoms: C_4  and  C_6
REMARK    5  A    between atoms: C_7  and  C_8
REMARK    6  A    between atoms: C_8  and  S_9
REMARK    7  A    between atoms: S_9  and  C_10
REMARK    8  A    between atoms: N_19  and  C_20
REMARK    9  A    between atoms: C_25  and  O_26
REMARK                            x       y       z     vdW  Elec       q    Type
REMARK                         _______ _______ _______ _____ _____    ______ ____
ROOT
ATOM      1  C   UNL     1       5.907   5.192  17.357  0.00  0.00    +0.000 A 
ATOM      2  C   UNL     1       5.556   6.548  17.421  0.00  0.00    +0.000 A 
ATOM      3  N   UNL     1       4.218   6.599  17.784  0.00  0.00    +0.000 N 
ATOM      4  C   UNL     1       3.406   7.776  18.028  0.00  0.00    +0.000 C 
ATOM      5  C   UNL     1       3.705   5.318  17.933  0.00  0.00    +0.000 A 
ATOM      6  C   UNL     1       2.420   4.872  18.308  0.00  0.00    +0.000 A 
ATOM      7  C   UNL     1       2.199   3.494  18.393  0.00  0.00    +0.000 A 
ATOM      8 BR   UNL     1       0.484   2.874  18.912  0.00  0.00    +0.000 Br
ATOM      9  C   UNL     1       3.220   2.590  18.114  0.00  0.00    +0.000 A 
ATOM     10  C   UNL     1       4.485   3.039  17.740  0.00  0.00    +0.000 A 
ATOM     11  C   UNL     1       4.735   4.426  17.650  0.00  0.00    +0.000 A 
ENDROOT
BRANCH   1  12
ATOM     12  C   UNL     1       7.225   4.616  17.090  0.00  0.00    +0.000 C 
ATOM     13  O   UNL     1       7.988   4.254  17.976  0.00  0.00    +0.000 OA
BRANCH  12  14
ATOM     14  O   UNL     1       7.551   4.673  15.768  0.00  0.00    +0.000 OA
BRANCH  14  16
ATOM     15  C   UNL     1       6.579   4.047  13.635  0.00  0.00    +0.000 C 
ATOM     16  C   UNL     1       6.455   4.906  14.875  0.00  0.00    +0.000 C 
ENDBRANCH  14  16
ENDBRANCH  12  14
ENDBRANCH   1  12
BRANCH   9  17
ATOM     17  O   UNL     1       3.047   1.235  18.197  0.00  0.00    +0.000 OA
ATOM     18  H   UNL     1       3.546   0.925  18.972  0.00  0.00    +0.000 HD
ENDBRANCH   9  17
BRANCH   2  19
ATOM     19  C   UNL     1       6.417   7.760  17.159  0.00  0.00    +0.000 C 
BRANCH  19  20
ATOM     20  S   UNL     1       8.035   7.582  17.965  0.00  0.00    +0.000 S 
BRANCH  20  21
ATOM     21  C   UNL     1       8.451   9.241  18.283  0.00  0.00    +0.000 A 
ATOM     22  N   UNL     1       8.206  10.253  17.468  0.00  0.00    +0.000 NA
ATOM     23  C   UNL     1       8.818  11.322  18.081  0.00  0.00    +0.000 A 
ATOM     24  C   UNL     1       8.959  12.661  17.691  0.00  0.00    +0.000 A 
ATOM     25  C   UNL     1       9.712  13.515  18.515  0.00  0.00    +0.000 A 
ATOM     26  C   UNL     1      10.285  13.054  19.708  0.00  0.00    +0.000 A 
ATOM     27  C   UNL     1      10.124  11.728  20.126  0.00  0.00    +0.000 A 
ATOM     28  C   UNL     1       9.394  10.912  19.270  0.00  0.00    +0.000 A 
ATOM     29  O   UNL     1       9.142   9.584  19.418  0.00  0.00    +0.000 OA
ENDBRANCH  20  21
ENDBRANCH  19  20
ENDBRANCH   2  19
TORSDOF 7
ENDMDL
MODEL 3
REMARK VINA RESULT:      -7.6      3.587      6.076
REMARK  Name = 
REMARK  9 active torsions:
REMARK  status: ('A' for Active; 'I' for Inactive)
REMARK    1  A    between atoms: C_1  and  C_2
REMARK    2  A    between atoms: C_2  and  O_3
REMARK    3  A    between atoms: O_3  and  C_4
REMARK    4  A    between atoms: C_4  and  C_6
REMARK    5  A    between atoms: C_7  and  C_8
REMARK    6  A    between atoms: C_8  and  S_9
REMARK    7  A    between atoms: S_9  and  C_10
REMARK    8  A    between atoms: N_19  and  C_20
REMARK    9  A    between atoms: C_25  and  O_26
REMARK                            x       y       z     vdW  Elec       q    Type
REMARK                         _______ _______ _______ _____ _____    ______ ____
ROOT
ATOM      1  C   UNL     1       6.026   5.152  17.232  0.00  0.00    +0.000 A 
ATOM      2  C   UNL     1       5.687   6.504  17.384  0.00  0.00    +0.000 A 
ATOM      3  N   UNL     1       4.364   6.541  17.799  0.00  0.00    +0.000 N 
ATOM      4  C   UNL     1       3.570   7.706  18.138  0.00  0.00    +0.000 C 
ATOM      5  C   UNL     1       3.848   5.257  17.897  0.00  0.00    +0.000 A 
ATOM      6  C   UNL     1       2.576   4.797  18.295  0.00  0.00    +0.000 A 
ATOM      7  C   UNL     1       2.349   3.417  18.313  0.00  0.00    +0.000 A 
ATOM      8 BR   UNL     1       0.651   2.776  18.863  0.00  0.00    +0.000 Br
ATOM      9  C   UNL     1       3.353   2.525  17.946  0.00  0.00    +0.000 A 
ATOM     10  C   UNL     1       4.605   2.988  17.550  0.00  0.00    +0.000 A 
ATOM     11  C   UNL     1       4.861   4.376  17.526  0.00  0.00    +0.000 A 
ENDROOT
BRANCH   1  12
ATOM     12  C   UNL     1       7.329   4.585  16.883  0.00  0.00    +0.000 C 
ATOM     13  O   UNL     1       8.103   4.130  17.714  0.00  0.00    +0.000 OA
BRANCH  12  14
ATOM     14  O   UNL     1       7.631   4.765  15.566  0.00  0.00    +0.000 OA
BRANCH  14  16
ATOM     15  C   UNL     1       7.024   4.655  13.219  0.00  0.00    +0.000 C 
ATOM     16  C   UNL     1       6.636   4.309  14.641  0.00  0.00    +0.000 C 
ENDBRANCH  14  16
ENDBRANCH  12  14
ENDBRANCH   1  12
BRANCH   9  17
ATOM     17  O   UNL     1       3.174   1.168  17.961  0.00  0.00    +0.000 OA
ATOM     18  H   UNL     1       3.777   0.803  18.631  0.00  0.00    +0.000 HD
ENDBRANCH   9  17
BRANCH   2  19
ATOM     19  C   UNL     1       6.545   7.725  17.156  0.00  0.00    +0.000 C 
BRANCH  19  20
ATOM     20  S   UNL     1       8.046   7.651  18.176  0.00  0.00    +0.000 S 
BRANCH  20  21
ATOM     21  C   UNL     1       8.481   9.332  18.281  0.00  0.00    +0.000 A 
ATOM     22  N   UNL     1       9.265   9.856  19.208  0.00  0.00    +0.000 NA
ATOM     23  C   UNL     1       9.212  11.207  18.956  0.00  0.00    +0.000 A 
ATOM     24  C   UNL     1       9.787  12.299  19.620  0.00  0.00    +0.000 A 
ATOM     25  C   UNL     1       9.487  13.591  19.154  0.00  0.00    +0.000 A 
ATOM     26  C   UNL     1       8.659  13.787  18.040  0.00  0.00    +0.000 A 
ATOM     27  C   UNL     1       8.104  12.704  17.348  0.00  0.00    +0.000 A 
ATOM     28  C   UNL     1       8.406  11.446  17.857  0.00  0.00    +0.000 A 
ATOM     29  O   UNL     1       7.954  10.247  17.404  0.00  0.00    +0.000 OA
ENDBRANCH  20  21
ENDBRANCH  19  20
ENDBRANCH   2  19
TORSDOF 7
ENDMDL
MODEL 4
REMARK VINA RESULT:      -7.6      0.889      1.283
REMARK  Name = 
REMARK  9 active torsions:
REMARK  status: ('A' for Active; 'I' for Inactive)
REMARK    1  A    between atoms: C_1  and  C_2
REMARK    2  A    between atoms: C_2  and  O_3
REMARK    3  A    between atoms: O_3  and  C_4
REMARK    4  A    between atoms: C_4  and  C_6
REMARK    5  A    between atoms: C_7  and  C_8
REMARK    6  A    between atoms: C_8  and  S_9
REMARK    7  A    between atoms: S_9  and  C_10
REMARK    8  A    between atoms: N_19  and  C_20
REMARK    9  A    between atoms: C_25  and  O_26
REMARK                            x       y       z     vdW  Elec       q    Type
REMARK                         _______ _______ _______ _____ _____    ______ ____
ROOT
ATOM      1  C   UNL     1       6.408   5.456  17.683  0.00  0.00    +0.000 A 
ATOM      2  C   UNL     1       5.382   4.706  18.274  0.00  0.00    +0.000 A 
ATOM      3  N   UNL     1       4.854   3.896  17.279  0.00  0.00    +0.000 N 
ATOM      4  C   UNL     1       3.804   2.904  17.403  0.00  0.00    +0.000 C 
ATOM      5  C   UNL     1       5.501   4.123  16.072  0.00  0.00    +0.000 A 
ATOM      6  C   UNL     1       5.330   3.532  14.803  0.00  0.00    +0.000 A 
ATOM      7  C   UNL     1       6.156   3.960  13.759  0.00  0.00    +0.000 A 
ATOM      8 BR   UNL     1       5.956   3.164  12.049  0.00  0.00    +0.000 Br
ATOM      9  C   UNL     1       7.119   4.943  13.970  0.00  0.00    +0.000 A 
ATOM     10  C   UNL     1       7.278   5.525  15.225  0.00  0.00    +0.000 A 
ATOM     11  C   UNL     1       6.459   5.109  16.297  0.00  0.00    +0.000 A 
ENDROOT
BRANCH   1  12
ATOM     12  C   UNL     1       7.320   6.400  18.332  0.00  0.00    +0.000 C 
ATOM     13  O   UNL     1       8.145   6.063  19.169  0.00  0.00    +0.000 OA
BRANCH  12  14
ATOM     14  O   UNL     1       7.035   7.693  18.006  0.00  0.00    +0.000 OA
BRANCH  14  16
ATOM     15  C   UNL     1       8.547   9.548  18.409  0.00  0.00    +0.000 C 
ATOM     16  C   UNL     1       8.128   8.443  17.462  0.00  0.00    +0.000 C 
ENDBRANCH  14  16
ENDBRANCH  12  14
ENDBRANCH   1  12
BRANCH   9  17
ATOM     17  O   UNL     1       7.955   5.380  12.978  0.00  0.00    +0.000 OA
ATOM     18  H   UNL     1       7.762   4.854  12.183  0.00  0.00    +0.000 HD
ENDBRANCH   9  17
BRANCH   2  19
ATOM     19  C   UNL     1       4.898   4.727  19.703  0.00  0.00    +0.000 C 
BRANCH  19  20
ATOM     20  S   UNL     1       3.103   4.459  19.776  0.00  0.00    +0.000 S 
BRANCH  20  21
ATOM     21  C   UNL     1       2.497   6.059  19.463  0.00  0.00    +0.000 A 
ATOM     22  N   UNL     1       2.668   6.726  18.334  0.00  0.00    +0.000 NA
ATOM     23  C   UNL     1       2.132   7.964  18.601  0.00  0.00    +0.000 A 
ATOM     24  C   UNL     1       2.053   9.130  17.827  0.00  0.00    +0.000 A 
ATOM     25  C   UNL     1       1.497  10.279  18.414  0.00  0.00    +0.000 A 
ATOM     26  C   UNL     1       1.008  10.259  19.727  0.00  0.00    +0.000 A 
ATOM     27  C   UNL     1       1.050   9.094  20.501  0.00  0.00    +0.000 A 
ATOM     28  C   UNL     1       1.630   7.988  19.891  0.00  0.00    +0.000 A 
ATOM     29  O   UNL     1       1.839   6.762  20.441  0.00  0.00    +0.000 OA
ENDBRANCH  20  21
ENDBRANCH  19  20
ENDBRANCH   2  19
TORSDOF 7
ENDMDL
MODEL 5
REMARK VINA RESULT:      -7.5      3.434      7.650
REMARK  Name = 
REMARK  9 active torsions:
REMARK  status: ('A' for Active; 'I' for Inactive)
REMARK    1  A    between atoms: C_1  and  C_2
REMARK    2  A    between atoms: C_2  and  O_3
REMARK    3  A    between atoms: O_3  and  C_4
REMARK    4  A    between atoms: C_4  and  C_6
REMARK    5  A    between atoms: C_7  and  C_8
REMARK    6  A    between atoms: C_8  and  S_9
REMARK    7  A    between atoms: S_9  and  C_10
REMARK    8  A    between atoms: N_19  and  C_20
REMARK    9  A    between atoms: C_25  and  O_26
REMARK                            x       y       z     vdW  Elec       q    Type
REMARK                         _______ _______ _______ _____ _____    ______ ____
ROOT
ATOM      1  C   UNL     1       2.605   5.403  19.915  0.00  0.00    +0.000 A 
ATOM      2  C   UNL     1       3.368   5.496  18.742  0.00  0.00    +0.000 A 
ATOM      3  N   UNL     1       3.207   6.787  18.262  0.00  0.00    +0.000 N 
ATOM      4  C   UNL     1       3.832   7.389  17.100  0.00  0.00    +0.000 C 
ATOM      5  C   UNL     1       2.351   7.509  19.082  0.00  0.00    +0.000 A 
ATOM      6  C   UNL     1       1.911   8.847  19.014  0.00  0.00    +0.000 A 
ATOM      7  C   UNL     1       1.048   9.310  20.012  0.00  0.00    +0.000 A 
ATOM      8 BR   UNL     1       0.459  11.112  19.949  0.00  0.00    +0.000 Br
ATOM      9  C   UNL     1       0.636   8.471  21.044  0.00  0.00    +0.000 A 
ATOM     10  C   UNL     1       1.073   7.149  21.101  0.00  0.00    +0.000 A 
ATOM     11  C   UNL     1       1.947   6.658  20.107  0.00  0.00    +0.000 A 
ENDROOT
BRANCH   1  12
ATOM     12  C   UNL     1       2.503   4.268  20.834  0.00  0.00    +0.000 C 
ATOM     13  O   UNL     1       2.595   4.383  22.049  0.00  0.00    +0.000 OA
BRANCH  12  14
ATOM     14  O   UNL     1       2.450   3.077  20.174  0.00  0.00    +0.000 OA
BRANCH  14  16
ATOM     15  C   UNL     1       0.792   2.352  18.558  0.00  0.00    +0.000 C 
ATOM     16  C   UNL     1       1.140   2.518  20.022  0.00  0.00    +0.000 C 
ENDBRANCH  14  16
ENDBRANCH  12  14
ENDBRANCH   1  12
BRANCH   9  17
ATOM     17  O   UNL     1      -0.197   8.889  22.045  0.00  0.00    +0.000 OA
ATOM     18  H   UNL     1       0.242   9.630  22.498  0.00  0.00    +0.000 HD
ENDBRANCH   9  17
BRANCH   2  19
ATOM     19  C   UNL     1       4.217   4.438  18.081  0.00  0.00    +0.000 C 
BRANCH  19  20
ATOM     20  S   UNL     1       5.965   4.932  18.076  0.00  0.00    +0.000 S 
BRANCH  20  21
ATOM     21  C   UNL     1       6.386   4.710  16.403  0.00  0.00    +0.000 A 
ATOM     22  N   UNL     1       7.298   5.411  15.752  0.00  0.00    +0.000 NA
ATOM     23  C   UNL     1       7.187   4.969  14.454  0.00  0.00    +0.000 A 
ATOM     24  C   UNL     1       7.843   5.360  13.279  0.00  0.00    +0.000 A 
ATOM     25  C   UNL     1       7.454   4.756  12.071  0.00  0.00    +0.000 A 
ATOM     26  C   UNL     1       6.459   3.769  12.039  0.00  0.00    +0.000 A 
ATOM     27  C   UNL     1       5.818   3.346  13.209  0.00  0.00    +0.000 A 
ATOM     28  C   UNL     1       6.215   3.987  14.377  0.00  0.00    +0.000 A 
ATOM     29  O   UNL     1       5.715   3.798  15.628  0.00  0.00    +0.000 OA
ENDBRANCH  20  21
ENDBRANCH  19  20
ENDBRANCH   2  19
TORSDOF 7
ENDMDL
MODEL 6
REMARK VINA RESULT:      -7.5      3.303      7.727
REMARK  Name = 
REMARK  9 active torsions:
REMARK  status: ('A' for Active; 'I' for Inactive)
REMARK    1  A    between atoms: C_1  and  C_2
REMARK    2  A    between atoms: C_2  and  O_3
REMARK    3  A    between atoms: O_3  and  C_4
REMARK    4  A    between atoms: C_4  and  C_6
REMARK    5  A    between atoms: C_7  and  C_8
REMARK    6  A    between atoms: C_8  and  S_9
REMARK    7  A    between atoms: S_9  and  C_10
REMARK    8  A    between atoms: N_19  and  C_20
REMARK    9  A    between atoms: C_25  and  O_26
REMARK                            x       y       z     vdW  Elec       q    Type
REMARK                         _______ _______ _______ _____ _____    ______ ____
ROOT
ATOM      1  C   UNL     1       2.206   5.764  19.972  0.00  0.00    +0.000 A 
ATOM      2  C   UNL     1       2.985   5.776  18.806  0.00  0.00    +0.000 A 
ATOM      3  N   UNL     1       2.947   7.071  18.313  0.00  0.00    +0.000 N 
ATOM      4  C   UNL     1       3.635   7.601  17.151  0.00  0.00    +0.000 C 
ATOM      5  C   UNL     1       2.154   7.876  19.117  0.00  0.00    +0.000 A 
ATOM      6  C   UNL     1       1.838   9.248  19.031  0.00  0.00    +0.000 A 
ATOM      7  C   UNL     1       1.012   9.798  20.017  0.00  0.00    +0.000 A 
ATOM      8 BR   UNL     1       0.590  11.645  19.930  0.00  0.00    +0.000 Br
ATOM      9  C   UNL     1       0.516   9.010  21.052  0.00  0.00    +0.000 A 
ATOM     10  C   UNL     1       0.829   7.655  21.126  0.00  0.00    +0.000 A 
ATOM     11  C   UNL     1       1.664   7.076  20.146  0.00  0.00    +0.000 A 
ENDROOT
BRANCH   1  12
ATOM     12  C   UNL     1       1.993   4.653  20.901  0.00  0.00    +0.000 C 
ATOM     13  O   UNL     1       2.806   4.333  21.756  0.00  0.00    +0.000 OA
BRANCH  12  14
ATOM     14  O   UNL     1       0.871   3.941  20.598  0.00  0.00    +0.000 OA
BRANCH  14  16
ATOM     15  C   UNL     1       0.851   2.421  18.707  0.00  0.00    +0.000 C 
ATOM     16  C   UNL     1       1.096   2.585  20.192  0.00  0.00    +0.000 C 
ENDBRANCH  14  16
ENDBRANCH  12  14
ENDBRANCH   1  12
BRANCH   9  17
ATOM     17  O   UNL     1      -0.285   9.513  22.041  0.00  0.00    +0.000 OA
ATOM     18  H   UNL     1      -1.199   9.254  21.835  0.00  0.00    +0.000 HD
ENDBRANCH   9  17
BRANCH   2  19
ATOM     19  C   UNL     1       3.741   4.638  18.164  0.00  0.00    +0.000 C 
BRANCH  19  20
ATOM     20  S   UNL     1       5.515   5.016  18.077  0.00  0.00    +0.000 S 
BRANCH  20  21
ATOM     21  C   UNL     1       5.827   4.841  16.374  0.00  0.00    +0.000 A 
ATOM     22  N   UNL     1       5.162   4.039  15.562  0.00  0.00    +0.000 NA
ATOM     23  C   UNL     1       5.837   4.148  14.368  0.00  0.00    +0.000 A 
ATOM     24  C   UNL     1       5.654   3.509  13.134  0.00  0.00    +0.000 A 
ATOM     25  C   UNL     1       6.568   3.785  12.103  0.00  0.00    +0.000 A 
ATOM     26  C   UNL     1       7.618   4.694  12.288  0.00  0.00    +0.000 A 
ATOM     27  C   UNL     1       7.794   5.365  13.504  0.00  0.00    +0.000 A 
ATOM     28  C   UNL     1       6.884   5.043  14.504  0.00  0.00    +0.000 A 
ATOM     29  O   UNL     1       6.868   5.510  15.781  0.00  0.00    +0.000 OA
ENDBRANCH  20  21
ENDBRANCH  19  20
ENDBRANCH   2  19
TORSDOF 7
ENDMDL
MODEL 7
REMARK VINA RESULT:      -7.4      3.487      5.628
REMARK  Name = 
REMARK  9 active torsions:
REMARK  status: ('A' for Active; 'I' for Inactive)
REMARK    1  A    between atoms: C_1  and  C_2
REMARK    2  A    between atoms: C_2  and  O_3
REMARK    3  A    between atoms: O_3  and  C_4
REMARK    4  A    between atoms: C_4  and  C_6
REMARK    5  A    between atoms: C_7  and  C_8
REMARK    6  A    between atoms: C_8  and  S_9
REMARK    7  A    between atoms: S_9  and  C_10
REMARK    8  A    between atoms: N_19  and  C_20
REMARK    9  A    between atoms: C_25  and  O_26
REMARK                            x       y       z     vdW  Elec       q    Type
REMARK                         _______ _______ _______ _____ _____    ______ ____
ROOT
ATOM      1  C   UNL     1       2.265   5.648  20.049  0.00  0.00    +0.000 A 
ATOM      2  C   UNL     1       1.770   6.956  19.961  0.00  0.00    +0.000 A 
ATOM      3  N   UNL     1       2.381   7.543  18.863  0.00  0.00    +0.000 N 
ATOM      4  C   UNL     1       2.163   8.874  18.329  0.00  0.00    +0.000 C 
ATOM      5  C   UNL     1       3.264   6.656  18.264  0.00  0.00    +0.000 A 
ATOM      6  C   UNL     1       4.084   6.791  17.125  0.00  0.00    +0.000 A 
ATOM      7  C   UNL     1       4.867   5.697  16.742  0.00  0.00    +0.000 A 
ATOM      8 BR   UNL     1       5.964   5.851  15.203  0.00  0.00    +0.000 Br
ATOM      9  C   UNL     1       4.836   4.509  17.468  0.00  0.00    +0.000 A 
ATOM     10  C   UNL     1       4.026   4.387  18.595  0.00  0.00    +0.000 A 
ATOM     11  C   UNL     1       3.223   5.475  19.000  0.00  0.00    +0.000 A 
ENDROOT
BRANCH   1  12
ATOM     12  C   UNL     1       1.874   4.599  20.991  0.00  0.00    +0.000 C 
ATOM     13  O   UNL     1       2.545   4.294  21.967  0.00  0.00    +0.000 OA
BRANCH  12  14
ATOM     14  O   UNL     1       0.773   3.916  20.569  0.00  0.00    +0.000 OA
BRANCH  14  16
ATOM     15  C   UNL     1       0.861   2.424  18.656  0.00  0.00    +0.000 C 
ATOM     16  C   UNL     1       1.010   2.564  20.157  0.00  0.00    +0.000 C 
ENDBRANCH  14  16
ENDBRANCH  12  14
ENDBRANCH   1  12
BRANCH   9  17
ATOM     17  O   UNL     1       5.578   3.414  17.120  0.00  0.00    +0.000 OA
ATOM     18  H   UNL     1       5.810   2.946  17.940  0.00  0.00    +0.000 HD
ENDBRANCH   9  17
BRANCH   2  19
ATOM     19  C   UNL     1       0.767   7.649  20.852  0.00  0.00    +0.000 C 
BRANCH  19  20
ATOM     20  S   UNL     1       1.583   8.907  21.877  0.00  0.00    +0.000 S 
BRANCH  20  21
ATOM     21  C   UNL     1       0.343  10.121  21.994  0.00  0.00    +0.000 A 
ATOM     22  N   UNL     1      -0.306  10.436  23.101  0.00  0.00    +0.000 NA
ATOM     23  C   UNL     1      -1.255  11.338  22.679  0.00  0.00    +0.000 A 
ATOM     24  C   UNL     1      -2.281  11.999  23.368  0.00  0.00    +0.000 A 
ATOM     25  C   UNL     1      -3.149  12.824  22.632  0.00  0.00    +0.000 A 
ATOM     26  C   UNL     1      -2.981  13.007  21.252  0.00  0.00    +0.000 A 
ATOM     27  C   UNL     1      -1.941  12.379  20.557  0.00  0.00    +0.000 A 
ATOM     28  C   UNL     1      -1.123  11.552  21.318  0.00  0.00    +0.000 A 
ATOM     29  O   UNL     1      -0.084  10.794  20.877  0.00  0.00    +0.000 OA
ENDBRANCH  20  21
ENDBRANCH  19  20
ENDBRANCH   2  19
TORSDOF 7
ENDMDL
MODEL 8
REMARK VINA RESULT:      -7.2      3.727      8.140
REMARK  Name = 
REMARK  9 active torsions:
REMARK  status: ('A' for Active; 'I' for Inactive)
REMARK    1  A    between atoms: C_1  and  C_2
REMARK    2  A    between atoms: C_2  and  O_3
REMARK    3  A    between atoms: O_3  and  C_4
REMARK    4  A    between atoms: C_4  and  C_6
REMARK    5  A    between atoms: C_7  and  C_8
REMARK    6  A    between atoms: C_8  and  S_9
REMARK    7  A    between atoms: S_9  and  C_10
REMARK    8  A    between atoms: N_19  and  C_20
REMARK    9  A    between atoms: C_25  and  O_26
REMARK                            x       y       z     vdW  Elec       q    Type
REMARK                         _______ _______ _______ _____ _____    ______ ____
ROOT
ATOM      1  C   UNL     1       2.095   6.554  19.840  0.00  0.00    +0.000 A 
ATOM      2  C   UNL     1       2.551   6.992  18.589  0.00  0.00    +0.000 A 
ATOM      3  N   UNL     1       2.209   8.333  18.485  0.00  0.00    +0.000 N 
ATOM      4  C   UNL     1       2.505   9.245  17.397  0.00  0.00    +0.000 C 
ATOM      5  C   UNL     1       1.534   8.753  19.622  0.00  0.00    +0.000 A 
ATOM      6  C   UNL     1       1.017  10.015  19.980  0.00  0.00    +0.000 A 
ATOM      7  C   UNL     1       0.392  10.144  21.225  0.00  0.00    +0.000 A 
ATOM      8 BR   UNL     1      -0.294  11.837  21.733  0.00  0.00    +0.000 Br
ATOM      9  C   UNL     1       0.285   9.054  22.084  0.00  0.00    +0.000 A 
ATOM     10  C   UNL     1       0.795   7.810  21.721  0.00  0.00    +0.000 A 
ATOM     11  C   UNL     1       1.433   7.654  20.472  0.00  0.00    +0.000 A 
ENDROOT
BRANCH   1  12
ATOM     12  C   UNL     1       2.278   5.238  20.454  0.00  0.00    +0.000 C 
ATOM     13  O   UNL     1       3.375   4.719  20.605  0.00  0.00    +0.000 OA
BRANCH  12  14
ATOM     14  O   UNL     1       1.090   4.613  20.689  0.00  0.00    +0.000 OA
BRANCH  14  16
ATOM     15  C   UNL     1       1.462   2.459  21.743  0.00  0.00    +0.000 C 
ATOM     16  C   UNL     1       1.089   3.196  20.474  0.00  0.00    +0.000 C 
ENDBRANCH  14  16
ENDBRANCH  12  14
ENDBRANCH   1  12
BRANCH   9  17
ATOM     17  O   UNL     1      -0.308   9.142  23.314  0.00  0.00    +0.000 OA
ATOM     18  H   UNL     1      -0.456  10.085  23.500  0.00  0.00    +0.000 HD
ENDBRANCH   9  17
BRANCH   2  19
ATOM     19  C   UNL     1       3.276   6.211  17.521  0.00  0.00    +0.000 C 
BRANCH  19  20
ATOM     20  S   UNL     1       5.073   6.302  17.769  0.00  0.00    +0.000 S 
BRANCH  20  21
ATOM     21  C   UNL     1       5.666   5.576  16.304  0.00  0.00    +0.000 A 
ATOM     22  N   UNL     1       6.801   5.895  15.707  0.00  0.00    +0.000 NA
ATOM     23  C   UNL     1       6.777   5.160  14.544  0.00  0.00    +0.000 A 
ATOM     24  C   UNL     1       7.669   5.098  13.464  0.00  0.00    +0.000 A 
ATOM     25  C   UNL     1       7.327   4.287  12.369  0.00  0.00    +0.000 A 
ATOM     26  C   UNL     1       6.143   3.538  12.361  0.00  0.00    +0.000 A 
ATOM     27  C   UNL     1       5.259   3.564  13.446  0.00  0.00    +0.000 A 
ATOM     28  C   UNL     1       5.623   4.398  14.497  0.00  0.00    +0.000 A 
ATOM     29  O   UNL     1       4.918   4.641  15.634  0.00  0.00    +0.000 OA
ENDBRANCH  20  21
ENDBRANCH  19  20
ENDBRANCH   2  19
TORSDOF 7
ENDMDL
MODEL 9
REMARK VINA RESULT:      -7.2      3.498      5.696
REMARK  Name = 
REMARK  9 active torsions:
REMARK  status: ('A' for Active; 'I' for Inactive)
REMARK    1  A    between atoms: C_1  and  C_2
REMARK    2  A    between atoms: C_2  and  O_3
REMARK    3  A    between atoms: O_3  and  C_4
REMARK    4  A    between atoms: C_4  and  C_6
REMARK    5  A    between atoms: C_7  and  C_8
REMARK    6  A    between atoms: C_8  and  S_9
REMARK    7  A    between atoms: S_9  and  C_10
REMARK    8  A    between atoms: N_19  and  C_20
REMARK    9  A    between atoms: C_25  and  O_26
REMARK                            x       y       z     vdW  Elec       q    Type
REMARK                         _______ _______ _______ _____ _____    ______ ____
ROOT
ATOM      1  C   UNL     1       2.268   5.574  20.107  0.00  0.00    +0.000 A 
ATOM      2  C   UNL     1       1.755   6.877  20.035  0.00  0.00    +0.000 A 
ATOM      3  N   UNL     1       2.351   7.482  18.938  0.00  0.00    +0.000 N 
ATOM      4  C   UNL     1       2.112   8.815  18.418  0.00  0.00    +0.000 C 
ATOM      5  C   UNL     1       3.241   6.611  18.325  0.00  0.00    +0.000 A 
ATOM      6  C   UNL     1       4.051   6.768  17.181  0.00  0.00    +0.000 A 
ATOM      7  C   UNL     1       4.846   5.688  16.783  0.00  0.00    +0.000 A 
ATOM      8 BR   UNL     1       5.929   5.871  15.238  0.00  0.00    +0.000 Br
ATOM      9  C   UNL     1       4.835   4.493  17.498  0.00  0.00    +0.000 A 
ATOM     10  C   UNL     1       4.034   4.349  18.629  0.00  0.00    +0.000 A 
ATOM     11  C   UNL     1       3.220   5.423  19.050  0.00  0.00    +0.000 A 
ENDROOT
BRANCH   1  12
ATOM     12  C   UNL     1       1.897   4.511  21.042  0.00  0.00    +0.000 C 
ATOM     13  O   UNL     1       2.561   4.229  22.029  0.00  0.00    +0.000 OA
BRANCH  12  14
ATOM     14  O   UNL     1       0.827   3.791  20.600  0.00  0.00    +0.000 OA
BRANCH  14  16
ATOM     15  C   UNL     1       0.893   2.375  18.631  0.00  0.00    +0.000 C 
ATOM     16  C   UNL     1       1.129   2.474  20.123  0.00  0.00    +0.000 C 
ENDBRANCH  14  16
ENDBRANCH  12  14
ENDBRANCH   1  12
BRANCH   9  17
ATOM     17  O   UNL     1       5.588   3.410  17.134  0.00  0.00    +0.000 OA
ATOM     18  H   UNL     1       5.126   2.967  16.403  0.00  0.00    +0.000 HD
ENDBRANCH   9  17
BRANCH   2  19
ATOM     19  C   UNL     1       0.750   7.548  20.939  0.00  0.00    +0.000 C 
BRANCH  19  20
ATOM     20  S   UNL     1       1.534   8.884  21.888  0.00  0.00    +0.000 S 
BRANCH  20  21
ATOM     21  C   UNL     1       0.326  10.132  21.797  0.00  0.00    +0.000 A 
ATOM     22  N   UNL     1      -0.292  10.508  20.691  0.00  0.00    +0.000 NA
ATOM     23  C   UNL     1      -1.047  11.587  21.088  0.00  0.00    +0.000 A 
ATOM     24  C   UNL     1      -1.883  12.453  20.369  0.00  0.00    +0.000 A 
ATOM     25  C   UNL     1      -2.474  13.526  21.056  0.00  0.00    +0.000 A 
ATOM     26  C   UNL     1      -2.261  13.715  22.428  0.00  0.00    +0.000 A 
ATOM     27  C   UNL     1      -1.455  12.840  23.166  0.00  0.00    +0.000 A 
ATOM     28  C   UNL     1      -0.869  11.808  22.442  0.00  0.00    +0.000 A 
ATOM     29  O   UNL     1      -0.009  10.863  22.908  0.00  0.00    +0.000 OA
ENDBRANCH  20  21
ENDBRANCH  19  20
ENDBRANCH   2  19
TORSDOF 7
ENDMDL
