MODEL 1
REMARK VINA RESULT:      -7.5      0.000      0.000
REMARK  Name = 
REMARK  5 active torsions:
REMARK  status: ('A' for Active; 'I' for Inactive)
REMARK    1  A    between atoms: C_1  and  C_2
REMARK    2  A    between atoms: C_4  and  C_5
REMARK    3  A    between atoms: C_8  and  C_9
REMARK    4  A    between atoms: C_9  and  N_10
REMARK    5  A    between atoms: N_10  and  C_11
REMARK                            x       y       z     vdW  Elec       q    Type
REMARK                         _______ _______ _______ _____ _____    ______ ____
ROOT
ATOM      1  C   UNL     1       6.721   4.458  16.116  0.00  0.00    +0.000 A 
ATOM      2  N   UNL     1       7.753   4.434  16.974  0.00  0.00    +0.000 NA
ATOM      3  N   UNL     1       7.133   4.487  18.162  0.00  0.00    +0.000 N 
ATOM      4  C   UNL     1       5.778   4.497  18.015  0.00  0.00    +0.000 A 
ATOM      5  N   UNL     1       5.489   4.502  16.732  0.00  0.00    +0.000 NA
ATOM      6  H   UNL     1       7.682   4.507  19.014  0.00  0.00    +0.000 HD
ENDROOT
BRANCH   1  10
ATOM      7  C   UNL     1       5.419   2.616  11.672  0.00  0.00    +0.000 C 
ATOM      8  C   UNL     1       6.230   3.543  12.524  0.00  0.00    +0.000 A 
ATOM      9  C   UNL     1       6.090   3.547  13.906  0.00  0.00    +0.000 A 
ATOM     10  C   UNL     1       6.857   4.435  14.665  0.00  0.00    +0.000 A 
ATOM     11  C   UNL     1       7.746   5.286  14.011  0.00  0.00    +0.000 A 
ATOM     12  C   UNL     1       7.826   5.212  12.633  0.00  0.00    +0.000 A 
ATOM     13  N   UNL     1       7.093   4.366  11.881  0.00  0.00    +0.000 NA
ENDBRANCH   1  10
BRANCH   4  14
ATOM     14  C   UNL     1       4.848   4.505  19.175  0.00  0.00    +0.000 C 
BRANCH  14  15
ATOM     15  N   UNL     1       3.458   4.751  18.795  0.00  0.00    +0.000 N 
ATOM     16  H   UNL     1       2.842   4.089  19.272  0.00  0.00    +0.000 HD
BRANCH  15  17
ATOM     17  C   UNL     1       2.974   6.063  18.911  0.00  0.00    +0.000 A 
ATOM     18  C   UNL     1       3.004   6.985  17.856  0.00  0.00    +0.000 A 
ATOM     19  C   UNL     1       2.441   8.257  17.988  0.00  0.00    +0.000 A 
ATOM     20  C   UNL     1       1.810   8.617  19.173  0.00  0.00    +0.000 A 
ATOM     21 CL   UNL     1       1.113  10.179  19.333  0.00  0.00    +0.000 Cl
ATOM     22  C   UNL     1       1.728   7.706  20.220  0.00  0.00    +0.000 A 
ATOM     23  C   UNL     1       2.292   6.433  20.081  0.00  0.00    +0.000 A 
ENDBRANCH  15  17
ENDBRANCH  14  15
ENDBRANCH   4  14
TORSDOF 4
ENDMDL
MODEL 2
REMARK VINA RESULT:      -7.4      1.811      3.504
REMARK  Name = 
REMARK  5 active torsions:
REMARK  status: ('A' for Active; 'I' for Inactive)
REMARK    1  A    between atoms: C_1  and  C_2
REMARK    2  A    between atoms: C_4  and  C_5
REMARK    3  A    between atoms: C_8  and  C_9
REMARK    4  A    between atoms: C_9  and  N_10
REMARK    5  A    between atoms: N_10  and  C_11
REMARK                            x       y       z     vdW  Elec       q    Type
REMARK                         _______ _______ _______ _____ _____    ______ ____
ROOT
ATOM      1  C   UNL     1       3.938   4.521  18.173  0.00  0.00    +0.000 A 
ATOM      2  N   UNL     1       2.917   3.668  17.985  0.00  0.00    +0.000 NA
ATOM      3  N   UNL     1       2.025   4.094  18.891  0.00  0.00    +0.000 N 
ATOM      4  C   UNL     1       2.481   5.190  19.561  0.00  0.00    +0.000 A 
ATOM      5  N   UNL     1       3.697   5.469  19.144  0.00  0.00    +0.000 NA
ATOM      6  H   UNL     1       1.142   3.607  18.992  0.00  0.00    +0.000 HD
ENDROOT
BRANCH   1  10
ATOM      7  C   UNL     1       6.417   3.993  13.882  0.00  0.00    +0.000 C 
ATOM      8  C   UNL     1       6.386   4.221  15.363  0.00  0.00    +0.000 A 
ATOM      9  C   UNL     1       5.180   4.253  16.053  0.00  0.00    +0.000 A 
ATOM     10  C   UNL     1       5.191   4.478  17.432  0.00  0.00    +0.000 A 
ATOM     11  C   UNL     1       6.415   4.658  18.075  0.00  0.00    +0.000 A 
ATOM     12  C   UNL     1       7.567   4.605  17.313  0.00  0.00    +0.000 A 
ATOM     13  N   UNL     1       7.579   4.393  15.980  0.00  0.00    +0.000 NA
ENDBRANCH   1  10
BRANCH   4  14
ATOM     14  C   UNL     1       1.669   5.895  20.588  0.00  0.00    +0.000 C 
BRANCH  14  15
ATOM     15  N   UNL     1       2.135   7.254  20.856  0.00  0.00    +0.000 N 
ATOM     16  H   UNL     1       3.142   7.318  20.692  0.00  0.00    +0.000 HD
BRANCH  15  17
ATOM     17  C   UNL     1       1.455   8.311  20.230  0.00  0.00    +0.000 A 
ATOM     18  C   UNL     1       1.686   8.687  18.900  0.00  0.00    +0.000 A 
ATOM     19  C   UNL     1       0.933   9.694  18.290  0.00  0.00    +0.000 A 
ATOM     20  C   UNL     1      -0.085  10.322  18.996  0.00  0.00    +0.000 A 
ATOM     21 CL   UNL     1      -1.015  11.556  18.244  0.00  0.00    +0.000 Cl
ATOM     22  C   UNL     1      -0.364   9.939  20.303  0.00  0.00    +0.000 A 
ATOM     23  C   UNL     1       0.392   8.928  20.908  0.00  0.00    +0.000 A 
ENDBRANCH  15  17
ENDBRANCH  14  15
ENDBRANCH   4  14
TORSDOF 4
ENDMDL
MODEL 3
REMARK VINA RESULT:      -7.4      1.881      3.796
REMARK  Name = 
REMARK  5 active torsions:
REMARK  status: ('A' for Active; 'I' for Inactive)
REMARK    1  A    between atoms: C_1  and  C_2
REMARK    2  A    between atoms: C_4  and  C_5
REMARK    3  A    between atoms: C_8  and  C_9
REMARK    4  A    between atoms: C_9  and  N_10
REMARK    5  A    between atoms: N_10  and  C_11
REMARK                            x       y       z     vdW  Elec       q    Type
REMARK                         _______ _______ _______ _____ _____    ______ ____
ROOT
ATOM      1  C   UNL     1       4.035   4.580  18.495  0.00  0.00    +0.000 A 
ATOM      2  N   UNL     1       3.118   3.599  18.520  0.00  0.00    +0.000 NA
ATOM      3  N   UNL     1       2.206   4.088  19.372  0.00  0.00    +0.000 N 
ATOM      4  C   UNL     1       2.547   5.336  19.803  0.00  0.00    +0.000 A 
ATOM      5  N   UNL     1       3.710   5.663  19.282  0.00  0.00    +0.000 NA
ATOM      6  H   UNL     1       1.390   3.534  19.605  0.00  0.00    +0.000 HD
ENDROOT
BRANCH   1  10
ATOM      7  C   UNL     1       6.378   4.046  14.129  0.00  0.00    +0.000 C 
ATOM      8  C   UNL     1       6.393   4.276  15.610  0.00  0.00    +0.000 A 
ATOM      9  C   UNL     1       5.210   4.309  16.337  0.00  0.00    +0.000 A 
ATOM     10  C   UNL     1       5.265   4.536  17.715  0.00  0.00    +0.000 A 
ATOM     11  C   UNL     1       6.508   4.717  18.319  0.00  0.00    +0.000 A 
ATOM     12  C   UNL     1       7.635   4.663  17.521  0.00  0.00    +0.000 A 
ATOM     13  N   UNL     1       7.605   4.448  16.189  0.00  0.00    +0.000 NA
ENDBRANCH   1  10
BRANCH   4  14
ATOM     14  C   UNL     1       1.684   6.130  20.718  0.00  0.00    +0.000 C 
BRANCH  14  15
ATOM     15  N   UNL     1       2.095   7.528  20.826  0.00  0.00    +0.000 N 
ATOM     16  H   UNL     1       3.068   7.631  20.531  0.00  0.00    +0.000 HD
BRANCH  15  17
ATOM     17  C   UNL     1       1.280   8.495  20.218  0.00  0.00    +0.000 A 
ATOM     18  C   UNL     1       0.300   9.215  20.914  0.00  0.00    +0.000 A 
ATOM     19  C   UNL     1      -0.439  10.226  20.291  0.00  0.00    +0.000 A 
ATOM     20  C   UNL     1      -0.185  10.550  18.964  0.00  0.00    +0.000 A 
ATOM     21 CL   UNL     1      -1.089  11.796  18.199  0.00  0.00    +0.000 Cl
ATOM     22  C   UNL     1       0.811   9.881  18.262  0.00  0.00    +0.000 A 
ATOM     23  C   UNL     1       1.548   8.872  18.892  0.00  0.00    +0.000 A 
ENDBRANCH  15  17
ENDBRANCH  14  15
ENDBRANCH   4  14
TORSDOF 4
ENDMDL
MODEL 4
REMARK VINA RESULT:      -7.4      0.391      1.116
REMARK  Name = 
REMARK  5 active torsions:
REMARK  status: ('A' for Active; 'I' for Inactive)
REMARK    1  A    between atoms: C_1  and  C_2
REMARK    2  A    between atoms: C_4  and  C_5
REMARK    3  A    between atoms: C_8  and  C_9
REMARK    4  A    between atoms: C_9  and  N_10
REMARK    5  A    between atoms: N_10  and  C_11
REMARK                            x       y       z     vdW  Elec       q    Type
REMARK                         _______ _______ _______ _____ _____    ______ ____
ROOT
ATOM      1  C   UNL     1       6.674   4.658  16.144  0.00  0.00    +0.000 A 
ATOM      2  N   UNL     1       7.663   4.478  17.035  0.00  0.00    +0.000 NA
ATOM      3  N   UNL     1       7.032   4.685  18.201  0.00  0.00    +0.000 N 
ATOM      4  C   UNL     1       5.706   4.934  18.011  0.00  0.00    +0.000 A 
ATOM      5  N   UNL     1       5.455   4.946  16.720  0.00  0.00    +0.000 NA
ATOM      6  H   UNL     1       7.554   4.635  19.068  0.00  0.00    +0.000 HD
ENDROOT
BRANCH   1  10
ATOM      7  C   UNL     1       5.410   2.639  11.767  0.00  0.00    +0.000 C 
ATOM      8  C   UNL     1       6.232   3.583  12.591  0.00  0.00    +0.000 A 
ATOM      9  C   UNL     1       6.062   3.659  13.968  0.00  0.00    +0.000 A 
ATOM     10  C   UNL     1       6.841   4.560  14.701  0.00  0.00    +0.000 A 
ATOM     11  C   UNL     1       7.769   5.351  14.027  0.00  0.00    +0.000 A 
ATOM     12  C   UNL     1       7.877   5.206  12.656  0.00  0.00    +0.000 A 
ATOM     13  N   UNL     1       7.133   4.347  11.929  0.00  0.00    +0.000 NA
ENDBRANCH   1  10
BRANCH   4  14
ATOM     14  C   UNL     1       4.763   5.151  19.140  0.00  0.00    +0.000 C 
BRANCH  14  15
ATOM     15  N   UNL     1       3.367   5.234  18.716  0.00  0.00    +0.000 N 
ATOM     16  H   UNL     1       2.846   4.427  19.064  0.00  0.00    +0.000 HD
BRANCH  15  17
ATOM     17  C   UNL     1       2.677   6.429  18.976  0.00  0.00    +0.000 A 
ATOM     18  C   UNL     1       2.174   6.760  20.241  0.00  0.00    +0.000 A 
ATOM     19  C   UNL     1       1.561   7.994  20.477  0.00  0.00    +0.000 A 
ATOM     20  C   UNL     1       1.469   8.929  19.454  0.00  0.00    +0.000 A 
ATOM     21 CL   UNL     1       0.721  10.448  19.746  0.00  0.00    +0.000 Cl
ATOM     22  C   UNL     1       1.999   8.644  18.201  0.00  0.00    +0.000 A 
ATOM     23  C   UNL     1       2.613   7.407  17.971  0.00  0.00    +0.000 A 
ENDBRANCH  15  17
ENDBRANCH  14  15
ENDBRANCH   4  14
TORSDOF 4
ENDMDL
MODEL 5
REMARK VINA RESULT:      -7.3      6.178      6.851
REMARK  Name = 
REMARK  5 active torsions:
REMARK  status: ('A' for Active; 'I' for Inactive)
REMARK    1  A    between atoms: C_1  and  C_2
REMARK    2  A    between atoms: C_4  and  C_5
REMARK    3  A    between atoms: C_8  and  C_9
REMARK    4  A    between atoms: C_9  and  N_10
REMARK    5  A    between atoms: N_10  and  C_11
REMARK                            x       y       z     vdW  Elec       q    Type
REMARK                         _______ _______ _______ _____ _____    ______ ____
ROOT
ATOM      1  C   UNL     1       7.279   6.440  17.571  0.00  0.00    +0.000 A 
ATOM      2  N   UNL     1       7.908   6.225  18.738  0.00  0.00    +0.000 NA
ATOM      3  N   UNL     1       8.453   7.424  18.990  0.00  0.00    +0.000 N 
ATOM      4  C   UNL     1       8.121   8.332  18.029  0.00  0.00    +0.000 A 
ATOM      5  N   UNL     1       7.398   7.733  17.108  0.00  0.00    +0.000 NA
ATOM      6  H   UNL     1       9.022   7.553  19.819  0.00  0.00    +0.000 HD
ENDROOT
BRANCH   1  10
ATOM      7  C   UNL     1       6.404   3.865  13.396  0.00  0.00    +0.000 C 
ATOM      8  C   UNL     1       6.105   4.188  14.828  0.00  0.00    +0.000 A 
ATOM      9  C   UNL     1       6.830   5.161  15.504  0.00  0.00    +0.000 A 
ATOM     10  C   UNL     1       6.528   5.427  16.843  0.00  0.00    +0.000 A 
ATOM     11  C   UNL     1       5.504   4.708  17.458  0.00  0.00    +0.000 A 
ATOM     12  C   UNL     1       4.831   3.761  16.709  0.00  0.00    +0.000 A 
ATOM     13  N   UNL     1       5.108   3.487  15.417  0.00  0.00    +0.000 NA
ENDBRANCH   1  10
BRANCH   4  14
ATOM     14  C   UNL     1       8.552   9.754  18.089  0.00  0.00    +0.000 C 
BRANCH  14  15
ATOM     15  N   UNL     1       9.288  10.080  19.309  0.00  0.00    +0.000 N 
ATOM     16  H   UNL     1       9.835   9.273  19.615  0.00  0.00    +0.000 HD
BRANCH  15  17
ATOM     17  C   UNL     1      10.069  11.247  19.306  0.00  0.00    +0.000 A 
ATOM     18  C   UNL     1      10.705  11.738  18.158  0.00  0.00    +0.000 A 
ATOM     19  C   UNL     1      11.410  12.945  18.179  0.00  0.00    +0.000 A 
ATOM     20  C   UNL     1      11.464  13.695  19.347  0.00  0.00    +0.000 A 
ATOM     21 CL   UNL     1      12.325  15.182  19.371  0.00  0.00    +0.000 Cl
ATOM     22  C   UNL     1      10.805  13.253  20.489  0.00  0.00    +0.000 A 
ATOM     23  C   UNL     1      10.100  12.045  20.461  0.00  0.00    +0.000 A 
ENDBRANCH  15  17
ENDBRANCH  14  15
ENDBRANCH   4  14
TORSDOF 4
ENDMDL
MODEL 6
REMARK VINA RESULT:      -7.3      5.390      6.976
REMARK  Name = 
REMARK  5 active torsions:
REMARK  status: ('A' for Active; 'I' for Inactive)
REMARK    1  A    between atoms: C_1  and  C_2
REMARK    2  A    between atoms: C_4  and  C_5
REMARK    3  A    between atoms: C_8  and  C_9
REMARK    4  A    between atoms: C_9  and  N_10
REMARK    5  A    between atoms: N_10  and  C_11
REMARK                            x       y       z     vdW  Elec       q    Type
REMARK                         _______ _______ _______ _____ _____    ______ ____
ROOT
ATOM      1  C   UNL     1       8.395   8.946  18.280  0.00  0.00    +0.000 A 
ATOM      2  N   UNL     1       7.498   8.931  17.281  0.00  0.00    +0.000 NA
ATOM      3  N   UNL     1       7.130   7.641  17.251  0.00  0.00    +0.000 N 
ATOM      4  C   UNL     1       7.753   6.924  18.229  0.00  0.00    +0.000 A 
ATOM      5  N   UNL     1       8.576   7.718  18.881  0.00  0.00    +0.000 NA
ATOM      6  H   UNL     1       6.461   7.326  16.559  0.00  0.00    +0.000 HD
ENDROOT
BRANCH   1  10
ATOM      7  C   UNL     1      10.991  13.067  17.228  0.00  0.00    +0.000 C 
ATOM      8  C   UNL     1      10.374  12.117  18.208  0.00  0.00    +0.000 A 
ATOM      9  C   UNL     1       9.690  10.988  17.772  0.00  0.00    +0.000 A 
ATOM     10  C   UNL     1       9.119  10.131  18.717  0.00  0.00    +0.000 A 
ATOM     11  C   UNL     1       9.259  10.433  20.071  0.00  0.00    +0.000 A 
ATOM     12  C   UNL     1       9.959  11.573  20.417  0.00  0.00    +0.000 A 
ATOM     13  N   UNL     1      10.515  12.416  19.522  0.00  0.00    +0.000 NA
ENDBRANCH   1  10
BRANCH   4  14
ATOM     14  C   UNL     1       7.490   5.478  18.452  0.00  0.00    +0.000 C 
BRANCH  14  15
ATOM     15  N   UNL     1       6.691   4.870  17.390  0.00  0.00    +0.000 N 
ATOM     16  H   UNL     1       7.234   4.148  16.913  0.00  0.00    +0.000 HD
BRANCH  15  17
ATOM     17  C   UNL     1       5.413   4.398  17.726  0.00  0.00    +0.000 A 
ATOM     18  C   UNL     1       4.431   4.104  16.770  0.00  0.00    +0.000 A 
ATOM     19  C   UNL     1       3.197   3.562  17.140  0.00  0.00    +0.000 A 
ATOM     20  C   UNL     1       2.937   3.278  18.475  0.00  0.00    +0.000 A 
ATOM     21 CL   UNL     1       1.422   2.606  18.929  0.00  0.00    +0.000 Cl
ATOM     22  C   UNL     1       3.909   3.519  19.439  0.00  0.00    +0.000 A 
ATOM     23  C   UNL     1       5.144   4.060  19.062  0.00  0.00    +0.000 A 
ENDBRANCH  15  17
ENDBRANCH  14  15
ENDBRANCH   4  14
TORSDOF 4
ENDMDL
MODEL 7
REMARK VINA RESULT:      -7.3      2.319      3.339
REMARK  Name = 
REMARK  5 active torsions:
REMARK  status: ('A' for Active; 'I' for Inactive)
REMARK    1  A    between atoms: C_1  and  C_2
REMARK    2  A    between atoms: C_4  and  C_5
REMARK    3  A    between atoms: C_8  and  C_9
REMARK    4  A    between atoms: C_9  and  N_10
REMARK    5  A    between atoms: N_10  and  C_11
REMARK                            x       y       z     vdW  Elec       q    Type
REMARK                         _______ _______ _______ _____ _____    ______ ____
ROOT
ATOM      1  C   UNL     1       6.458   4.465  14.253  0.00  0.00    +0.000 A 
ATOM      2  N   UNL     1       7.404   5.410  14.123  0.00  0.00    +0.000 NA
ATOM      3  N   UNL     1       7.614   5.775  15.396  0.00  0.00    +0.000 N 
ATOM      4  C   UNL     1       6.853   5.040  16.256  0.00  0.00    +0.000 A 
ATOM      5  N   UNL     1       6.096   4.220  15.560  0.00  0.00    +0.000 NA
ATOM      6  H   UNL     1       8.280   6.510  15.604  0.00  0.00    +0.000 HD
ENDROOT
BRANCH   1  10
ATOM      7  C   UNL     1       6.600   0.790  10.891  0.00  0.00    +0.000 C 
ATOM      8  C   UNL     1       5.928   1.974  11.516  0.00  0.00    +0.000 A 
ATOM      9  C   UNL     1       6.520   2.651  12.575  0.00  0.00    +0.000 A 
ATOM     10  C   UNL     1       5.857   3.745  13.139  0.00  0.00    +0.000 A 
ATOM     11  C   UNL     1       4.623   4.127  12.616  0.00  0.00    +0.000 A 
ATOM     12  C   UNL     1       4.109   3.400  11.558  0.00  0.00    +0.000 A 
ATOM     13  N   UNL     1       4.730   2.340  11.001  0.00  0.00    +0.000 NA
ENDBRANCH   1  10
BRANCH   4  14
ATOM     14  C   UNL     1       6.927   5.207  17.732  0.00  0.00    +0.000 C 
BRANCH  14  15
ATOM     15  N   UNL     1       6.434   4.043  18.466  0.00  0.00    +0.000 N 
ATOM     16  H   UNL     1       7.066   3.823  19.239  0.00  0.00    +0.000 HD
BRANCH  15  17
ATOM     17  C   UNL     1       5.099   4.063  18.898  0.00  0.00    +0.000 A 
ATOM     18  C   UNL     1       4.364   2.900  19.162  0.00  0.00    +0.000 A 
ATOM     19  C   UNL     1       3.061   2.963  19.666  0.00  0.00    +0.000 A 
ATOM     20  C   UNL     1       2.484   4.197  19.941  0.00  0.00    +0.000 A 
ATOM     21 CL   UNL     1       0.885   4.274  20.566  0.00  0.00    +0.000 Cl
ATOM     22  C   UNL     1       3.207   5.365  19.729  0.00  0.00    +0.000 A 
ATOM     23  C   UNL     1       4.511   5.295  19.227  0.00  0.00    +0.000 A 
ENDBRANCH  15  17
ENDBRANCH  14  15
ENDBRANCH   4  14
TORSDOF 4
ENDMDL
MODEL 8
REMARK VINA RESULT:      -7.3      2.406      3.433
REMARK  Name = 
REMARK  5 active torsions:
REMARK  status: ('A' for Active; 'I' for Inactive)
REMARK    1  A    between atoms: C_1  and  C_2
REMARK    2  A    between atoms: C_4  and  C_5
REMARK    3  A    between atoms: C_8  and  C_9
REMARK    4  A    between atoms: C_9  and  N_10
REMARK    5  A    between atoms: N_10  and  C_11
REMARK                            x       y       z     vdW  Elec       q    Type
REMARK                         _______ _______ _______ _____ _____    ______ ____
ROOT
ATOM      1  C   UNL     1       6.586   4.327  14.084  0.00  0.00    +0.000 A 
ATOM      2  N   UNL     1       7.539   5.272  14.021  0.00  0.00    +0.000 NA
ATOM      3  N   UNL     1       7.603   5.693  15.293  0.00  0.00    +0.000 N 
ATOM      4  C   UNL     1       6.750   4.990  16.092  0.00  0.00    +0.000 A 
ATOM      5  N   UNL     1       6.078   4.136  15.352  0.00  0.00    +0.000 NA
ATOM      6  H   UNL     1       8.240   6.440  15.542  0.00  0.00    +0.000 HD
ENDROOT
BRANCH   1  10
ATOM      7  C   UNL     1       3.063   3.277  10.720  0.00  0.00    +0.000 C 
ATOM      8  C   UNL     1       4.416   3.048  11.322  0.00  0.00    +0.000 A 
ATOM      9  C   UNL     1       4.844   3.791  12.415  0.00  0.00    +0.000 A 
ATOM     10  C   UNL     1       6.117   3.556  12.942  0.00  0.00    +0.000 A 
ATOM     11  C   UNL     1       6.917   2.576  12.356  0.00  0.00    +0.000 A 
ATOM     12  C   UNL     1       6.410   1.880  11.275  0.00  0.00    +0.000 A 
ATOM     13  N   UNL     1       5.186   2.094  10.748  0.00  0.00    +0.000 NA
ENDBRANCH   1  10
BRANCH   4  14
ATOM     14  C   UNL     1       6.656   5.220  17.558  0.00  0.00    +0.000 C 
BRANCH  14  15
ATOM     15  N   UNL     1       6.270   4.025  18.304  0.00  0.00    +0.000 N 
ATOM     16  H   UNL     1       6.912   3.875  19.085  0.00  0.00    +0.000 HD
BRANCH  15  17
ATOM     17  C   UNL     1       4.935   3.922  18.725  0.00  0.00    +0.000 A 
ATOM     18  C   UNL     1       4.475   2.901  19.567  0.00  0.00    +0.000 A 
ATOM     19  C   UNL     1       3.155   2.878  20.026  0.00  0.00    +0.000 A 
ATOM     20  C   UNL     1       2.280   3.897  19.671  0.00  0.00    +0.000 A 
ATOM     21 CL   UNL     1       0.659   3.872  20.240  0.00  0.00    +0.000 Cl
ATOM     22  C   UNL     1       2.721   4.946  18.871  0.00  0.00    +0.000 A 
ATOM     23  C   UNL     1       4.045   4.964  18.417  0.00  0.00    +0.000 A 
ENDBRANCH  15  17
ENDBRANCH  14  15
ENDBRANCH   4  14
TORSDOF 4
ENDMDL
MODEL 9
REMARK VINA RESULT:      -7.3      2.744      4.559
REMARK  Name = 
REMARK  5 active torsions:
REMARK  status: ('A' for Active; 'I' for Inactive)
REMARK    1  A    between atoms: C_1  and  C_2
REMARK    2  A    between atoms: C_4  and  C_5
REMARK    3  A    between atoms: C_8  and  C_9
REMARK    4  A    between atoms: C_9  and  N_10
REMARK    5  A    between atoms: N_10  and  C_11
REMARK                            x       y       z     vdW  Elec       q    Type
REMARK                         _______ _______ _______ _____ _____    ______ ____
ROOT
ATOM      1  C   UNL     1       4.067   6.427  18.133  0.00  0.00    +0.000 A 
ATOM      2  N   UNL     1       3.460   7.484  17.569  0.00  0.00    +0.000 NA
ATOM      3  N   UNL     1       2.459   7.726  18.428  0.00  0.00    +0.000 N 
ATOM      4  C   UNL     1       2.497   6.871  19.489  0.00  0.00    +0.000 A 
ATOM      5  N   UNL     1       3.490   6.024  19.319  0.00  0.00    +0.000 NA
ATOM      6  H   UNL     1       1.805   8.476  18.238  0.00  0.00    +0.000 HD
ENDROOT
BRANCH   1  10
ATOM      7  C   UNL     1       6.331   4.130  14.335  0.00  0.00    +0.000 C 
ATOM      8  C   UNL     1       6.319   4.642  15.743  0.00  0.00    +0.000 A 
ATOM      9  C   UNL     1       5.198   5.279  16.259  0.00  0.00    +0.000 A 
ATOM     10  C   UNL     1       5.230   5.752  17.574  0.00  0.00    +0.000 A 
ATOM     11  C   UNL     1       6.386   5.564  18.330  0.00  0.00    +0.000 A 
ATOM     12  C   UNL     1       7.454   4.914  17.739  0.00  0.00    +0.000 A 
ATOM     13  N   UNL     1       7.446   4.453  16.471  0.00  0.00    +0.000 NA
ENDBRANCH   1  10
BRANCH   4  14
ATOM     14  C   UNL     1       1.531   6.951  20.616  0.00  0.00    +0.000 C 
BRANCH  14  15
ATOM     15  N   UNL     1       1.810   8.051  21.536  0.00  0.00    +0.000 N 
ATOM     16  H   UNL     1       2.710   8.479  21.309  0.00  0.00    +0.000 HD
BRANCH  15  17
ATOM     17  C   UNL     1       0.817   9.028  21.704  0.00  0.00    +0.000 A 
ATOM     18  C   UNL     1       0.216   9.302  22.940  0.00  0.00    +0.000 A 
ATOM     19  C   UNL     1      -0.714  10.337  23.082  0.00  0.00    +0.000 A 
ATOM     20  C   UNL     1      -1.034  11.134  21.990  0.00  0.00    +0.000 A 
ATOM     21 CL   UNL     1      -2.173  12.409  22.165  0.00  0.00    +0.000 Cl
ATOM     22  C   UNL     1      -0.421  10.912  20.763  0.00  0.00    +0.000 A 
ATOM     23  C   UNL     1       0.511   9.876  20.628  0.00  0.00    +0.000 A 
ENDBRANCH  15  17
ENDBRANCH  14  15
ENDBRANCH   4  14
TORSDOF 4
ENDMDL
