MODEL 1
REMARK VINA RESULT:      -6.9      0.000      0.000
REMARK  Name = 
REMARK  4 active torsions:
REMARK  status: ('A' for Active; 'I' for Inactive)
REMARK    1  A    between atoms: C_1  and  C_2
REMARK    2  A    between atoms: C_2  and  N_3
REMARK    3  A    between atoms: N_11  and  C_12
REMARK    4  A    between atoms: C_15  and  C_16
REMARK                            x       y       z     vdW  Elec       q    Type
REMARK                         _______ _______ _______ _____ _____    ______ ____
ROOT
ATOM      1  N   UNL     1       1.612   8.015  17.892  0.00  0.00    +0.000 N 
ATOM      2  C   UNL     1       2.868   7.514  18.154  0.00  0.00    +0.000 C 
ATOM      3  O   UNL     1       3.851   8.250  18.159  0.00  0.00    +0.000 OA
ATOM      4  N   UNL     1       2.932   6.150  18.414  0.00  0.00    +0.000 N 
ATOM      5  C   UNL     1       1.864   5.182  18.119  0.00  0.00    +0.000 C 
ATOM      6  C   UNL     1       1.726   4.070  19.153  0.00  0.00    +0.000 C 
ATOM      7  C   UNL     1       1.026   2.854  18.576  0.00  0.00    +0.000 C 
ATOM      8  O   UNL     1       1.963   1.779  18.510  0.00  0.00    +0.000 OA
ATOM      9  N   UNL     1       3.243   2.209  19.062  0.00  0.00    +0.000 NA
ATOM     10  C   UNL     1       4.187   2.111  17.967  0.00  0.00    +0.000 C 
ATOM     11  C   UNL     1       3.021   3.512  19.689  0.00  0.00    +0.000 C 
ATOM     12  C   UNL     1       4.155   4.531  19.814  0.00  0.00    +0.000 C 
ATOM     13  C   UNL     1       4.275   5.603  18.706  0.00  0.00    +0.000 C 
ATOM     14  H   UNL     1       0.887   7.601  18.457  0.00  0.00    +0.000 HD
ENDROOT
BRANCH  13  15
ATOM     15  C   UNL     1       5.111   5.189  17.483  0.00  0.00    +0.000 A 
ATOM     16  C   UNL     1       4.511   4.880  16.246  0.00  0.00    +0.000 A 
ATOM     17  C   UNL     1       5.229   4.283  15.203  0.00  0.00    +0.000 A 
ATOM     18  C   UNL     1       6.586   4.040  15.345  0.00  0.00    +0.000 A 
ATOM     19  C   UNL     1       7.238   4.471  16.495  0.00  0.00    +0.000 A 
ATOM     20  C   UNL     1       6.518   5.066  17.541  0.00  0.00    +0.000 A 
ATOM     21 BR   UNL     1       7.564   5.737  18.986  0.00  0.00    +0.000 Br
ENDBRANCH  13  15
BRANCH   1  23
ATOM     22  C   UNL     1       0.254  10.008  18.381  0.00  0.00    +0.000 C 
ATOM     23  C   UNL     1       1.467   9.444  17.672  0.00  0.00    +0.000 C 
ENDBRANCH   1  23
TORSDOF 2
ENDMDL
MODEL 2
REMARK VINA RESULT:      -6.3      8.159     10.263
REMARK  Name = 
REMARK  4 active torsions:
REMARK  status: ('A' for Active; 'I' for Inactive)
REMARK    1  A    between atoms: C_1  and  C_2
REMARK    2  A    between atoms: C_2  and  N_3
REMARK    3  A    between atoms: N_11  and  C_12
REMARK    4  A    between atoms: C_15  and  C_16
REMARK                            x       y       z     vdW  Elec       q    Type
REMARK                         _______ _______ _______ _____ _____    ______ ____
ROOT
ATOM      1  N   UNL     1      -1.895  11.583  16.628  0.00  0.00    +0.000 N 
ATOM      2  C   UNL     1      -1.575  11.121  17.885  0.00  0.00    +0.000 C 
ATOM      3  O   UNL     1      -1.994  10.038  18.284  0.00  0.00    +0.000 OA
ATOM      4  N   UNL     1      -0.754  11.949  18.642  0.00  0.00    +0.000 N 
ATOM      5  C   UNL     1      -0.483  13.365  18.351  0.00  0.00    +0.000 C 
ATOM      6  C   UNL     1       0.940  13.807  18.670  0.00  0.00    +0.000 C 
ATOM      7  C   UNL     1       1.029  15.309  18.864  0.00  0.00    +0.000 C 
ATOM      8  O   UNL     1       1.341  15.573  20.232  0.00  0.00    +0.000 OA
ATOM      9  N   UNL     1       1.512  14.314  20.948  0.00  0.00    +0.000 NA
ATOM     10  C   UNL     1       0.477  14.303  21.962  0.00  0.00    +0.000 C 
ATOM     11  C   UNL     1       1.528  13.250  19.944  0.00  0.00    +0.000 C 
ATOM     12  C   UNL     1       1.075  11.830  20.290  0.00  0.00    +0.000 C 
ATOM     13  C   UNL     1      -0.396  11.458  19.990  0.00  0.00    +0.000 C 
ATOM     14  H   UNL     1      -1.134  12.054  16.165  0.00  0.00    +0.000 HD
ENDROOT
BRANCH  13  15
ATOM     15  C   UNL     1      -1.396  11.787  21.111  0.00  0.00    +0.000 A 
ATOM     16  C   UNL     1      -2.435  12.721  20.926  0.00  0.00    +0.000 A 
ATOM     17  C   UNL     1      -3.200  13.199  21.996  0.00  0.00    +0.000 A 
ATOM     18  C   UNL     1      -2.991  12.705  23.274  0.00  0.00    +0.000 A 
ATOM     19  C   UNL     1      -2.078  11.675  23.465  0.00  0.00    +0.000 A 
ATOM     20  C   UNL     1      -1.309  11.198  22.394  0.00  0.00    +0.000 A 
ATOM     21 BR   UNL     1      -0.209   9.688  22.773  0.00  0.00    +0.000 Br
ENDBRANCH  13  15
BRANCH   1  23
ATOM     22  C   UNL     1      -4.179  11.036  15.891  0.00  0.00    +0.000 C 
ATOM     23  C   UNL     1      -2.700  10.737  15.762  0.00  0.00    +0.000 C 
ENDBRANCH   1  23
TORSDOF 2
ENDMDL
MODEL 3
REMARK VINA RESULT:      -6.1      6.993      9.073
REMARK  Name = 
REMARK  4 active torsions:
REMARK  status: ('A' for Active; 'I' for Inactive)
REMARK    1  A    between atoms: C_1  and  C_2
REMARK    2  A    between atoms: C_2  and  N_3
REMARK    3  A    between atoms: N_11  and  C_12
REMARK    4  A    between atoms: C_15  and  C_16
REMARK                            x       y       z     vdW  Elec       q    Type
REMARK                         _______ _______ _______ _____ _____    ______ ____
ROOT
ATOM      1  N   UNL     1      -2.884  11.824  17.113  0.00  0.00    +0.000 N 
ATOM      2  C   UNL     1      -1.983  10.999  17.748  0.00  0.00    +0.000 C 
ATOM      3  O   UNL     1      -2.177   9.788  17.816  0.00  0.00    +0.000 OA
ATOM      4  N   UNL     1      -0.862  11.625  18.280  0.00  0.00    +0.000 N 
ATOM      5  C   UNL     1      -0.728  13.073  18.503  0.00  0.00    +0.000 C 
ATOM      6  C   UNL     1       0.673  13.617  18.249  0.00  0.00    +0.000 C 
ATOM      7  C   UNL     1       0.902  14.932  18.971  0.00  0.00    +0.000 C 
ATOM      8  O   UNL     1       1.878  14.726  19.992  0.00  0.00    +0.000 OA
ATOM      9  N   UNL     1       2.347  13.346  19.952  0.00  0.00    +0.000 NA
ATOM     10  C   UNL     1       1.977  12.775  21.231  0.00  0.00    +0.000 C 
ATOM     11  C   UNL     1       1.809  12.748  18.729  0.00  0.00    +0.000 C 
ATOM     12  C   UNL     1       1.548  11.243  18.635  0.00  0.00    +0.000 C 
ATOM     13  C   UNL     1       0.118  10.746  18.955  0.00  0.00    +0.000 C 
ATOM     14  H   UNL     1      -2.451  12.562  16.581  0.00  0.00    +0.000 HD
ENDROOT
BRANCH  13  15
ATOM     15  C   UNL     1      -0.156  10.453  20.440  0.00  0.00    +0.000 A 
ATOM     16  C   UNL     1      -1.069  11.220  21.191  0.00  0.00    +0.000 A 
ATOM     17  C   UNL     1      -1.155  11.116  22.583  0.00  0.00    +0.000 A 
ATOM     18  C   UNL     1      -0.374  10.192  23.260  0.00  0.00    +0.000 A 
ATOM     19  C   UNL     1       0.427   9.317  22.535  0.00  0.00    +0.000 A 
ATOM     20  C   UNL     1       0.515   9.423  21.139  0.00  0.00    +0.000 A 
ATOM     21 BR   UNL     1       1.533   8.066  20.269  0.00  0.00    +0.000 Br
ENDBRANCH  13  15
BRANCH   1  23
ATOM     22  C   UNL     1      -5.339  11.651  17.148  0.00  0.00    +0.000 C 
ATOM     23  C   UNL     1      -4.048  11.225  16.481  0.00  0.00    +0.000 C 
ENDBRANCH   1  23
TORSDOF 2
ENDMDL
MODEL 4
REMARK VINA RESULT:      -5.6      2.303      5.293
REMARK  Name = 
REMARK  4 active torsions:
REMARK  status: ('A' for Active; 'I' for Inactive)
REMARK    1  A    between atoms: C_1  and  C_2
REMARK    2  A    between atoms: C_2  and  N_3
REMARK    3  A    between atoms: N_11  and  C_12
REMARK    4  A    between atoms: C_15  and  C_16
REMARK                            x       y       z     vdW  Elec       q    Type
REMARK                         _______ _______ _______ _____ _____    ______ ____
ROOT
ATOM      1  N   UNL     1       5.579   4.739  14.690  0.00  0.00    +0.000 N 
ATOM      2  C   UNL     1       5.414   4.139  15.919  0.00  0.00    +0.000 C 
ATOM      3  O   UNL     1       5.816   2.996  16.122  0.00  0.00    +0.000 OA
ATOM      4  N   UNL     1       4.785   4.912  16.888  0.00  0.00    +0.000 N 
ATOM      5  C   UNL     1       4.018   6.139  16.624  0.00  0.00    +0.000 C 
ATOM      6  C   UNL     1       4.166   7.211  17.698  0.00  0.00    +0.000 C 
ATOM      7  C   UNL     1       3.005   8.188  17.677  0.00  0.00    +0.000 C 
ATOM      8  O   UNL     1       2.248   8.021  18.876  0.00  0.00    +0.000 OA
ATOM      9  N   UNL     1       2.879   7.012  19.718  0.00  0.00    +0.000 NA
ATOM     10  C   UNL     1       1.904   5.947  19.840  0.00  0.00    +0.000 C 
ATOM     11  C   UNL     1       4.182   6.712  19.122  0.00  0.00    +0.000 C 
ATOM     12  C   UNL     1       4.842   5.345  19.315  0.00  0.00    +0.000 C 
ATOM     13  C   UNL     1       4.612   4.282  18.215  0.00  0.00    +0.000 C 
ATOM     14  H   UNL     1       5.811   5.718  14.746  0.00  0.00    +0.000 HD
ENDROOT
BRANCH  13  15
ATOM     15  C   UNL     1       3.349   3.422  18.390  0.00  0.00    +0.000 A 
ATOM     16  C   UNL     1       2.228   3.573  17.548  0.00  0.00    +0.000 A 
ATOM     17  C   UNL     1       0.999   2.970  17.837  0.00  0.00    +0.000 A 
ATOM     18  C   UNL     1       0.874   2.143  18.943  0.00  0.00    +0.000 A 
ATOM     19  C   UNL     1       1.998   1.854  19.707  0.00  0.00    +0.000 A 
ATOM     20  C   UNL     1       3.230   2.461  19.420  0.00  0.00    +0.000 A 
ATOM     21 BR   UNL     1       4.710   1.859  20.458  0.00  0.00    +0.000 Br
ENDBRANCH  13  15
BRANCH   1  23
ATOM     22  C   UNL     1       5.350   3.533  12.557  0.00  0.00    +0.000 C 
ATOM     23  C   UNL     1       6.284   4.007  13.650  0.00  0.00    +0.000 C 
ENDBRANCH   1  23
TORSDOF 2
ENDMDL
MODEL 5
REMARK VINA RESULT:      -5.6      8.485     10.684
REMARK  Name = 
REMARK  4 active torsions:
REMARK  status: ('A' for Active; 'I' for Inactive)
REMARK    1  A    between atoms: C_1  and  C_2
REMARK    2  A    between atoms: C_2  and  N_3
REMARK    3  A    between atoms: N_11  and  C_12
REMARK    4  A    between atoms: C_15  and  C_16
REMARK                            x       y       z     vdW  Elec       q    Type
REMARK                         _______ _______ _______ _____ _____    ______ ____
ROOT
ATOM      1  N   UNL     1      -2.187  11.615  16.845  0.00  0.00    +0.000 N 
ATOM      2  C   UNL     1      -2.373  11.739  18.204  0.00  0.00    +0.000 C 
ATOM      3  O   UNL     1      -3.477  11.551  18.708  0.00  0.00    +0.000 OA
ATOM      4  N   UNL     1      -1.243  12.073  18.941  0.00  0.00    +0.000 N 
ATOM      5  C   UNL     1       0.007  12.607  18.377  0.00  0.00    +0.000 C 
ATOM      6  C   UNL     1       1.268  12.113  19.076  0.00  0.00    +0.000 C 
ATOM      7  C   UNL     1       2.440  13.048  18.841  0.00  0.00    +0.000 C 
ATOM      8  O   UNL     1       2.784  13.665  20.082  0.00  0.00    +0.000 OA
ATOM      9  N   UNL     1       1.927  13.147  21.143  0.00  0.00    +0.000 NA
ATOM     10  C   UNL     1       1.188  14.291  21.635  0.00  0.00    +0.000 C 
ATOM     11  C   UNL     1       1.188  12.017  20.579  0.00  0.00    +0.000 C 
ATOM     12  C   UNL     1      -0.188  11.623  21.124  0.00  0.00    +0.000 C 
ATOM     13  C   UNL     1      -1.430  12.198  20.403  0.00  0.00    +0.000 C 
ATOM     14  H   UNL     1      -1.309  11.187  16.596  0.00  0.00    +0.000 HD
ENDROOT
BRANCH  13  15
ATOM     15  C   UNL     1      -1.897  13.575  20.903  0.00  0.00    +0.000 A 
ATOM     16  C   UNL     1      -1.765  14.735  20.113  0.00  0.00    +0.000 A 
ATOM     17  C   UNL     1      -1.968  16.016  20.638  0.00  0.00    +0.000 A 
ATOM     18  C   UNL     1      -2.375  16.170  21.954  0.00  0.00    +0.000 A 
ATOM     19  C   UNL     1      -2.659  15.043  22.715  0.00  0.00    +0.000 A 
ATOM     20  C   UNL     1      -2.453  13.759  22.191  0.00  0.00    +0.000 A 
ATOM     21 BR   UNL     1      -3.024  12.313  23.294  0.00  0.00    +0.000 Br
ENDBRANCH  13  15
BRANCH   1  23
ATOM     22  C   UNL     1      -2.916  10.196  14.971  0.00  0.00    +0.000 C 
ATOM     23  C   UNL     1      -3.315  11.208  16.024  0.00  0.00    +0.000 C 
ENDBRANCH   1  23
TORSDOF 2
ENDMDL
MODEL 6
REMARK VINA RESULT:      -5.5      9.813     11.489
REMARK  Name = 
REMARK  4 active torsions:
REMARK  status: ('A' for Active; 'I' for Inactive)
REMARK    1  A    between atoms: C_1  and  C_2
REMARK    2  A    between atoms: C_2  and  N_3
REMARK    3  A    between atoms: N_11  and  C_12
REMARK    4  A    between atoms: C_15  and  C_16
REMARK                            x       y       z     vdW  Elec       q    Type
REMARK                         _______ _______ _______ _____ _____    ______ ____
ROOT
ATOM      1  N   UNL     1       6.015  14.462  17.895  0.00  0.00    +0.000 N 
ATOM      2  C   UNL     1       6.958  15.035  18.719  0.00  0.00    +0.000 C 
ATOM      3  O   UNL     1       6.742  16.109  19.273  0.00  0.00    +0.000 OA
ATOM      4  N   UNL     1       8.137  14.316  18.878  0.00  0.00    +0.000 N 
ATOM      5  C   UNL     1       8.574  13.207  18.016  0.00  0.00    +0.000 C 
ATOM      6  C   UNL     1       9.299  12.088  18.756  0.00  0.00    +0.000 C 
ATOM      7  C   UNL     1      10.167  11.270  17.821  0.00  0.00    +0.000 C 
ATOM      8  O   UNL     1      11.536  11.491  18.161  0.00  0.00    +0.000 OA
ATOM      9  N   UNL     1      11.618  12.381  19.313  0.00  0.00    +0.000 NA
ATOM     10  C   UNL     1      12.321  13.557  18.843  0.00  0.00    +0.000 C 
ATOM     11  C   UNL     1      10.258  12.532  19.833  0.00  0.00    +0.000 C 
ATOM     12  C   UNL     1       9.837  13.795  20.587  0.00  0.00    +0.000 C 
ATOM     13  C   UNL     1       9.153  14.917  19.770  0.00  0.00    +0.000 C 
ATOM     14  H   UNL     1       5.956  13.460  17.984  0.00  0.00    +0.000 HD
ENDROOT
BRANCH  13  15
ATOM     15  C   UNL     1      10.111  15.924  19.112  0.00  0.00    +0.000 A 
ATOM     16  C   UNL     1      10.212  16.044  17.711  0.00  0.00    +0.000 A 
ATOM     17  C   UNL     1      11.234  16.781  17.103  0.00  0.00    +0.000 A 
ATOM     18  C   UNL     1      12.147  17.475  17.881  0.00  0.00    +0.000 A 
ATOM     19  C   UNL     1      11.985  17.500  19.262  0.00  0.00    +0.000 A 
ATOM     20  C   UNL     1      10.962  16.759  19.872  0.00  0.00    +0.000 A 
ATOM     21 BR   UNL     1      10.771  17.006  21.752  0.00  0.00    +0.000 Br
ENDBRANCH  13  15
BRANCH   1  23
ATOM     22  C   UNL     1       3.601  14.349  18.359  0.00  0.00    +0.000 C 
ATOM     23  C   UNL     1       4.736  15.133  17.734  0.00  0.00    +0.000 C 
ENDBRANCH   1  23
TORSDOF 2
ENDMDL
MODEL 7
REMARK VINA RESULT:      -5.5      6.618      9.163
REMARK  Name = 
REMARK  4 active torsions:
REMARK  status: ('A' for Active; 'I' for Inactive)
REMARK    1  A    between atoms: C_1  and  C_2
REMARK    2  A    between atoms: C_2  and  N_3
REMARK    3  A    between atoms: N_11  and  C_12
REMARK    4  A    between atoms: C_15  and  C_16
REMARK                            x       y       z     vdW  Elec       q    Type
REMARK                         _______ _______ _______ _____ _____    ______ ____
ROOT
ATOM      1  N   UNL     1      -4.009  11.866  18.327  0.00  0.00    +0.000 N 
ATOM      2  C   UNL     1      -2.775  11.260  18.239  0.00  0.00    +0.000 C 
ATOM      3  O   UNL     1      -2.653  10.151  17.726  0.00  0.00    +0.000 OA
ATOM      4  N   UNL     1      -1.708  11.987  18.753  0.00  0.00    +0.000 N 
ATOM      5  C   UNL     1      -1.829  13.152  19.643  0.00  0.00    +0.000 C 
ATOM      6  C   UNL     1      -0.785  14.235  19.398  0.00  0.00    +0.000 C 
ATOM      7  C   UNL     1      -0.603  15.123  20.615  0.00  0.00    +0.000 C 
ATOM      8  O   UNL     1       0.704  14.903  21.147  0.00  0.00    +0.000 OA
ATOM      9  N   UNL     1       1.420  13.947  20.311  0.00  0.00    +0.000 NA
ATOM     10  C   UNL     1       1.693  12.813  21.170  0.00  0.00    +0.000 C 
ATOM     11  C   UNL     1       0.612  13.744  19.108  0.00  0.00    +0.000 C 
ATOM     12  C   UNL     1       0.679  12.431  18.324  0.00  0.00    +0.000 C 
ATOM     13  C   UNL     1      -0.376  11.349  18.655  0.00  0.00    +0.000 C 
ATOM     14  H   UNL     1      -3.983  12.860  18.162  0.00  0.00    +0.000 HD
ENDROOT
BRANCH  13  15
ATOM     15  C   UNL     1      -0.001  10.399  19.804  0.00  0.00    +0.000 A 
ATOM     16  C   UNL     1      -0.625  10.479  21.065  0.00  0.00    +0.000 A 
ATOM     17  C   UNL     1      -0.138   9.784  22.178  0.00  0.00    +0.000 A 
ATOM     18  C   UNL     1       0.950   8.936  22.045  0.00  0.00    +0.000 A 
ATOM     19  C   UNL     1       1.494   8.719  20.784  0.00  0.00    +0.000 A 
ATOM     20  C   UNL     1       1.008   9.417  19.669  0.00  0.00    +0.000 A 
ATOM     21 BR   UNL     1       1.749   8.910  17.988  0.00  0.00    +0.000 Br
ENDBRANCH  13  15
BRANCH   1  23
ATOM     22  C   UNL     1      -6.432  11.478  18.519  0.00  0.00    +0.000 C 
ATOM     23  C   UNL     1      -5.158  11.186  17.754  0.00  0.00    +0.000 C 
ENDBRANCH   1  23
TORSDOF 2
ENDMDL
MODEL 8
REMARK VINA RESULT:      -5.5      2.883      5.010
REMARK  Name = 
REMARK  4 active torsions:
REMARK  status: ('A' for Active; 'I' for Inactive)
REMARK    1  A    between atoms: C_1  and  C_2
REMARK    2  A    between atoms: C_2  and  N_3
REMARK    3  A    between atoms: N_11  and  C_12
REMARK    4  A    between atoms: C_15  and  C_16
REMARK                            x       y       z     vdW  Elec       q    Type
REMARK                         _______ _______ _______ _____ _____    ______ ____
ROOT
ATOM      1  N   UNL     1       5.968   3.562  13.574  0.00  0.00    +0.000 N 
ATOM      2  C   UNL     1       6.224   4.676  14.343  0.00  0.00    +0.000 C 
ATOM      3  O   UNL     1       7.070   5.498  14.000  0.00  0.00    +0.000 OA
ATOM      4  N   UNL     1       5.464   4.798  15.501  0.00  0.00    +0.000 N 
ATOM      5  C   UNL     1       4.680   3.715  16.115  0.00  0.00    +0.000 C 
ATOM      6  C   UNL     1       3.366   4.173  16.739  0.00  0.00    +0.000 C 
ATOM      7  C   UNL     1       2.870   3.189  17.781  0.00  0.00    +0.000 C 
ATOM      8  O   UNL     1       2.938   3.813  19.064  0.00  0.00    +0.000 OA
ATOM      9  N   UNL     1       3.411   5.184  18.919  0.00  0.00    +0.000 NA
ATOM     10  C   UNL     1       4.658   5.242  19.652  0.00  0.00    +0.000 C 
ATOM     11  C   UNL     1       3.419   5.483  17.486  0.00  0.00    +0.000 C 
ATOM     12  C   UNL     1       4.385   6.516  16.901  0.00  0.00    +0.000 C 
ATOM     13  C   UNL     1       5.725   5.995  16.329  0.00  0.00    +0.000 C 
ATOM     14  H   UNL     1       4.991   3.316  13.533  0.00  0.00    +0.000 HD
ENDROOT
BRANCH  13  15
ATOM     15  C   UNL     1       6.867   5.868  17.351  0.00  0.00    +0.000 A 
ATOM     16  C   UNL     1       7.381   4.613  17.736  0.00  0.00    +0.000 A 
ATOM     17  C   UNL     1       8.249   4.470  18.824  0.00  0.00    +0.000 A 
ATOM     18  C   UNL     1       8.681   5.589  19.519  0.00  0.00    +0.000 A 
ATOM     19  C   UNL     1       8.312   6.852  19.072  0.00  0.00    +0.000 A 
ATOM     20  C   UNL     1       7.440   6.996  17.983  0.00  0.00    +0.000 A 
ATOM     21 BR   UNL     1       7.142   8.783  17.392  0.00  0.00    +0.000 Br
ENDBRANCH  13  15
BRANCH   1  23
ATOM     22  C   UNL     1       6.171   2.231  11.514  0.00  0.00    +0.000 C 
ATOM     23  C   UNL     1       6.684   3.406  12.319  0.00  0.00    +0.000 C 
ENDBRANCH   1  23
TORSDOF 2
ENDMDL
MODEL 9
REMARK VINA RESULT:      -5.5      9.884     11.998
REMARK  Name = 
REMARK  4 active torsions:
REMARK  status: ('A' for Active; 'I' for Inactive)
REMARK    1  A    between atoms: C_1  and  C_2
REMARK    2  A    between atoms: C_2  and  N_3
REMARK    3  A    between atoms: N_11  and  C_12
REMARK    4  A    between atoms: C_15  and  C_16
REMARK                            x       y       z     vdW  Elec       q    Type
REMARK                         _______ _______ _______ _____ _____    ______ ____
ROOT
ATOM      1  N   UNL     1       5.521  15.261  18.781  0.00  0.00    +0.000 N 
ATOM      2  C   UNL     1       6.711  14.802  18.263  0.00  0.00    +0.000 C 
ATOM      3  O   UNL     1       6.732  13.880  17.452  0.00  0.00    +0.000 OA
ATOM      4  N   UNL     1       7.856  15.453  18.709  0.00  0.00    +0.000 N 
ATOM      5  C   UNL     1       7.923  16.332  19.887  0.00  0.00    +0.000 C 
ATOM      6  C   UNL     1       8.861  17.523  19.725  0.00  0.00    +0.000 C 
ATOM      7  C   UNL     1       9.304  18.072  21.067  0.00  0.00    +0.000 C 
ATOM      8  O   UNL     1      10.703  17.828  21.219  0.00  0.00    +0.000 OA
ATOM      9  N   UNL     1      11.222  17.186  20.018  0.00  0.00    +0.000 NA
ATOM     10  C   UNL     1      11.709  15.892  20.453  0.00  0.00    +0.000 C 
ATOM     11  C   UNL     1      10.161  17.239  19.012  0.00  0.00    +0.000 C 
ATOM     12  C   UNL     1      10.068  16.186  17.905  0.00  0.00    +0.000 C 
ATOM     13  C   UNL     1       9.139  14.974  18.151  0.00  0.00    +0.000 C 
ATOM     14  H   UNL     1       5.489  16.263  18.892  0.00  0.00    +0.000 HD
ENDROOT
BRANCH  13  15
ATOM     15  C   UNL     1       9.789  13.790  18.885  0.00  0.00    +0.000 A 
ATOM     16  C   UNL     1       9.288  13.315  20.115  0.00  0.00    +0.000 A 
ATOM     17  C   UNL     1       9.999  12.402  20.901  0.00  0.00    +0.000 A 
ATOM     18  C   UNL     1      11.203  11.885  20.447  0.00  0.00    +0.000 A 
ATOM     19  C   UNL     1      11.650  12.217  19.174  0.00  0.00    +0.000 A 
ATOM     20  C   UNL     1      10.939  13.135  18.387  0.00  0.00    +0.000 A 
ATOM     21 BR   UNL     1      11.589  13.381  16.612  0.00  0.00    +0.000 Br
ENDBRANCH  13  15
BRANCH   1  23
ATOM     22  C   UNL     1       3.534  15.579  17.364  0.00  0.00    +0.000 C 
ATOM     23  C   UNL     1       4.283  14.664  18.310  0.00  0.00    +0.000 C 
ENDBRANCH   1  23
TORSDOF 2
ENDMDL
