MODEL 1
REMARK VINA RESULT:      -8.1      0.000      0.000
REMARK  Name = 
REMARK  8 active torsions:
REMARK  status: ('A' for Active; 'I' for Inactive)
REMARK    1  A    between atoms: C_1  and  C_2
REMARK    2  A    between atoms: C_4  and  N_5
REMARK    3  A    between atoms: N_5  and  C_6
REMARK    4  A    between atoms: N_5  and  C_7
REMARK    5  A    between atoms: C_7  and  C_8
REMARK    6  A    between atoms: C_15  and  S_16
REMARK    7  A    between atoms: S_16  and  C_17
REMARK    8  A    between atoms: C_17  and  C_18
REMARK                            x       y       z     vdW  Elec       q    Type
REMARK                         _______ _______ _______ _____ _____    ______ ____
ROOT
ATOM      1  C   UNL     1       7.158   4.888  13.882  0.00  0.00    +0.000 C 
ATOM      2  C   UNL     1       6.692   5.031  15.300  0.00  0.00    +0.000 A 
ATOM      3  C   UNL     1       5.580   4.347  15.743  0.00  0.00    +0.000 A 
ATOM      4  C   UNL     1       5.208   4.478  17.071  0.00  0.00    +0.000 A 
ATOM      5  N   UNL     1       5.949   5.240  17.907  0.00  0.00    +0.000 NA
ATOM      6  C   UNL     1       7.006   5.907  17.389  0.00  0.00    +0.000 A 
ATOM      7  N   UNL     1       7.410   5.826  16.111  0.00  0.00    +0.000 NA
ENDROOT
BRANCH   4   8
ATOM      8  N   UNL     1       4.079   3.813  17.533  0.00  0.00    +0.000 N 
ATOM      9  C   UNL     1       4.171   2.468  18.085  0.00  0.00    +0.000 C 
BRANCH   8  10
ATOM     10  C   UNL     1       2.746   4.394  17.377  0.00  0.00    +0.000 C 
BRANCH  10  11
ATOM     11  C   UNL     1       2.452   5.436  18.448  0.00  0.00    +0.000 A 
ATOM     12  C   UNL     1       2.600   6.803  18.163  0.00  0.00    +0.000 A 
ATOM     13  C   UNL     1       2.278   7.773  19.116  0.00  0.00    +0.000 A 
ATOM     14  C   UNL     1       1.798   7.395  20.366  0.00  0.00    +0.000 A 
ATOM     15  C   UNL     1       1.644   6.043  20.668  0.00  0.00    +0.000 A 
ATOM     16  C   UNL     1       1.971   5.069  19.716  0.00  0.00    +0.000 A 
ENDBRANCH  10  11
ENDBRANCH   8  10
ENDBRANCH   4   8
BRANCH   6  17
ATOM     17  S   UNL     1       7.969   6.958  18.489  0.00  0.00    +0.000 S 
BRANCH  17  18
ATOM     18  C   UNL     1       7.880   8.521  17.560  0.00  0.00    +0.000 C 
BRANCH  18  19
ATOM     19  C   UNL     1       8.526   9.736  18.175  0.00  0.00    +0.000 A 
ATOM     20  N   UNL     1       9.205   9.711  19.309  0.00  0.00    +0.000 NA
ATOM     21  C   UNL     1       9.542  11.015  19.591  0.00  0.00    +0.000 A 
ATOM     22  C   UNL     1      10.241  11.533  20.694  0.00  0.00    +0.000 A 
ATOM     23  C   UNL     1      10.441  12.915  20.769  0.00  0.00    +0.000 A 
ATOM     24  C   UNL     1       9.959  13.760  19.765  0.00  0.00    +0.000 A 
ATOM     25  C   UNL     1       9.269  13.250  18.650  0.00  0.00    +0.000 A 
ATOM     26  C   UNL     1       9.081  11.866  18.600  0.00  0.00    +0.000 A 
ATOM     27  N   UNL     1       8.464  11.026  17.694  0.00  0.00    +0.000 N 
ATOM     28  H   UNL     1       8.020  11.310  16.832  0.00  0.00    +0.000 HD
ENDBRANCH  18  19
ENDBRANCH  17  18
ENDBRANCH   6  17
TORSDOF 6
ENDMDL
MODEL 2
REMARK VINA RESULT:      -7.8      4.431      7.171
REMARK  Name = 
REMARK  8 active torsions:
REMARK  status: ('A' for Active; 'I' for Inactive)
REMARK    1  A    between atoms: C_1  and  C_2
REMARK    2  A    between atoms: C_4  and  N_5
REMARK    3  A    between atoms: N_5  and  C_6
REMARK    4  A    between atoms: N_5  and  C_7
REMARK    5  A    between atoms: C_7  and  C_8
REMARK    6  A    between atoms: C_15  and  S_16
REMARK    7  A    between atoms: S_16  and  C_17
REMARK    8  A    between atoms: C_17  and  C_18
REMARK                            x       y       z     vdW  Elec       q    Type
REMARK                         _______ _______ _______ _____ _____    ______ ____
ROOT
ATOM      1  C   UNL     1       1.150   3.096  20.793  0.00  0.00    +0.000 C 
ATOM      2  C   UNL     1       2.014   4.199  20.259  0.00  0.00    +0.000 A 
ATOM      3  C   UNL     1       1.549   5.496  20.225  0.00  0.00    +0.000 A 
ATOM      4  C   UNL     1       2.395   6.490  19.760  0.00  0.00    +0.000 A 
ATOM      5  N   UNL     1       3.655   6.180  19.380  0.00  0.00    +0.000 NA
ATOM      6  C   UNL     1       4.025   4.879  19.409  0.00  0.00    +0.000 A 
ATOM      7  N   UNL     1       3.249   3.873  19.842  0.00  0.00    +0.000 NA
ENDROOT
BRANCH   4   8
ATOM      8  N   UNL     1       1.940   7.802  19.699  0.00  0.00    +0.000 N 
ATOM      9  C   UNL     1       1.274   8.420  20.838  0.00  0.00    +0.000 C 
BRANCH   8  10
ATOM     10  C   UNL     1       2.009   8.566  18.455  0.00  0.00    +0.000 C 
BRANCH  10  11
ATOM     11  C   UNL     1       1.140   9.816  18.508  0.00  0.00    +0.000 A 
ATOM     12  C   UNL     1       1.729  11.081  18.668  0.00  0.00    +0.000 A 
ATOM     13  C   UNL     1       0.952  12.241  18.661  0.00  0.00    +0.000 A 
ATOM     14  C   UNL     1      -0.426  12.160  18.487  0.00  0.00    +0.000 A 
ATOM     15  C   UNL     1      -1.031  10.914  18.327  0.00  0.00    +0.000 A 
ATOM     16  C   UNL     1      -0.254   9.749  18.340  0.00  0.00    +0.000 A 
ENDBRANCH  10  11
ENDBRANCH   8  10
ENDBRANCH   4   8
BRANCH   6  17
ATOM     17  S   UNL     1       5.687   4.457  18.862  0.00  0.00    +0.000 S 
BRANCH  17  18
ATOM     18  C   UNL     1       5.942   5.778  17.636  0.00  0.00    +0.000 C 
BRANCH  18  19
ATOM     19  C   UNL     1       6.120   5.370  16.196  0.00  0.00    +0.000 A 
ATOM     20  N   UNL     1       5.312   4.534  15.565  0.00  0.00    +0.000 NA
ATOM     21  C   UNL     1       5.858   4.330  14.318  0.00  0.00    +0.000 A 
ATOM     22  C   UNL     1       5.404   3.509  13.274  0.00  0.00    +0.000 A 
ATOM     23  C   UNL     1       6.153   3.451  12.095  0.00  0.00    +0.000 A 
ATOM     24  C   UNL     1       7.328   4.197  11.960  0.00  0.00    +0.000 A 
ATOM     25  C   UNL     1       7.785   5.033  12.996  0.00  0.00    +0.000 A 
ATOM     26  C   UNL     1       7.018   5.072  14.164  0.00  0.00    +0.000 A 
ATOM     27  N   UNL     1       7.148   5.749  15.360  0.00  0.00    +0.000 N 
ATOM     28  H   UNL     1       7.886   6.397  15.595  0.00  0.00    +0.000 HD
ENDBRANCH  18  19
ENDBRANCH  17  18
ENDBRANCH   6  17
TORSDOF 6
ENDMDL
MODEL 3
REMARK VINA RESULT:      -7.6      4.102      6.918
REMARK  Name = 
REMARK  8 active torsions:
REMARK  status: ('A' for Active; 'I' for Inactive)
REMARK    1  A    between atoms: C_1  and  C_2
REMARK    2  A    between atoms: C_4  and  N_5
REMARK    3  A    between atoms: N_5  and  C_6
REMARK    4  A    between atoms: N_5  and  C_7
REMARK    5  A    between atoms: C_7  and  C_8
REMARK    6  A    between atoms: C_15  and  S_16
REMARK    7  A    between atoms: S_16  and  C_17
REMARK    8  A    between atoms: C_17  and  C_18
REMARK                            x       y       z     vdW  Elec       q    Type
REMARK                         _______ _______ _______ _____ _____    ______ ____
ROOT
ATOM      1  C   UNL     1       1.985   3.260  17.444  0.00  0.00    +0.000 C 
ATOM      2  C   UNL     1       2.740   4.465  17.922  0.00  0.00    +0.000 A 
ATOM      3  C   UNL     1       2.075   5.640  18.200  0.00  0.00    +0.000 A 
ATOM      4  C   UNL     1       2.806   6.716  18.676  0.00  0.00    +0.000 A 
ATOM      5  N   UNL     1       4.136   6.589  18.884  0.00  0.00    +0.000 NA
ATOM      6  C   UNL     1       4.721   5.415  18.554  0.00  0.00    +0.000 A 
ATOM      7  N   UNL     1       4.067   4.341  18.083  0.00  0.00    +0.000 NA
ENDROOT
BRANCH   4   8
ATOM      8  N   UNL     1       2.159   7.917  18.944  0.00  0.00    +0.000 N 
ATOM      9  C   UNL     1       1.545   8.166  20.241  0.00  0.00    +0.000 C 
BRANCH   8  10
ATOM     10  C   UNL     1       1.973   8.922  17.899  0.00  0.00    +0.000 C 
BRANCH  10  11
ATOM     11  C   UNL     1       0.862   9.904  18.248  0.00  0.00    +0.000 A 
ATOM     12  C   UNL     1      -0.467   9.622  17.895  0.00  0.00    +0.000 A 
ATOM     13  C   UNL     1      -1.505  10.484  18.258  0.00  0.00    +0.000 A 
ATOM     14  C   UNL     1      -1.234  11.638  18.986  0.00  0.00    +0.000 A 
ATOM     15  C   UNL     1       0.079  11.936  19.347  0.00  0.00    +0.000 A 
ATOM     16  C   UNL     1       1.121  11.076  18.978  0.00  0.00    +0.000 A 
ENDBRANCH  10  11
ENDBRANCH   8  10
ENDBRANCH   4   8
BRANCH   6  17
ATOM     17  S   UNL     1       6.499   5.256  18.789  0.00  0.00    +0.000 S 
BRANCH  17  18
ATOM     18  C   UNL     1       7.075   6.125  17.296  0.00  0.00    +0.000 C 
BRANCH  18  19
ATOM     19  C   UNL     1       6.909   5.424  15.972  0.00  0.00    +0.000 A 
ATOM     20  N   UNL     1       7.733   5.583  14.950  0.00  0.00    +0.000 NA
ATOM     21  C   UNL     1       7.196   4.871  13.902  0.00  0.00    +0.000 A 
ATOM     22  C   UNL     1       7.668   4.737  12.586  0.00  0.00    +0.000 A 
ATOM     23  C   UNL     1       6.924   3.969  11.684  0.00  0.00    +0.000 A 
ATOM     24  C   UNL     1       5.738   3.349  12.087  0.00  0.00    +0.000 A 
ATOM     25  C   UNL     1       5.263   3.467  13.406  0.00  0.00    +0.000 A 
ATOM     26  C   UNL     1       6.024   4.240  14.286  0.00  0.00    +0.000 A 
ATOM     27  N   UNL     1       5.878   4.581  15.617  0.00  0.00    +0.000 N 
ATOM     28  H   UNL     1       5.128   4.283  16.225  0.00  0.00    +0.000 HD
ENDBRANCH  18  19
ENDBRANCH  17  18
ENDBRANCH   6  17
TORSDOF 6
ENDMDL
MODEL 4
REMARK VINA RESULT:      -7.6      4.379      7.206
REMARK  Name = 
REMARK  8 active torsions:
REMARK  status: ('A' for Active; 'I' for Inactive)
REMARK    1  A    between atoms: C_1  and  C_2
REMARK    2  A    between atoms: C_4  and  N_5
REMARK    3  A    between atoms: N_5  and  C_6
REMARK    4  A    between atoms: N_5  and  C_7
REMARK    5  A    between atoms: C_7  and  C_8
REMARK    6  A    between atoms: C_15  and  S_16
REMARK    7  A    between atoms: S_16  and  C_17
REMARK    8  A    between atoms: C_17  and  C_18
REMARK                            x       y       z     vdW  Elec       q    Type
REMARK                         _______ _______ _______ _____ _____    ______ ____
ROOT
ATOM      1  C   UNL     1       1.630   3.530  21.255  0.00  0.00    +0.000 C 
ATOM      2  C   UNL     1       2.362   4.590  20.485  0.00  0.00    +0.000 A 
ATOM      3  C   UNL     1       1.760   5.801  20.220  0.00  0.00    +0.000 A 
ATOM      4  C   UNL     1       2.486   6.766  19.540  0.00  0.00    +0.000 A 
ATOM      5  N   UNL     1       3.765   6.517  19.179  0.00  0.00    +0.000 NA
ATOM      6  C   UNL     1       4.273   5.292  19.444  0.00  0.00    +0.000 A 
ATOM      7  N   UNL     1       3.617   4.316  20.093  0.00  0.00    +0.000 NA
ENDROOT
BRANCH   4   8
ATOM      8  N   UNL     1       1.891   7.986  19.244  0.00  0.00    +0.000 N 
ATOM      9  C   UNL     1       2.000   8.573  17.915  0.00  0.00    +0.000 C 
BRANCH   8  10
ATOM     10  C   UNL     1       1.235   8.777  20.284  0.00  0.00    +0.000 C 
BRANCH  10  11
ATOM     11  C   UNL     1       0.550  10.011  19.712  0.00  0.00    +0.000 A 
ATOM     12  C   UNL     1       1.260  11.215  19.578  0.00  0.00    +0.000 A 
ATOM     13  C   UNL     1       0.664  12.339  19.001  0.00  0.00    +0.000 A 
ATOM     14  C   UNL     1      -0.649  12.279  18.544  0.00  0.00    +0.000 A 
ATOM     15  C   UNL     1      -1.370  11.093  18.667  0.00  0.00    +0.000 A 
ATOM     16  C   UNL     1      -0.776   9.966  19.251  0.00  0.00    +0.000 A 
ENDBRANCH  10  11
ENDBRANCH   8  10
ENDBRANCH   4   8
BRANCH   6  17
ATOM     17  S   UNL     1       5.961   4.941  18.926  0.00  0.00    +0.000 S 
BRANCH  17  18
ATOM     18  C   UNL     1       6.066   6.050  17.486  0.00  0.00    +0.000 C 
BRANCH  18  19
ATOM     19  C   UNL     1       6.270   5.420  16.132  0.00  0.00    +0.000 A 
ATOM     20  N   UNL     1       7.255   5.745  15.312  0.00  0.00    +0.000 NA
ATOM     21  C   UNL     1       7.044   5.041  14.149  0.00  0.00    +0.000 A 
ATOM     22  C   UNL     1       7.788   5.050  12.958  0.00  0.00    +0.000 A 
ATOM     23  C   UNL     1       7.353   4.255  11.893  0.00  0.00    +0.000 A 
ATOM     24  C   UNL     1       6.206   3.466  12.015  0.00  0.00    +0.000 A 
ATOM     25  C   UNL     1       5.461   3.440  13.208  0.00  0.00    +0.000 A 
ATOM     26  C   UNL     1       5.915   4.245  14.256  0.00  0.00    +0.000 A 
ATOM     27  N   UNL     1       5.457   4.479  15.538  0.00  0.00    +0.000 N 
ATOM     28  H   UNL     1       4.647   4.052  15.964  0.00  0.00    +0.000 HD
ENDBRANCH  18  19
ENDBRANCH  17  18
ENDBRANCH   6  17
TORSDOF 6
ENDMDL
MODEL 5
REMARK VINA RESULT:      -7.5      4.365      7.238
REMARK  Name = 
REMARK  8 active torsions:
REMARK  status: ('A' for Active; 'I' for Inactive)
REMARK    1  A    between atoms: C_1  and  C_2
REMARK    2  A    between atoms: C_4  and  N_5
REMARK    3  A    between atoms: N_5  and  C_6
REMARK    4  A    between atoms: N_5  and  C_7
REMARK    5  A    between atoms: C_7  and  C_8
REMARK    6  A    between atoms: C_15  and  S_16
REMARK    7  A    between atoms: S_16  and  C_17
REMARK    8  A    between atoms: C_17  and  C_18
REMARK                            x       y       z     vdW  Elec       q    Type
REMARK                         _______ _______ _______ _____ _____    ______ ____
ROOT
ATOM      1  C   UNL     1       1.639   3.552  21.317  0.00  0.00    +0.000 C 
ATOM      2  C   UNL     1       2.383   4.576  20.513  0.00  0.00    +0.000 A 
ATOM      3  C   UNL     1       1.806   5.796  20.231  0.00  0.00    +0.000 A 
ATOM      4  C   UNL     1       2.545   6.728  19.519  0.00  0.00    +0.000 A 
ATOM      5  N   UNL     1       3.812   6.440  19.144  0.00  0.00    +0.000 NA
ATOM      6  C   UNL     1       4.294   5.209  19.428  0.00  0.00    +0.000 A 
ATOM      7  N   UNL     1       3.625   4.264  20.108  0.00  0.00    +0.000 NA
ENDROOT
BRANCH   4   8
ATOM      8  N   UNL     1       1.975   7.956  19.207  0.00  0.00    +0.000 N 
ATOM      9  C   UNL     1       2.157   8.556  17.892  0.00  0.00    +0.000 C 
BRANCH   8  10
ATOM     10  C   UNL     1       1.271   8.740  20.219  0.00  0.00    +0.000 C 
BRANCH  10  11
ATOM     11  C   UNL     1       0.598   9.968  19.620  0.00  0.00    +0.000 A 
ATOM     12  C   UNL     1      -0.769   9.942  19.304  0.00  0.00    +0.000 A 
ATOM     13  C   UNL     1      -1.414  11.078  18.808  0.00  0.00    +0.000 A 
ATOM     14  C   UNL     1      -0.705  12.261  18.625  0.00  0.00    +0.000 A 
ATOM     15  C   UNL     1       0.653  12.309  18.934  0.00  0.00    +0.000 A 
ATOM     16  C   UNL     1       1.302  11.169  19.425  0.00  0.00    +0.000 A 
ENDBRANCH  10  11
ENDBRANCH   8  10
ENDBRANCH   4   8
BRANCH   6  17
ATOM     17  S   UNL     1       5.965   4.807  18.892  0.00  0.00    +0.000 S 
BRANCH  17  18
ATOM     18  C   UNL     1       6.151   6.029  17.556  0.00  0.00    +0.000 C 
BRANCH  18  19
ATOM     19  C   UNL     1       6.225   5.513  16.142  0.00  0.00    +0.000 A 
ATOM     20  N   UNL     1       5.304   4.737  15.595  0.00  0.00    +0.000 NA
ATOM     21  C   UNL     1       5.775   4.394  14.348  0.00  0.00    +0.000 A 
ATOM     22  C   UNL     1       5.190   3.566  13.376  0.00  0.00    +0.000 A 
ATOM     23  C   UNL     1       5.882   3.347  12.181  0.00  0.00    +0.000 A 
ATOM     24  C   UNL     1       7.127   3.943  11.959  0.00  0.00    +0.000 A 
ATOM     25  C   UNL     1       7.715   4.784  12.921  0.00  0.00    +0.000 A 
ATOM     26  C   UNL     1       7.004   4.985  14.107  0.00  0.00    +0.000 A 
ATOM     27  N   UNL     1       7.256   5.717  15.250  0.00  0.00    +0.000 N 
ATOM     28  H   UNL     1       8.071   6.290  15.418  0.00  0.00    +0.000 HD
ENDBRANCH  18  19
ENDBRANCH  17  18
ENDBRANCH   6  17
TORSDOF 6
ENDMDL
MODEL 6
REMARK VINA RESULT:      -7.5      6.514     10.309
REMARK  Name = 
REMARK  8 active torsions:
REMARK  status: ('A' for Active; 'I' for Inactive)
REMARK    1  A    between atoms: C_1  and  C_2
REMARK    2  A    between atoms: C_4  and  N_5
REMARK    3  A    between atoms: N_5  and  C_6
REMARK    4  A    between atoms: N_5  and  C_7
REMARK    5  A    between atoms: C_7  and  C_8
REMARK    6  A    between atoms: C_15  and  S_16
REMARK    7  A    between atoms: S_16  and  C_17
REMARK    8  A    between atoms: C_17  and  C_18
REMARK                            x       y       z     vdW  Elec       q    Type
REMARK                         _______ _______ _______ _____ _____    ______ ____
ROOT
ATOM      1  C   UNL     1      -0.272   9.021  23.021  0.00  0.00    +0.000 C 
ATOM      2  C   UNL     1       0.271   9.262  21.644  0.00  0.00    +0.000 A 
ATOM      3  C   UNL     1       1.087   8.329  21.042  0.00  0.00    +0.000 A 
ATOM      4  C   UNL     1       1.535   8.575  19.754  0.00  0.00    +0.000 A 
ATOM      5  N   UNL     1       1.145   9.697  19.107  0.00  0.00    +0.000 NA
ATOM      6  C   UNL     1       0.371  10.580  19.778  0.00  0.00    +0.000 A 
ATOM      7  N   UNL     1      -0.087  10.401  21.027  0.00  0.00    +0.000 NA
ENDROOT
BRANCH   4   8
ATOM      8  N   UNL     1       2.375   7.657  19.136  0.00  0.00    +0.000 N 
ATOM      9  C   UNL     1       2.675   7.751  17.714  0.00  0.00    +0.000 C 
BRANCH   8  10
ATOM     10  C   UNL     1       2.895   6.501  19.865  0.00  0.00    +0.000 C 
BRANCH  10  11
ATOM     11  C   UNL     1       2.148   5.223  19.508  0.00  0.00    +0.000 A 
ATOM     12  C   UNL     1       2.246   4.683  18.216  0.00  0.00    +0.000 A 
ATOM     13  C   UNL     1       1.614   3.481  17.890  0.00  0.00    +0.000 A 
ATOM     14  C   UNL     1       0.878   2.794  18.851  0.00  0.00    +0.000 A 
ATOM     15  C   UNL     1       0.768   3.312  20.139  0.00  0.00    +0.000 A 
ATOM     16  C   UNL     1       1.396   4.521  20.466  0.00  0.00    +0.000 A 
ENDBRANCH  10  11
ENDBRANCH   8  10
ENDBRANCH   4   8
BRANCH   6  17
ATOM     17  S   UNL     1      -0.114  12.095  18.936  0.00  0.00    +0.000 S 
BRANCH  17  18
ATOM     18  C   UNL     1      -1.369  12.699  20.109  0.00  0.00    +0.000 C 
BRANCH  18  19
ATOM     19  C   UNL     1      -2.818  12.489  19.751  0.00  0.00    +0.000 A 
ATOM     20  N   UNL     1      -3.817  12.674  20.597  0.00  0.00    +0.000 NA
ATOM     21  C   UNL     1      -4.961  12.282  19.942  0.00  0.00    +0.000 A 
ATOM     22  C   UNL     1      -6.286  12.256  20.408  0.00  0.00    +0.000 A 
ATOM     23  C   UNL     1      -7.286  11.787  19.550  0.00  0.00    +0.000 A 
ATOM     24  C   UNL     1      -6.973  11.359  18.257  0.00  0.00    +0.000 A 
ATOM     25  C   UNL     1      -5.651  11.393  17.777  0.00  0.00    +0.000 A 
ATOM     26  C   UNL     1      -4.670  11.864  18.653  0.00  0.00    +0.000 A 
ATOM     27  N   UNL     1      -3.304  12.034  18.544  0.00  0.00    +0.000 N 
ATOM     28  H   UNL     1      -2.747  11.835  17.725  0.00  0.00    +0.000 HD
ENDBRANCH  18  19
ENDBRANCH  17  18
ENDBRANCH   6  17
TORSDOF 6
ENDMDL
MODEL 7
REMARK VINA RESULT:      -7.4      4.136      6.967
REMARK  Name = 
REMARK  8 active torsions:
REMARK  status: ('A' for Active; 'I' for Inactive)
REMARK    1  A    between atoms: C_1  and  C_2
REMARK    2  A    between atoms: C_4  and  N_5
REMARK    3  A    between atoms: N_5  and  C_6
REMARK    4  A    between atoms: N_5  and  C_7
REMARK    5  A    between atoms: C_7  and  C_8
REMARK    6  A    between atoms: C_15  and  S_16
REMARK    7  A    between atoms: S_16  and  C_17
REMARK    8  A    between atoms: C_17  and  C_18
REMARK                            x       y       z     vdW  Elec       q    Type
REMARK                         _______ _______ _______ _____ _____    ______ ____
ROOT
ATOM      1  C   UNL     1       1.382   3.835  17.371  0.00  0.00    +0.000 C 
ATOM      2  C   UNL     1       2.239   4.903  17.981  0.00  0.00    +0.000 A 
ATOM      3  C   UNL     1       1.688   6.109  18.359  0.00  0.00    +0.000 A 
ATOM      4  C   UNL     1       2.509   7.053  18.955  0.00  0.00    +0.000 A 
ATOM      5  N   UNL     1       3.812   6.769  19.179  0.00  0.00    +0.000 NA
ATOM      6  C   UNL     1       4.285   5.577  18.748  0.00  0.00    +0.000 A 
ATOM      7  N   UNL     1       3.541   4.627  18.159  0.00  0.00    +0.000 NA
ENDROOT
BRANCH   4   8
ATOM      8  N   UNL     1       1.979   8.283  19.325  0.00  0.00    +0.000 N 
ATOM      9  C   UNL     1       1.315   8.460  20.609  0.00  0.00    +0.000 C 
BRANCH   8  10
ATOM     10  C   UNL     1       1.967   9.410  18.394  0.00  0.00    +0.000 C 
BRANCH  10  11
ATOM     11  C   UNL     1       0.624  10.128  18.388  0.00  0.00    +0.000 A 
ATOM     12  C   UNL     1       0.505  11.410  18.946  0.00  0.00    +0.000 A 
ATOM     13  C   UNL     1      -0.706  12.106  18.897  0.00  0.00    +0.000 A 
ATOM     14  C   UNL     1      -1.817  11.534  18.283  0.00  0.00    +0.000 A 
ATOM     15  C   UNL     1      -1.719  10.262  17.723  0.00  0.00    +0.000 A 
ATOM     16  C   UNL     1      -0.508   9.561  17.777  0.00  0.00    +0.000 A 
ENDBRANCH  10  11
ENDBRANCH   8  10
ENDBRANCH   4   8
BRANCH   6  17
ATOM     17  S   UNL     1       6.029   5.213  19.005  0.00  0.00    +0.000 S 
BRANCH  17  18
ATOM     18  C   UNL     1       6.736   6.139  17.606  0.00  0.00    +0.000 C 
BRANCH  18  19
ATOM     19  C   UNL     1       6.725   5.476  16.253  0.00  0.00    +0.000 A 
ATOM     20  N   UNL     1       7.606   5.737  15.301  0.00  0.00    +0.000 NA
ATOM     21  C   UNL     1       7.207   5.024  14.194  0.00  0.00    +0.000 A 
ATOM     22  C   UNL     1       7.783   4.975  12.914  0.00  0.00    +0.000 A 
ATOM     23  C   UNL     1       7.172   4.185  11.936  0.00  0.00    +0.000 A 
ATOM     24  C   UNL     1       6.015   3.458  12.228  0.00  0.00    +0.000 A 
ATOM     25  C   UNL     1       5.437   3.490  13.510  0.00  0.00    +0.000 A 
ATOM     26  C   UNL     1       6.065   4.288  14.469  0.00  0.00    +0.000 A 
ATOM     27  N   UNL     1       5.796   4.568  15.795  0.00  0.00    +0.000 N 
ATOM     28  H   UNL     1       5.030   4.189  16.334  0.00  0.00    +0.000 HD
ENDBRANCH  18  19
ENDBRANCH  17  18
ENDBRANCH   6  17
TORSDOF 6
ENDMDL
MODEL 8
REMARK VINA RESULT:      -7.4      6.544     10.403
REMARK  Name = 
REMARK  8 active torsions:
REMARK  status: ('A' for Active; 'I' for Inactive)
REMARK    1  A    between atoms: C_1  and  C_2
REMARK    2  A    between atoms: C_4  and  N_5
REMARK    3  A    between atoms: N_5  and  C_6
REMARK    4  A    between atoms: N_5  and  C_7
REMARK    5  A    between atoms: C_7  and  C_8
REMARK    6  A    between atoms: C_15  and  S_16
REMARK    7  A    between atoms: S_16  and  C_17
REMARK    8  A    between atoms: C_17  and  C_18
REMARK                            x       y       z     vdW  Elec       q    Type
REMARK                         _______ _______ _______ _____ _____    ______ ____
ROOT
ATOM      1  C   UNL     1      -0.145   9.541  23.254  0.00  0.00    +0.000 C 
ATOM      2  C   UNL     1       0.311   9.680  21.832  0.00  0.00    +0.000 A 
ATOM      3  C   UNL     1       1.021   8.667  21.224  0.00  0.00    +0.000 A 
ATOM      4  C   UNL     1       1.389   8.821  19.897  0.00  0.00    +0.000 A 
ATOM      5  N   UNL     1       1.024   9.934  19.221  0.00  0.00    +0.000 NA
ATOM      6  C   UNL     1       0.359  10.898  19.897  0.00  0.00    +0.000 A 
ATOM      7  N   UNL     1      -0.018  10.809  21.183  0.00  0.00    +0.000 NA
ENDROOT
BRANCH   4   8
ATOM      8  N   UNL     1       2.122   7.821  19.271  0.00  0.00    +0.000 N 
ATOM      9  C   UNL     1       2.637   8.000  17.920  0.00  0.00    +0.000 C 
BRANCH   8  10
ATOM     10  C   UNL     1       2.305   6.514  19.900  0.00  0.00    +0.000 C 
BRANCH  10  11
ATOM     11  C   UNL     1       2.830   5.478  18.914  0.00  0.00    +0.000 A 
ATOM     12  C   UNL     1       4.212   5.277  18.769  0.00  0.00    +0.000 A 
ATOM     13  C   UNL     1       4.708   4.291  17.913  0.00  0.00    +0.000 A 
ATOM     14  C   UNL     1       3.832   3.485  17.191  0.00  0.00    +0.000 A 
ATOM     15  C   UNL     1       2.457   3.669  17.321  0.00  0.00    +0.000 A 
ATOM     16  C   UNL     1       1.958   4.661  18.175  0.00  0.00    +0.000 A 
ENDBRANCH  10  11
ENDBRANCH   8  10
ENDBRANCH   4   8
BRANCH   6  17
ATOM     17  S   UNL     1      -0.090  12.401  19.013  0.00  0.00    +0.000 S 
BRANCH  17  18
ATOM     18  C   UNL     1      -1.406  13.011  20.112  0.00  0.00    +0.000 C 
BRANCH  18  19
ATOM     19  C   UNL     1      -2.829  12.662  19.758  0.00  0.00    +0.000 A 
ATOM     20  N   UNL     1      -3.848  12.809  20.588  0.00  0.00    +0.000 NA
ATOM     21  C   UNL     1      -4.950  12.288  19.949  0.00  0.00    +0.000 A 
ATOM     22  C   UNL     1      -6.272  12.176  20.409  0.00  0.00    +0.000 A 
ATOM     23  C   UNL     1      -7.222  11.580  19.573  0.00  0.00    +0.000 A 
ATOM     24  C   UNL     1      -6.861  11.110  18.307  0.00  0.00    +0.000 A 
ATOM     25  C   UNL     1      -5.542  11.229  17.832  0.00  0.00    +0.000 A 
ATOM     26  C   UNL     1      -4.612  11.827  18.687  0.00  0.00    +0.000 A 
ATOM     27  N   UNL     1      -3.264  12.103  18.576  0.00  0.00    +0.000 N 
ATOM     28  H   UNL     1      -2.685  11.908  17.772  0.00  0.00    +0.000 HD
ENDBRANCH  18  19
ENDBRANCH  17  18
ENDBRANCH   6  17
TORSDOF 6
ENDMDL
MODEL 9
REMARK VINA RESULT:      -7.3      6.477     10.281
REMARK  Name = 
REMARK  8 active torsions:
REMARK  status: ('A' for Active; 'I' for Inactive)
REMARK    1  A    between atoms: C_1  and  C_2
REMARK    2  A    between atoms: C_4  and  N_5
REMARK    3  A    between atoms: N_5  and  C_6
REMARK    4  A    between atoms: N_5  and  C_7
REMARK    5  A    between atoms: C_7  and  C_8
REMARK    6  A    between atoms: C_15  and  S_16
REMARK    7  A    between atoms: S_16  and  C_17
REMARK    8  A    between atoms: C_17  and  C_18
REMARK                            x       y       z     vdW  Elec       q    Type
REMARK                         _______ _______ _______ _____ _____    ______ ____
ROOT
ATOM      1  C   UNL     1      -0.196   8.979  22.886  0.00  0.00    +0.000 C 
ATOM      2  C   UNL     1       0.345   9.180  21.502  0.00  0.00    +0.000 A 
ATOM      3  C   UNL     1       1.212   8.262  20.951  0.00  0.00    +0.000 A 
ATOM      4  C   UNL     1       1.657   8.467  19.654  0.00  0.00    +0.000 A 
ATOM      5  N   UNL     1       1.217   9.535  18.952  0.00  0.00    +0.000 NA
ATOM      6  C   UNL     1       0.395  10.410  19.575  0.00  0.00    +0.000 A 
ATOM      7  N   UNL     1      -0.064  10.268  20.829  0.00  0.00    +0.000 NA
ENDROOT
BRANCH   4   8
ATOM      8  N   UNL     1       2.547   7.564  19.086  0.00  0.00    +0.000 N 
ATOM      9  C   UNL     1       2.971   7.697  17.699  0.00  0.00    +0.000 C 
BRANCH   8  10
ATOM     10  C   UNL     1       3.000   6.386  19.825  0.00  0.00    +0.000 C 
BRANCH  10  11
ATOM     11  C   UNL     1       2.167   5.154  19.493  0.00  0.00    +0.000 A 
ATOM     12  C   UNL     1       2.218   4.592  18.208  0.00  0.00    +0.000 A 
ATOM     13  C   UNL     1       1.506   3.429  17.905  0.00  0.00    +0.000 A 
ATOM     14  C   UNL     1       0.736   2.804  18.882  0.00  0.00    +0.000 A 
ATOM     15  C   UNL     1       0.673   3.347  20.164  0.00  0.00    +0.000 A 
ATOM     16  C   UNL     1       1.382   4.516  20.468  0.00  0.00    +0.000 A 
ENDBRANCH  10  11
ENDBRANCH   8  10
ENDBRANCH   4   8
BRANCH   6  17
ATOM     17  S   UNL     1      -0.158  11.857  18.657  0.00  0.00    +0.000 S 
BRANCH  17  18
ATOM     18  C   UNL     1      -1.328  12.548  19.869  0.00  0.00    +0.000 C 
BRANCH  18  19
ATOM     19  C   UNL     1      -2.797  12.291  19.647  0.00  0.00    +0.000 A 
ATOM     20  N   UNL     1      -3.282  11.691  18.574  0.00  0.00    +0.000 NA
ATOM     21  C   UNL     1      -4.653  11.738  18.687  0.00  0.00    +0.000 A 
ATOM     22  C   UNL     1      -5.634  11.265  17.799  0.00  0.00    +0.000 A 
ATOM     23  C   UNL     1      -6.979  11.454  18.129  0.00  0.00    +0.000 A 
ATOM     24  C   UNL     1      -7.338  12.096  19.317  0.00  0.00    +0.000 A 
ATOM     25  C   UNL     1      -6.364  12.562  20.219  0.00  0.00    +0.000 A 
ATOM     26  C   UNL     1      -5.027  12.363  19.865  0.00  0.00    +0.000 A 
ATOM     27  N   UNL     1      -3.828  12.678  20.475  0.00  0.00    +0.000 N 
ATOM     28  H   UNL     1      -3.722  13.138  21.368  0.00  0.00    +0.000 HD
ENDBRANCH  18  19
ENDBRANCH  17  18
ENDBRANCH   6  17
TORSDOF 6
ENDMDL
