MODEL 1
REMARK VINA RESULT:      -8.2      0.000      0.000
REMARK  Name = 
REMARK  6 active torsions:
REMARK  status: ('A' for Active; 'I' for Inactive)
REMARK    1  A    between atoms: C_1  and  N_2
REMARK    2  A    between atoms: N_2  and  C_3
REMARK    3  A    between atoms: C_3  and  C_4
REMARK    4  A    between atoms: C_12  and  C_13
REMARK    5  A    between atoms: C_21  and  N_22
REMARK    6  A    between atoms: N_23  and  C_24
REMARK                            x       y       z     vdW  Elec       q    Type
REMARK                         _______ _______ _______ _____ _____    ______ ____
ROOT
ATOM      1  C   UNL     1       5.667   6.983  15.158  0.00  0.00    +0.000 C 
ATOM      2  N   UNL     1       5.250   6.039  16.183  0.00  0.00    +0.000 N 
ATOM      3  C   UNL     1       4.239   6.497  17.040  0.00  0.00    +0.000 A 
ATOM      4  N   UNL     1       3.832   5.613  18.000  0.00  0.00    +0.000 NA
ATOM      5  C   UNL     1       2.893   5.943  18.935  0.00  0.00    +0.000 A 
ATOM      6  C   UNL     1       2.433   7.252  18.819  0.00  0.00    +0.000 A 
ATOM      7  C   UNL     1       1.563   7.968  19.609  0.00  0.00    +0.000 A 
ATOM      8  N   UNL     1       1.395   9.190  18.940  0.00  0.00    +0.000 N 
ATOM      9  N   UNL     1       2.114   9.246  17.781  0.00  0.00    +0.000 NA
ATOM     10  C   UNL     1       2.818   8.111  17.771  0.00  0.00    +0.000 A 
ATOM     11  N   UNL     1       3.746   7.751  16.854  0.00  0.00    +0.000 NA
ENDROOT
BRANCH   5  12
ATOM     12  C   UNL     1       2.385   4.879  19.797  0.00  0.00    +0.000 A 
ATOM     13  C   UNL     1       1.300   4.082  19.395  0.00  0.00    +0.000 A 
ATOM     14  C   UNL     1       0.786   3.089  20.235  0.00  0.00    +0.000 A 
ATOM     15  C   UNL     1       1.361   2.878  21.482  0.00  0.00    +0.000 A 
ATOM     16  F   UNL     1       0.874   1.923  22.284  0.00  0.00    +0.000 F 
ATOM     17  C   UNL     1       2.423   3.655  21.916  0.00  0.00    +0.000 A 
ATOM     18  C   UNL     1       2.904   4.670  21.091  0.00  0.00    +0.000 A 
ENDBRANCH   5  12
BRANCH   8  19
ATOM     19  C   UNL     1       0.598  10.312  19.346  0.00  0.00    +0.000 A 
ATOM     20  C   UNL     1       1.074  11.230  20.295  0.00  0.00    +0.000 A 
ATOM     21  C   UNL     1       0.286  12.307  20.708  0.00  0.00    +0.000 A 
ATOM     22  C   UNL     1      -0.978  12.484  20.160  0.00  0.00    +0.000 A 
ATOM     23 CL   UNL     1      -1.934  13.827  20.652  0.00  0.00    +0.000 Cl
ATOM     24  C   UNL     1      -1.462  11.591  19.204  0.00  0.00    +0.000 A 
ATOM     25  C   UNL     1      -0.674  10.510  18.788  0.00  0.00    +0.000 A 
ENDBRANCH   8  19
BRANCH   7  26
ATOM     26  N   UNL     1       0.942   7.654  20.781  0.00  0.00    +0.000 N 
ATOM     27  H   UNL     1       1.324   6.949  21.409  0.00  0.00    +0.000 HD
ATOM     28  H   UNL     1      -0.072   7.722  20.858  0.00  0.00    +0.000 HD
ENDBRANCH   7  26
BRANCH   2  29
ATOM     29  C   UNL     1       5.093   4.642  15.761  0.00  0.00    +0.000 C 
BRANCH  29  30
ATOM     30  C   UNL     1       5.746   4.326  14.428  0.00  0.00    +0.000 A 
ATOM     31  C   UNL     1       5.007   3.649  13.442  0.00  0.00    +0.000 A 
ATOM     32  C   UNL     1       5.562   3.370  12.191  0.00  0.00    +0.000 A 
ATOM     33  C   UNL     1       6.861   3.777  11.899  0.00  0.00    +0.000 A 
ATOM     34  C   UNL     1       7.597   4.478  12.852  0.00  0.00    +0.000 A 
ATOM     35  C   UNL     1       7.040   4.759  14.105  0.00  0.00    +0.000 A 
ENDBRANCH  29  30
ENDBRANCH   2  29
TORSDOF 5
ENDMDL
MODEL 2
REMARK VINA RESULT:      -8.2      0.073      1.188
REMARK  Name = 
REMARK  6 active torsions:
REMARK  status: ('A' for Active; 'I' for Inactive)
REMARK    1  A    between atoms: C_1  and  N_2
REMARK    2  A    between atoms: N_2  and  C_3
REMARK    3  A    between atoms: C_3  and  C_4
REMARK    4  A    between atoms: C_12  and  C_13
REMARK    5  A    between atoms: C_21  and  N_22
REMARK    6  A    between atoms: N_23  and  C_24
REMARK                            x       y       z     vdW  Elec       q    Type
REMARK                         _______ _______ _______ _____ _____    ______ ____
ROOT
ATOM      1  C   UNL     1       5.669   6.988  15.201  0.00  0.00    +0.000 C 
ATOM      2  N   UNL     1       5.234   6.050  16.223  0.00  0.00    +0.000 N 
ATOM      3  C   UNL     1       4.222   6.519  17.072  0.00  0.00    +0.000 A 
ATOM      4  N   UNL     1       3.798   5.641  18.031  0.00  0.00    +0.000 NA
ATOM      5  C   UNL     1       2.857   5.981  18.958  0.00  0.00    +0.000 A 
ATOM      6  C   UNL     1       2.412   7.295  18.838  0.00  0.00    +0.000 A 
ATOM      7  C   UNL     1       1.543   8.022  19.621  0.00  0.00    +0.000 A 
ATOM      8  N   UNL     1       1.393   9.244  18.950  0.00  0.00    +0.000 N 
ATOM      9  N   UNL     1       2.122   9.292  17.796  0.00  0.00    +0.000 NA
ATOM     10  C   UNL     1       2.813   8.149  17.792  0.00  0.00    +0.000 A 
ATOM     11  N   UNL     1       3.744   7.779  16.882  0.00  0.00    +0.000 NA
ENDROOT
BRANCH   5  12
ATOM     12  C   UNL     1       2.331   4.924  19.817  0.00  0.00    +0.000 A 
ATOM     13  C   UNL     1       2.839   4.730  21.113  0.00  0.00    +0.000 A 
ATOM     14  C   UNL     1       2.364   3.693  21.924  0.00  0.00    +0.000 A 
ATOM     15  C   UNL     1       1.369   2.848  21.448  0.00  0.00    +0.000 A 
ATOM     16  F   UNL     1       0.909   1.860  22.226  0.00  0.00    +0.000 F 
ATOM     17  C   UNL     1       0.856   3.003  20.171  0.00  0.00    +0.000 A 
ATOM     18  C   UNL     1       1.361   4.012  19.353  0.00  0.00    +0.000 A 
ENDBRANCH   5  12
BRANCH   8  19
ATOM     19  C   UNL     1       0.606  10.376  19.349  0.00  0.00    +0.000 A 
ATOM     20  C   UNL     1       1.099  11.308  20.277  0.00  0.00    +0.000 A 
ATOM     21  C   UNL     1       0.320  12.393  20.683  0.00  0.00    +0.000 A 
ATOM     22  C   UNL     1      -0.951  12.566  20.151  0.00  0.00    +0.000 A 
ATOM     23 CL   UNL     1      -1.896  13.920  20.635  0.00  0.00    +0.000 Cl
ATOM     24  C   UNL     1      -1.452  11.659  19.216  0.00  0.00    +0.000 A 
ATOM     25  C   UNL     1      -0.673  10.569  18.806  0.00  0.00    +0.000 A 
ENDBRANCH   8  19
BRANCH   7  26
ATOM     26  N   UNL     1       0.911   7.715  20.789  0.00  0.00    +0.000 N 
ATOM     27  H   UNL     1       0.004   7.252  20.794  0.00  0.00    +0.000 HD
ATOM     28  H   UNL     1       1.041   8.304  21.611  0.00  0.00    +0.000 HD
ENDBRANCH   7  26
BRANCH   2  29
ATOM     29  C   UNL     1       5.065   4.654  15.802  0.00  0.00    +0.000 C 
BRANCH  29  30
ATOM     30  C   UNL     1       5.647   4.352  14.432  0.00  0.00    +0.000 A 
ATOM     31  C   UNL     1       6.974   4.722  14.151  0.00  0.00    +0.000 A 
ATOM     32  C   UNL     1       7.555   4.431  12.915  0.00  0.00    +0.000 A 
ATOM     33  C   UNL     1       6.825   3.751  11.945  0.00  0.00    +0.000 A 
ATOM     34  C   UNL     1       5.519   3.347  12.218  0.00  0.00    +0.000 A 
ATOM     35  C   UNL     1       4.937   3.638  13.456  0.00  0.00    +0.000 A 
ENDBRANCH  29  30
ENDBRANCH   2  29
TORSDOF 5
ENDMDL
MODEL 3
REMARK VINA RESULT:      -8.1      0.116      1.191
REMARK  Name = 
REMARK  6 active torsions:
REMARK  status: ('A' for Active; 'I' for Inactive)
REMARK    1  A    between atoms: C_1  and  N_2
REMARK    2  A    between atoms: N_2  and  C_3
REMARK    3  A    between atoms: C_3  and  C_4
REMARK    4  A    between atoms: C_12  and  C_13
REMARK    5  A    between atoms: C_21  and  N_22
REMARK    6  A    between atoms: N_23  and  C_24
REMARK                            x       y       z     vdW  Elec       q    Type
REMARK                         _______ _______ _______ _____ _____    ______ ____
ROOT
ATOM      1  C   UNL     1       5.745   6.935  15.226  0.00  0.00    +0.000 C 
ATOM      2  N   UNL     1       5.293   6.006  16.248  0.00  0.00    +0.000 N 
ATOM      3  C   UNL     1       4.272   6.486  17.081  0.00  0.00    +0.000 A 
ATOM      4  N   UNL     1       3.833   5.616  18.041  0.00  0.00    +0.000 NA
ATOM      5  C   UNL     1       2.881   5.967  18.953  0.00  0.00    +0.000 A 
ATOM      6  C   UNL     1       2.444   7.282  18.819  0.00  0.00    +0.000 A 
ATOM      7  C   UNL     1       1.569   8.018  19.586  0.00  0.00    +0.000 A 
ATOM      8  N   UNL     1       1.434   9.237  18.905  0.00  0.00    +0.000 N 
ATOM      9  N   UNL     1       2.177   9.273  17.760  0.00  0.00    +0.000 NA
ATOM     10  C   UNL     1       2.863   8.127  17.772  0.00  0.00    +0.000 A 
ATOM     11  N   UNL     1       3.803   7.746  16.877  0.00  0.00    +0.000 NA
ENDROOT
BRANCH   5  12
ATOM     12  C   UNL     1       2.339   4.918  19.813  0.00  0.00    +0.000 A 
ATOM     13  C   UNL     1       2.848   4.714  21.107  0.00  0.00    +0.000 A 
ATOM     14  C   UNL     1       2.358   3.685  21.919  0.00  0.00    +0.000 A 
ATOM     15  C   UNL     1       1.347   2.858  21.445  0.00  0.00    +0.000 A 
ATOM     16  F   UNL     1       0.872   1.877  22.223  0.00  0.00    +0.000 F 
ATOM     17  C   UNL     1       0.832   3.023  20.170  0.00  0.00    +0.000 A 
ATOM     18  C   UNL     1       1.353   4.024  19.351  0.00  0.00    +0.000 A 
ENDBRANCH   5  12
BRANCH   8  19
ATOM     19  C   UNL     1       0.647  10.375  19.287  0.00  0.00    +0.000 A 
ATOM     20  C   UNL     1      -0.565  10.665  18.639  0.00  0.00    +0.000 A 
ATOM     21  C   UNL     1      -1.316  11.787  18.995  0.00  0.00    +0.000 A 
ATOM     22  C   UNL     1      -0.870  12.618  20.015  0.00  0.00    +0.000 A 
ATOM     23 CL   UNL     1      -1.812  13.984  20.468  0.00  0.00    +0.000 Cl
ATOM     24  C   UNL     1       0.324  12.338  20.681  0.00  0.00    +0.000 A 
ATOM     25  C   UNL     1       1.079  11.212  20.326  0.00  0.00    +0.000 A 
ENDBRANCH   8  19
BRANCH   7  26
ATOM     26  N   UNL     1       0.921   7.723  20.748  0.00  0.00    +0.000 N 
ATOM     27  H   UNL     1       1.243   6.974  21.358  0.00  0.00    +0.000 HD
ATOM     28  H   UNL     1      -0.085   7.868  20.824  0.00  0.00    +0.000 HD
ENDBRANCH   7  26
BRANCH   2  29
ATOM     29  C   UNL     1       5.122   4.608  15.834  0.00  0.00    +0.000 C 
BRANCH  29  30
ATOM     30  C   UNL     1       5.736   4.289  14.482  0.00  0.00    +0.000 A 
ATOM     31  C   UNL     1       4.953   3.650  13.505  0.00  0.00    +0.000 A 
ATOM     32  C   UNL     1       5.471   3.369  12.239  0.00  0.00    +0.000 A 
ATOM     33  C   UNL     1       6.776   3.738  11.923  0.00  0.00    +0.000 A 
ATOM     34  C   UNL     1       7.555   4.403  12.868  0.00  0.00    +0.000 A 
ATOM     35  C   UNL     1       7.036   4.684  14.136  0.00  0.00    +0.000 A 
ENDBRANCH  29  30
ENDBRANCH   2  29
TORSDOF 5
ENDMDL
MODEL 4
REMARK VINA RESULT:      -7.5      8.020      9.407
REMARK  Name = 
REMARK  6 active torsions:
REMARK  status: ('A' for Active; 'I' for Inactive)
REMARK    1  A    between atoms: C_1  and  N_2
REMARK    2  A    between atoms: N_2  and  C_3
REMARK    3  A    between atoms: C_3  and  C_4
REMARK    4  A    between atoms: C_12  and  C_13
REMARK    5  A    between atoms: C_21  and  N_22
REMARK    6  A    between atoms: N_23  and  C_24
REMARK                            x       y       z     vdW  Elec       q    Type
REMARK                         _______ _______ _______ _____ _____    ______ ____
ROOT
ATOM      1  C   UNL     1      10.606  15.495  17.381  0.00  0.00    +0.000 C 
ATOM      2  N   UNL     1      10.515  15.027  18.755  0.00  0.00    +0.000 N 
ATOM      3  C   UNL     1       9.215  14.956  19.276  0.00  0.00    +0.000 A 
ATOM      4  N   UNL     1       9.117  14.508  20.564  0.00  0.00    +0.000 NA
ATOM      5  C   UNL     1       7.920  14.436  21.216  0.00  0.00    +0.000 A 
ATOM      6  C   UNL     1       6.847  14.887  20.452  0.00  0.00    +0.000 A 
ATOM      7  C   UNL     1       5.519  15.044  20.778  0.00  0.00    +0.000 A 
ATOM      8  N   UNL     1       4.897  15.424  19.579  0.00  0.00    +0.000 N 
ATOM      9  N   UNL     1       5.781  15.497  18.541  0.00  0.00    +0.000 NA
ATOM     10  C   UNL     1       6.972  15.270  19.102  0.00  0.00    +0.000 A 
ATOM     11  N   UNL     1       8.173  15.323  18.481  0.00  0.00    +0.000 NA
ENDROOT
BRANCH   5  12
ATOM     12  C   UNL     1       7.888  13.769  22.515  0.00  0.00    +0.000 A 
ATOM     13  C   UNL     1       7.550  12.409  22.618  0.00  0.00    +0.000 A 
ATOM     14  C   UNL     1       7.480  11.778  23.864  0.00  0.00    +0.000 A 
ATOM     15  C   UNL     1       7.758  12.500  25.018  0.00  0.00    +0.000 A 
ATOM     16  F   UNL     1       7.698  11.896  26.210  0.00  0.00    +0.000 F 
ATOM     17  C   UNL     1       8.081  13.846  24.953  0.00  0.00    +0.000 A 
ATOM     18  C   UNL     1       8.109  14.480  23.712  0.00  0.00    +0.000 A 
ENDBRANCH   5  12
BRANCH   8  19
ATOM     19  C   UNL     1       3.512  15.733  19.366  0.00  0.00    +0.000 A 
ATOM     20  C   UNL     1       3.061  17.063  19.365  0.00  0.00    +0.000 A 
ATOM     21  C   UNL     1       1.708  17.359  19.184  0.00  0.00    +0.000 A 
ATOM     22  C   UNL     1       0.799  16.329  18.983  0.00  0.00    +0.000 A 
ATOM     23 CL   UNL     1      -0.862  16.701  18.732  0.00  0.00    +0.000 Cl
ATOM     24  C   UNL     1       1.231  15.002  18.964  0.00  0.00    +0.000 A 
ATOM     25  C   UNL     1       2.587  14.701  19.146  0.00  0.00    +0.000 A 
ENDBRANCH   8  19
BRANCH   7  26
ATOM     26  N   UNL     1       4.855  14.886  21.959  0.00  0.00    +0.000 N 
ATOM     27  H   UNL     1       4.807  13.979  22.420  0.00  0.00    +0.000 HD
ATOM     28  H   UNL     1       4.044  15.464  22.171  0.00  0.00    +0.000 HD
ENDBRANCH   7  26
BRANCH   2  29
ATOM     29  C   UNL     1      11.370  13.892  19.119  0.00  0.00    +0.000 C 
BRANCH  29  30
ATOM     30  C   UNL     1      10.652  12.554  19.106  0.00  0.00    +0.000 A 
ATOM     31  C   UNL     1      10.541  11.820  20.300  0.00  0.00    +0.000 A 
ATOM     32  C   UNL     1       9.859  10.602  20.335  0.00  0.00    +0.000 A 
ATOM     33  C   UNL     1       9.262  10.104  19.180  0.00  0.00    +0.000 A 
ATOM     34  C   UNL     1       9.334  10.834  17.995  0.00  0.00    +0.000 A 
ATOM     35  C   UNL     1      10.016  12.054  17.960  0.00  0.00    +0.000 A 
ENDBRANCH  29  30
ENDBRANCH   2  29
TORSDOF 5
ENDMDL
MODEL 5
REMARK VINA RESULT:      -7.3      4.483      7.692
REMARK  Name = 
REMARK  6 active torsions:
REMARK  status: ('A' for Active; 'I' for Inactive)
REMARK    1  A    between atoms: C_1  and  N_2
REMARK    2  A    between atoms: N_2  and  C_3
REMARK    3  A    between atoms: C_3  and  C_4
REMARK    4  A    between atoms: C_12  and  C_13
REMARK    5  A    between atoms: C_21  and  N_22
REMARK    6  A    between atoms: N_23  and  C_24
REMARK                            x       y       z     vdW  Elec       q    Type
REMARK                         _______ _______ _______ _____ _____    ______ ____
ROOT
ATOM      1  C   UNL     1       1.900   8.976  22.470  0.00  0.00    +0.000 C 
ATOM      2  N   UNL     1       1.120   8.892  21.246  0.00  0.00    +0.000 N 
ATOM      3  C   UNL     1       0.184   9.920  21.064  0.00  0.00    +0.000 A 
ATOM      4  N   UNL     1      -0.549   9.857  19.911  0.00  0.00    +0.000 NA
ATOM      5  C   UNL     1      -1.531  10.761  19.628  0.00  0.00    +0.000 A 
ATOM      6  C   UNL     1      -1.716  11.709  20.630  0.00  0.00    +0.000 A 
ATOM      7  C   UNL     1      -2.646  12.717  20.749  0.00  0.00    +0.000 A 
ATOM      8  N   UNL     1      -2.273  13.413  21.908  0.00  0.00    +0.000 N 
ATOM      9  N   UNL     1      -1.160  12.882  22.494  0.00  0.00    +0.000 NA
ATOM     10  C   UNL     1      -0.893  11.792  21.771  0.00  0.00    +0.000 A 
ATOM     11  N   UNL     1       0.079  10.883  22.019  0.00  0.00    +0.000 NA
ENDROOT
BRANCH   5  12
ATOM     12  C   UNL     1      -2.126  10.728  18.294  0.00  0.00    +0.000 A 
ATOM     13  C   UNL     1      -2.954   9.662  17.901  0.00  0.00    +0.000 A 
ATOM     14  C   UNL     1      -3.493   9.608  16.612  0.00  0.00    +0.000 A 
ATOM     15  C   UNL     1      -3.218  10.626  15.708  0.00  0.00    +0.000 A 
ATOM     16  F   UNL     1      -3.739  10.579  14.476  0.00  0.00    +0.000 F 
ATOM     17  C   UNL     1      -2.395  11.684  16.058  0.00  0.00    +0.000 A 
ATOM     18  C   UNL     1      -1.827  11.711  17.330  0.00  0.00    +0.000 A 
ENDBRANCH   5  12
BRANCH   8  19
ATOM     19  C   UNL     1      -2.923  14.549  22.499  0.00  0.00    +0.000 A 
ATOM     20  C   UNL     1      -2.610  15.854  22.088  0.00  0.00    +0.000 A 
ATOM     21  C   UNL     1      -3.224  16.959  22.683  0.00  0.00    +0.000 A 
ATOM     22  C   UNL     1      -4.171  16.765  23.680  0.00  0.00    +0.000 A 
ATOM     23 CL   UNL     1      -4.944  18.127  24.391  0.00  0.00    +0.000 Cl
ATOM     24  C   UNL     1      -4.506  15.474  24.091  0.00  0.00    +0.000 A 
ATOM     25  C   UNL     1      -3.892  14.365  23.496  0.00  0.00    +0.000 A 
ENDBRANCH   8  19
BRANCH   7  26
ATOM     26  N   UNL     1      -3.714  13.055  19.972  0.00  0.00    +0.000 N 
ATOM     27  H   UNL     1      -3.592  13.556  19.094  0.00  0.00    +0.000 HD
ATOM     28  H   UNL     1      -4.616  13.255  20.402  0.00  0.00    +0.000 HD
ENDBRANCH   7  26
BRANCH   2  29
ATOM     29  C   UNL     1       1.849   8.522  20.028  0.00  0.00    +0.000 C 
BRANCH  29  30
ATOM     30  C   UNL     1       1.910   7.025  19.779  0.00  0.00    +0.000 A 
ATOM     31  C   UNL     1       2.418   6.550  18.557  0.00  0.00    +0.000 A 
ATOM     32  C   UNL     1       2.520   5.180  18.305  0.00  0.00    +0.000 A 
ATOM     33  C   UNL     1       2.132   4.262  19.276  0.00  0.00    +0.000 A 
ATOM     34  C   UNL     1       1.656   4.715  20.506  0.00  0.00    +0.000 A 
ATOM     35  C   UNL     1       1.554   6.087  20.758  0.00  0.00    +0.000 A 
ENDBRANCH  29  30
ENDBRANCH   2  29
TORSDOF 5
ENDMDL
MODEL 6
REMARK VINA RESULT:      -7.3      4.820      8.412
REMARK  Name = 
REMARK  6 active torsions:
REMARK  status: ('A' for Active; 'I' for Inactive)
REMARK    1  A    between atoms: C_1  and  N_2
REMARK    2  A    between atoms: N_2  and  C_3
REMARK    3  A    between atoms: C_3  and  C_4
REMARK    4  A    between atoms: C_12  and  C_13
REMARK    5  A    between atoms: C_21  and  N_22
REMARK    6  A    between atoms: N_23  and  C_24
REMARK                            x       y       z     vdW  Elec       q    Type
REMARK                         _______ _______ _______ _____ _____    ______ ____
ROOT
ATOM      1  C   UNL     1      -0.550   8.166  21.754  0.00  0.00    +0.000 C 
ATOM      2  N   UNL     1       0.344   9.053  21.028  0.00  0.00    +0.000 N 
ATOM      3  C   UNL     1       0.184  10.418  21.303  0.00  0.00    +0.000 A 
ATOM      4  N   UNL     1       1.028  11.261  20.633  0.00  0.00    +0.000 NA
ATOM      5  C   UNL     1       0.950  12.616  20.764  0.00  0.00    +0.000 A 
ATOM      6  C   UNL     1      -0.076  13.033  21.609  0.00  0.00    +0.000 A 
ATOM      7  C   UNL     1      -0.517  14.297  21.926  0.00  0.00    +0.000 A 
ATOM      8  N   UNL     1      -1.500  14.099  22.907  0.00  0.00    +0.000 N 
ATOM      9  N   UNL     1      -1.670  12.777  23.206  0.00  0.00    +0.000 NA
ATOM     10  C   UNL     1      -0.878  12.137  22.343  0.00  0.00    +0.000 A 
ATOM     11  N   UNL     1      -0.770  10.795  22.197  0.00  0.00    +0.000 NA
ENDROOT
BRANCH   5  12
ATOM     12  C   UNL     1       2.009  13.423  20.163  0.00  0.00    +0.000 A 
ATOM     13  C   UNL     1       2.044  13.648  18.776  0.00  0.00    +0.000 A 
ATOM     14  C   UNL     1       3.079  14.387  18.193  0.00  0.00    +0.000 A 
ATOM     15  C   UNL     1       4.082  14.916  18.995  0.00  0.00    +0.000 A 
ATOM     16  F   UNL     1       5.069  15.629  18.439  0.00  0.00    +0.000 F 
ATOM     17  C   UNL     1       4.086  14.702  20.363  0.00  0.00    +0.000 A 
ATOM     18  C   UNL     1       3.074  13.931  20.934  0.00  0.00    +0.000 A 
ENDBRANCH   5  12
BRANCH   8  19
ATOM     19  C   UNL     1      -2.295  15.093  23.569  0.00  0.00    +0.000 A 
ATOM     20  C   UNL     1      -1.809  15.772  24.699  0.00  0.00    +0.000 A 
ATOM     21  C   UNL     1      -2.596  16.720  25.356  0.00  0.00    +0.000 A 
ATOM     22  C   UNL     1      -3.867  17.011  24.879  0.00  0.00    +0.000 A 
ATOM     23 CL   UNL     1      -4.821  18.199  25.676  0.00  0.00    +0.000 Cl
ATOM     24  C   UNL     1      -4.361  16.358  23.748  0.00  0.00    +0.000 A 
ATOM     25  C   UNL     1      -3.574  15.406  23.086  0.00  0.00    +0.000 A 
ENDBRANCH   8  19
BRANCH   7  26
ATOM     26  N   UNL     1      -0.147  15.525  21.461  0.00  0.00    +0.000 N 
ATOM     27  H   UNL     1      -0.302  15.791  20.490  0.00  0.00    +0.000 HD
ATOM     28  H   UNL     1       0.659  16.002  21.862  0.00  0.00    +0.000 HD
ENDBRANCH   7  26
BRANCH   2  29
ATOM     29  C   UNL     1       1.743   8.624  20.916  0.00  0.00    +0.000 C 
BRANCH  29  30
ATOM     30  C   UNL     1       1.939   7.384  20.060  0.00  0.00    +0.000 A 
ATOM     31  C   UNL     1       2.352   7.529  18.724  0.00  0.00    +0.000 A 
ATOM     32  C   UNL     1       2.575   6.413  17.915  0.00  0.00    +0.000 A 
ATOM     33  C   UNL     1       2.403   5.132  18.433  0.00  0.00    +0.000 A 
ATOM     34  C   UNL     1       2.026   4.969  19.765  0.00  0.00    +0.000 A 
ATOM     35  C   UNL     1       1.804   6.087  20.575  0.00  0.00    +0.000 A 
ENDBRANCH  29  30
ENDBRANCH   2  29
TORSDOF 5
ENDMDL
MODEL 7
REMARK VINA RESULT:      -7.2      5.538     11.910
REMARK  Name = 
REMARK  6 active torsions:
REMARK  status: ('A' for Active; 'I' for Inactive)
REMARK    1  A    between atoms: C_1  and  N_2
REMARK    2  A    between atoms: N_2  and  C_3
REMARK    3  A    between atoms: C_3  and  C_4
REMARK    4  A    between atoms: C_12  and  C_13
REMARK    5  A    between atoms: C_21  and  N_22
REMARK    6  A    between atoms: N_23  and  C_24
REMARK                            x       y       z     vdW  Elec       q    Type
REMARK                         _______ _______ _______ _____ _____    ______ ____
ROOT
ATOM      1  C   UNL     1      -3.715  12.386  24.290  0.00  0.00    +0.000 C 
ATOM      2  N   UNL     1      -3.016  13.480  23.635  0.00  0.00    +0.000 N 
ATOM      3  C   UNL     1      -2.076  13.093  22.669  0.00  0.00    +0.000 A 
ATOM      4  N   UNL     1      -1.420  14.115  22.039  0.00  0.00    +0.000 NA
ATOM      5  C   UNL     1      -0.443  13.885  21.115  0.00  0.00    +0.000 A 
ATOM      6  C   UNL     1      -0.176  12.533  20.915  0.00  0.00    +0.000 A 
ATOM      7  C   UNL     1       0.776  11.913  20.140  0.00  0.00    +0.000 A 
ATOM      8  N   UNL     1       0.492  10.544  20.248  0.00  0.00    +0.000 N 
ATOM      9  N   UNL     1      -0.591  10.304  21.045  0.00  0.00    +0.000 NA
ATOM     10  C   UNL     1      -0.923  11.505  21.524  0.00  0.00    +0.000 A 
ATOM     11  N   UNL     1      -1.893  11.766  22.432  0.00  0.00    +0.000 NA
ENDROOT
BRANCH   5  12
ATOM     12  C   UNL     1       0.065  15.028  20.359  0.00  0.00    +0.000 A 
ATOM     13  C   UNL     1      -0.550  15.430  19.162  0.00  0.00    +0.000 A 
ATOM     14  C   UNL     1      -0.043  16.498  18.416  0.00  0.00    +0.000 A 
ATOM     15  C   UNL     1       1.080  17.181  18.867  0.00  0.00    +0.000 A 
ATOM     16  F   UNL     1       1.563  18.208  18.158  0.00  0.00    +0.000 F 
ATOM     17  C   UNL     1       1.719  16.802  20.037  0.00  0.00    +0.000 A 
ATOM     18  C   UNL     1       1.233  15.710  20.755  0.00  0.00    +0.000 A 
ENDBRANCH   5  12
BRANCH   8  19
ATOM     19  C   UNL     1       1.198   9.449  19.647  0.00  0.00    +0.000 A 
ATOM     20  C   UNL     1       1.563   9.481  18.292  0.00  0.00    +0.000 A 
ATOM     21  C   UNL     1       2.226   8.403  17.703  0.00  0.00    +0.000 A 
ATOM     22  C   UNL     1       2.547   7.290  18.470  0.00  0.00    +0.000 A 
ATOM     23 CL   UNL     1       3.389   5.976  17.747  0.00  0.00    +0.000 Cl
ATOM     24  C   UNL     1       2.207   7.246  19.823  0.00  0.00    +0.000 A 
ATOM     25  C   UNL     1       1.541   8.326  20.416  0.00  0.00    +0.000 A 
ENDBRANCH   8  19
BRANCH   7  26
ATOM     26  N   UNL     1       1.798  12.418  19.391  0.00  0.00    +0.000 N 
ATOM     27  H   UNL     1       2.410  13.147  19.755  0.00  0.00    +0.000 HD
ATOM     28  H   UNL     1       1.716  12.462  18.376  0.00  0.00    +0.000 HD
ENDBRANCH   7  26
BRANCH   2  29
ATOM     29  C   UNL     1      -3.829  14.640  23.251  0.00  0.00    +0.000 C 
BRANCH  29  30
ATOM     30  C   UNL     1      -5.197  14.275  22.701  0.00  0.00    +0.000 A 
ATOM     31  C   UNL     1      -6.349  14.681  23.397  0.00  0.00    +0.000 A 
ATOM     32  C   UNL     1      -7.625  14.395  22.906  0.00  0.00    +0.000 A 
ATOM     33  C   UNL     1      -7.770  13.710  21.702  0.00  0.00    +0.000 A 
ATOM     34  C   UNL     1      -6.639  13.328  20.982  0.00  0.00    +0.000 A 
ATOM     35  C   UNL     1      -5.361  13.617  21.474  0.00  0.00    +0.000 A 
ENDBRANCH  29  30
ENDBRANCH   2  29
TORSDOF 5
ENDMDL
MODEL 8
REMARK VINA RESULT:      -7.2      5.596     12.478
REMARK  Name = 
REMARK  6 active torsions:
REMARK  status: ('A' for Active; 'I' for Inactive)
REMARK    1  A    between atoms: C_1  and  N_2
REMARK    2  A    between atoms: N_2  and  C_3
REMARK    3  A    between atoms: C_3  and  C_4
REMARK    4  A    between atoms: C_12  and  C_13
REMARK    5  A    between atoms: C_21  and  N_22
REMARK    6  A    between atoms: N_23  and  C_24
REMARK                            x       y       z     vdW  Elec       q    Type
REMARK                         _______ _______ _______ _____ _____    ______ ____
ROOT
ATOM      1  C   UNL     1      -3.850  12.584  24.160  0.00  0.00    +0.000 C 
ATOM      2  N   UNL     1      -3.142  13.653  23.475  0.00  0.00    +0.000 N 
ATOM      3  C   UNL     1      -2.189  13.231  22.536  0.00  0.00    +0.000 A 
ATOM      4  N   UNL     1      -1.524  14.228  21.879  0.00  0.00    +0.000 NA
ATOM      5  C   UNL     1      -0.535  13.965  20.977  0.00  0.00    +0.000 A 
ATOM      6  C   UNL     1      -0.267  12.607  20.829  0.00  0.00    +0.000 A 
ATOM      7  C   UNL     1       0.695  11.958  20.089  0.00  0.00    +0.000 A 
ATOM      8  N   UNL     1       0.407  10.594  20.243  0.00  0.00    +0.000 N 
ATOM      9  N   UNL     1      -0.686  10.384  21.034  0.00  0.00    +0.000 NA
ATOM     10  C   UNL     1      -1.023  11.602  21.465  0.00  0.00    +0.000 A 
ATOM     11  N   UNL     1      -2.005  11.896  22.349  0.00  0.00    +0.000 NA
ENDROOT
BRANCH   5  12
ATOM     12  C   UNL     1      -0.016  15.079  20.187  0.00  0.00    +0.000 A 
ATOM     13  C   UNL     1       1.174  15.730  20.555  0.00  0.00    +0.000 A 
ATOM     14  C   UNL     1       1.653  16.822  19.823  0.00  0.00    +0.000 A 
ATOM     15  C   UNL     1       0.950  17.265  18.710  0.00  0.00    +0.000 A 
ATOM     16  F   UNL     1       1.410  18.306  18.005  0.00  0.00    +0.000 F 
ATOM     17  C   UNL     1      -0.234  16.656  18.328  0.00  0.00    +0.000 A 
ATOM     18  C   UNL     1      -0.728  15.594  19.085  0.00  0.00    +0.000 A 
ENDBRANCH   5  12
BRANCH   8  19
ATOM     19  C   UNL     1       1.120   9.477  19.692  0.00  0.00    +0.000 A 
ATOM     20  C   UNL     1       1.475   9.447  18.334  0.00  0.00    +0.000 A 
ATOM     21  C   UNL     1       2.146   8.347  17.794  0.00  0.00    +0.000 A 
ATOM     22  C   UNL     1       2.483   7.277  18.612  0.00  0.00    +0.000 A 
ATOM     23 CL   UNL     1       3.332   5.937  17.948  0.00  0.00    +0.000 Cl
ATOM     24  C   UNL     1       2.152   7.296  19.968  0.00  0.00    +0.000 A 
ATOM     25  C   UNL     1       1.479   8.398  20.512  0.00  0.00    +0.000 A 
ENDBRANCH   8  19
BRANCH   7  26
ATOM     26  N   UNL     1       1.727  12.435  19.337  0.00  0.00    +0.000 N 
ATOM     27  H   UNL     1       1.690  13.361  18.914  0.00  0.00    +0.000 HD
ATOM     28  H   UNL     1       2.305  11.793  18.795  0.00  0.00    +0.000 HD
ENDBRANCH   7  26
BRANCH   2  29
ATOM     29  C   UNL     1      -3.948  14.799  23.039  0.00  0.00    +0.000 C 
BRANCH  29  30
ATOM     30  C   UNL     1      -3.878  15.991  23.976  0.00  0.00    +0.000 A 
ATOM     31  C   UNL     1      -2.626  16.552  24.283  0.00  0.00    +0.000 A 
ATOM     32  C   UNL     1      -2.523  17.670  25.115  0.00  0.00    +0.000 A 
ATOM     33  C   UNL     1      -3.671  18.255  25.640  0.00  0.00    +0.000 A 
ATOM     34  C   UNL     1      -4.923  17.733  25.319  0.00  0.00    +0.000 A 
ATOM     35  C   UNL     1      -5.026  16.614  24.486  0.00  0.00    +0.000 A 
ENDBRANCH  29  30
ENDBRANCH   2  29
TORSDOF 5
ENDMDL
MODEL 9
REMARK VINA RESULT:      -7.2      8.601     10.955
REMARK  Name = 
REMARK  6 active torsions:
REMARK  status: ('A' for Active; 'I' for Inactive)
REMARK    1  A    between atoms: C_1  and  N_2
REMARK    2  A    between atoms: N_2  and  C_3
REMARK    3  A    between atoms: C_3  and  C_4
REMARK    4  A    between atoms: C_12  and  C_13
REMARK    5  A    between atoms: C_21  and  N_22
REMARK    6  A    between atoms: N_23  and  C_24
REMARK                            x       y       z     vdW  Elec       q    Type
REMARK                         _______ _______ _______ _____ _____    ______ ____
ROOT
ATOM      1  C   UNL     1      -3.482  10.227  16.576  0.00  0.00    +0.000 C 
ATOM      2  N   UNL     1      -4.068  10.809  17.773  0.00  0.00    +0.000 N 
ATOM      3  C   UNL     1      -3.228  11.675  18.488  0.00  0.00    +0.000 A 
ATOM      4  N   UNL     1      -3.773  12.235  19.610  0.00  0.00    +0.000 NA
ATOM      5  C   UNL     1      -3.055  13.055  20.431  0.00  0.00    +0.000 A 
ATOM      6  C   UNL     1      -1.734  13.226  20.024  0.00  0.00    +0.000 A 
ATOM      7  C   UNL     1      -0.693  13.901  20.620  0.00  0.00    +0.000 A 
ATOM      8  N   UNL     1       0.361  13.821  19.698  0.00  0.00    +0.000 N 
ATOM      9  N   UNL     1       0.008  13.138  18.569  0.00  0.00    +0.000 NA
ATOM     10  C   UNL     1      -1.227  12.696  18.821  0.00  0.00    +0.000 A 
ATOM     11  N   UNL     1      -1.968  11.892  18.024  0.00  0.00    +0.000 NA
ENDROOT
BRANCH   5  12
ATOM     12  C   UNL     1      -3.771  13.756  21.494  0.00  0.00    +0.000 A 
ATOM     13  C   UNL     1      -4.139  13.090  22.675  0.00  0.00    +0.000 A 
ATOM     14  C   UNL     1      -4.858  13.748  23.677  0.00  0.00    +0.000 A 
ATOM     15  C   UNL     1      -5.207  15.082  23.511  0.00  0.00    +0.000 A 
ATOM     16  F   UNL     1      -5.890  15.715  24.472  0.00  0.00    +0.000 F 
ATOM     17  C   UNL     1      -4.873  15.765  22.353  0.00  0.00    +0.000 A 
ATOM     18  C   UNL     1      -4.191  15.093  21.340  0.00  0.00    +0.000 A 
ENDBRANCH   5  12
BRANCH   8  19
ATOM     19  C   UNL     1       1.689  14.347  19.833  0.00  0.00    +0.000 A 
ATOM     20  C   UNL     1       2.602  13.780  20.736  0.00  0.00    +0.000 A 
ATOM     21  C   UNL     1       3.885  14.310  20.885  0.00  0.00    +0.000 A 
ATOM     22  C   UNL     1       4.273  15.401  20.117  0.00  0.00    +0.000 A 
ATOM     23 CL   UNL     1       5.864  16.033  20.284  0.00  0.00    +0.000 Cl
ATOM     24  C   UNL     1       3.384  15.969  19.202  0.00  0.00    +0.000 A 
ATOM     25  C   UNL     1       2.096  15.439  19.051  0.00  0.00    +0.000 A 
ENDBRANCH   8  19
BRANCH   7  26
ATOM     26  N   UNL     1      -0.604  14.542  21.820  0.00  0.00    +0.000 N 
ATOM     27  H   UNL     1       0.297  14.811  22.210  0.00  0.00    +0.000 HD
ATOM     28  H   UNL     1      -1.295  14.365  22.547  0.00  0.00    +0.000 HD
ENDBRANCH   7  26
BRANCH   2  29
ATOM     29  C   UNL     1      -5.455  11.274  17.663  0.00  0.00    +0.000 C 
BRANCH  29  30
ATOM     30  C   UNL     1      -6.346  10.823  18.807  0.00  0.00    +0.000 A 
ATOM     31  C   UNL     1      -6.546   9.449  19.024  0.00  0.00    +0.000 A 
ATOM     32  C   UNL     1      -7.331   8.994  20.086  0.00  0.00    +0.000 A 
ATOM     33  C   UNL     1      -7.917   9.907  20.959  0.00  0.00    +0.000 A 
ATOM     34  C   UNL     1      -7.703  11.272  20.779  0.00  0.00    +0.000 A 
ATOM     35  C   UNL     1      -6.915  11.727  19.716  0.00  0.00    +0.000 A 
ENDBRANCH  29  30
ENDBRANCH   2  29
TORSDOF 5
ENDMDL
