MODEL 1
REMARK VINA RESULT:      -7.6      0.000      0.000
REMARK  Name = 
REMARK  12 active torsions:
REMARK  status: ('A' for Active; 'I' for Inactive)
REMARK    1  A    between atoms: C_1  and  C_2
REMARK    2  A    between atoms: C_2  and  C_3
REMARK    3  A    between atoms: C_3  and  C_4
REMARK    4  A    between atoms: C_4  and  C_5
REMARK    5  A    between atoms: C_5  and  N_6
REMARK    6  A    between atoms: C_7  and  S_8
REMARK    7  A    between atoms: S_8  and  C_9
REMARK    8  A    between atoms: C_12  and  C_13
REMARK    9  A    between atoms: C_15  and  N_16
REMARK   10  A    between atoms: C_22  and  C_23
REMARK   11  A    between atoms: C_26  and  O_27
REMARK   12  A    between atoms: O_27  and  C_28
REMARK                            x       y       z     vdW  Elec       q    Type
REMARK                         _______ _______ _______ _____ _____    ______ ____
ROOT
ATOM      1  N   UNL     1       4.628   4.938  16.952  0.00  0.00    +0.000 N 
ATOM      2  C   UNL     1       4.370   5.983  17.813  0.00  0.00    +0.000 A 
ATOM      3  N   UNL     1       4.949   7.073  17.372  0.00  0.00    +0.000 NA
ATOM      4  N   UNL     1       5.556   6.770  16.182  0.00  0.00    +0.000 NA
ATOM      5  C   UNL     1       5.326   5.500  15.889  0.00  0.00    +0.000 A 
ENDROOT
BRANCH   5   6
ATOM      6  C   UNL     1       5.789   4.839  14.659  0.00  0.00    +0.000 A 
ATOM      7  C   UNL     1       7.090   5.068  14.190  0.00  0.00    +0.000 A 
ATOM      8  C   UNL     1       7.555   4.440  13.025  0.00  0.00    +0.000 A 
ATOM      9  C   UNL     1       6.741   3.548  12.328  0.00  0.00    +0.000 A 
ATOM     10  C   UNL     1       5.434   3.346  12.758  0.00  0.00    +0.000 A 
ATOM     11  C   UNL     1       4.955   4.013  13.892  0.00  0.00    +0.000 A 
BRANCH   9  12
ATOM     12  O   UNL     1       7.294   2.982  11.214  0.00  0.00    +0.000 OA
ATOM     13  C   UNL     1       7.047   1.589  11.044  0.00  0.00    +0.000 C 
ENDBRANCH   9  12
ENDBRANCH   5   6
BRANCH   1  14
ATOM     14  C   UNL     1       4.348   3.527  17.161  0.00  0.00    +0.000 C 
BRANCH  14  15
ATOM     15  C   UNL     1       2.881   3.149  16.950  0.00  0.00    +0.000 C 
BRANCH  15  16
ATOM     16  C   UNL     1       2.321   2.336  18.118  0.00  0.00    +0.000 C 
BRANCH  16  18
ATOM     17  C   UNL     1       1.106   2.946  20.246  0.00  0.00    +0.000 C 
ATOM     18  C   UNL     1       1.112   3.045  18.730  0.00  0.00    +0.000 C 
ENDBRANCH  16  18
ENDBRANCH  15  16
ENDBRANCH  14  15
ENDBRANCH   1  14
BRANCH   2  19
ATOM     19  S   UNL     1       3.535   5.850  19.325  0.00  0.00    +0.000 S 
BRANCH  19  20
ATOM     20  C   UNL     1       2.414   7.250  19.259  0.00  0.00    +0.000 A 
ATOM     21  C   UNL     1       2.194   7.991  18.087  0.00  0.00    +0.000 A 
ATOM     22  C   UNL     1       1.429   9.170  18.110  0.00  0.00    +0.000 A 
ATOM     23  C   UNL     1       0.861   9.637  19.302  0.00  0.00    +0.000 A 
ATOM     24  C   UNL     1       1.056   8.873  20.455  0.00  0.00    +0.000 A 
ATOM     25  C   UNL     1       1.835   7.701  20.454  0.00  0.00    +0.000 A 
BRANCH  24  26
ATOM     26  N   UNL     1       0.428   9.261  21.701  0.00  0.00    +0.000 N 
ATOM     27  O   UNL     1      -0.648   8.721  21.977  0.00  0.00    +0.000 OA
ATOM     28  O   UNL     1       1.044  10.067  22.412  0.00  0.00    +0.000 OA
ENDBRANCH  24  26
BRANCH  23  29
ATOM     29  C   UNL     1       0.177  10.901  19.309  0.00  0.00    +0.000 C 
ATOM     30  N   UNL     1      -0.349  11.931  19.359  0.00  0.00    +0.000 NA
ENDBRANCH  23  29
ENDBRANCH  19  20
ENDBRANCH   2  19
TORSDOF 10
ENDMDL
MODEL 2
REMARK VINA RESULT:      -7.4      2.667      4.155
REMARK  Name = 
REMARK  12 active torsions:
REMARK  status: ('A' for Active; 'I' for Inactive)
REMARK    1  A    between atoms: C_1  and  C_2
REMARK    2  A    between atoms: C_2  and  C_3
REMARK    3  A    between atoms: C_3  and  C_4
REMARK    4  A    between atoms: C_4  and  C_5
REMARK    5  A    between atoms: C_5  and  N_6
REMARK    6  A    between atoms: C_7  and  S_8
REMARK    7  A    between atoms: S_8  and  C_9
REMARK    8  A    between atoms: C_12  and  C_13
REMARK    9  A    between atoms: C_15  and  N_16
REMARK   10  A    between atoms: C_22  and  C_23
REMARK   11  A    between atoms: C_26  and  O_27
REMARK   12  A    between atoms: O_27  and  C_28
REMARK                            x       y       z     vdW  Elec       q    Type
REMARK                         _______ _______ _______ _____ _____    ______ ____
ROOT
ATOM      1  N   UNL     1       2.297   7.338  19.383  0.00  0.00    +0.000 N 
ATOM      2  C   UNL     1       1.538   8.481  19.509  0.00  0.00    +0.000 A 
ATOM      3  N   UNL     1       1.668   9.219  18.433  0.00  0.00    +0.000 NA
ATOM      4  N   UNL     1       2.479   8.543  17.560  0.00  0.00    +0.000 NA
ATOM      5  C   UNL     1       2.823   7.384  18.097  0.00  0.00    +0.000 A 
ENDROOT
BRANCH   5   6
ATOM      6  C   UNL     1       3.654   6.375  17.422  0.00  0.00    +0.000 A 
ATOM      7  C   UNL     1       4.728   6.780  16.617  0.00  0.00    +0.000 A 
ATOM      8  C   UNL     1       5.540   5.834  15.973  0.00  0.00    +0.000 A 
ATOM      9  C   UNL     1       5.313   4.470  16.147  0.00  0.00    +0.000 A 
ATOM     10  C   UNL     1       4.224   4.056  16.907  0.00  0.00    +0.000 A 
ATOM     11  C   UNL     1       3.385   5.002  17.508  0.00  0.00    +0.000 A 
BRANCH   9  12
ATOM     12  O   UNL     1       6.167   3.634  15.485  0.00  0.00    +0.000 OA
ATOM     13  C   UNL     1       6.317   3.887  14.090  0.00  0.00    +0.000 C 
ENDBRANCH   9  12
ENDBRANCH   5   6
BRANCH   1  14
ATOM     14  C   UNL     1       2.596   6.354  20.412  0.00  0.00    +0.000 C 
BRANCH  14  15
ATOM     15  C   UNL     1       1.518   5.280  20.572  0.00  0.00    +0.000 C 
BRANCH  15  16
ATOM     16  C   UNL     1       2.086   3.973  21.129  0.00  0.00    +0.000 C 
BRANCH  16  18
ATOM     17  C   UNL     1       0.927   2.717  19.270  0.00  0.00    +0.000 C 
ATOM     18  C   UNL     1       1.175   2.799  20.766  0.00  0.00    +0.000 C 
ENDBRANCH  16  18
ENDBRANCH  15  16
ENDBRANCH  14  15
ENDBRANCH   1  14
BRANCH   2  19
ATOM     19  S   UNL     1       0.662   8.950  20.928  0.00  0.00    +0.000 S 
BRANCH  19  20
ATOM     20  C   UNL     1       0.277  10.668  20.582  0.00  0.00    +0.000 A 
ATOM     21  C   UNL     1      -0.844  11.059  19.833  0.00  0.00    +0.000 A 
ATOM     22  C   UNL     1      -1.028  12.400  19.454  0.00  0.00    +0.000 A 
ATOM     23  C   UNL     1      -0.101  13.385  19.816  0.00  0.00    +0.000 A 
ATOM     24  C   UNL     1       0.992  12.992  20.592  0.00  0.00    +0.000 A 
ATOM     25  C   UNL     1       1.202  11.651  20.964  0.00  0.00    +0.000 A 
BRANCH  24  26
ATOM     26  N   UNL     1       1.942  13.977  21.064  0.00  0.00    +0.000 N 
ATOM     27  O   UNL     1       2.916  14.205  20.339  0.00  0.00    +0.000 OA
ATOM     28  O   UNL     1       1.679  14.546  22.132  0.00  0.00    +0.000 OA
ENDBRANCH  24  26
BRANCH  23  29
ATOM     29  C   UNL     1      -0.265  14.724  19.320  0.00  0.00    +0.000 C 
ATOM     30  N   UNL     1      -0.422  15.815  18.966  0.00  0.00    +0.000 NA
ENDBRANCH  23  29
ENDBRANCH  19  20
ENDBRANCH   2  19
TORSDOF 10
ENDMDL
MODEL 3
REMARK VINA RESULT:      -7.4      4.702      7.035
REMARK  Name = 
REMARK  12 active torsions:
REMARK  status: ('A' for Active; 'I' for Inactive)
REMARK    1  A    between atoms: C_1  and  C_2
REMARK    2  A    between atoms: C_2  and  C_3
REMARK    3  A    between atoms: C_3  and  C_4
REMARK    4  A    between atoms: C_4  and  C_5
REMARK    5  A    between atoms: C_5  and  N_6
REMARK    6  A    between atoms: C_7  and  S_8
REMARK    7  A    between atoms: S_8  and  C_9
REMARK    8  A    between atoms: C_12  and  C_13
REMARK    9  A    between atoms: C_15  and  N_16
REMARK   10  A    between atoms: C_22  and  C_23
REMARK   11  A    between atoms: C_26  and  O_27
REMARK   12  A    between atoms: O_27  and  C_28
REMARK                            x       y       z     vdW  Elec       q    Type
REMARK                         _______ _______ _______ _____ _____    ______ ____
ROOT
ATOM      1  N   UNL     1       1.456   9.259  19.582  0.00  0.00    +0.000 N 
ATOM      2  C   UNL     1       1.424  10.372  18.770  0.00  0.00    +0.000 A 
ATOM      3  N   UNL     1       1.943  10.083  17.601  0.00  0.00    +0.000 NA
ATOM      4  N   UNL     1       2.279   8.755  17.612  0.00  0.00    +0.000 NA
ATOM      5  C   UNL     1       1.942   8.233  18.780  0.00  0.00    +0.000 A 
ENDROOT
BRANCH   5   6
ATOM      6  C   UNL     1       2.115   6.814  19.131  0.00  0.00    +0.000 A 
ATOM      7  C   UNL     1       2.545   5.901  18.157  0.00  0.00    +0.000 A 
ATOM      8  C   UNL     1       2.726   4.547  18.472  0.00  0.00    +0.000 A 
ATOM      9  C   UNL     1       2.512   4.087  19.771  0.00  0.00    +0.000 A 
ATOM     10  C   UNL     1       2.042   4.973  20.735  0.00  0.00    +0.000 A 
ATOM     11  C   UNL     1       1.814   6.315  20.405  0.00  0.00    +0.000 A 
BRANCH   9  12
ATOM     12  O   UNL     1       2.727   2.753  19.974  0.00  0.00    +0.000 OA
ATOM     13  C   UNL     1       2.364   1.900  18.891  0.00  0.00    +0.000 C 
ENDBRANCH   9  12
ENDBRANCH   5   6
BRANCH   1  14
ATOM     14  C   UNL     1       1.169   9.191  21.005  0.00  0.00    +0.000 C 
BRANCH  14  15
ATOM     15  C   UNL     1      -0.325   9.218  21.337  0.00  0.00    +0.000 C 
BRANCH  15  16
ATOM     16  C   UNL     1      -0.588   9.681  22.771  0.00  0.00    +0.000 C 
BRANCH  16  18
ATOM     17  C   UNL     1      -2.130  11.607  23.309  0.00  0.00    +0.000 C 
ATOM     18  C   UNL     1      -0.751  11.202  22.819  0.00  0.00    +0.000 C 
ENDBRANCH  16  18
ENDBRANCH  15  16
ENDBRANCH  14  15
ENDBRANCH   1  14
BRANCH   2  19
ATOM     19  S   UNL     1       0.914  11.954  19.261  0.00  0.00    +0.000 S 
BRANCH  19  20
ATOM     20  C   UNL     1      -0.835  11.926  18.859  0.00  0.00    +0.000 A 
ATOM     21  C   UNL     1      -1.823  12.398  19.738  0.00  0.00    +0.000 A 
ATOM     22  C   UNL     1      -3.188  12.221  19.454  0.00  0.00    +0.000 A 
ATOM     23  C   UNL     1      -3.602  11.570  18.285  0.00  0.00    +0.000 A 
ATOM     24  C   UNL     1      -2.612  11.137  17.400  0.00  0.00    +0.000 A 
ATOM     25  C   UNL     1      -1.241  11.289  17.678  0.00  0.00    +0.000 A 
BRANCH  24  26
ATOM     26  N   UNL     1      -2.978  10.528  16.138  0.00  0.00    +0.000 N 
ATOM     27  O   UNL     1      -3.060   9.296  16.115  0.00  0.00    +0.000 OA
ATOM     28  O   UNL     1      -3.228  11.293  15.197  0.00  0.00    +0.000 OA
ENDBRANCH  24  26
BRANCH  23  29
ATOM     29  C   UNL     1      -5.001  11.311  18.080  0.00  0.00    +0.000 C 
ATOM     30  N   UNL     1      -6.117  11.090  17.865  0.00  0.00    +0.000 NA
ENDBRANCH  23  29
ENDBRANCH  19  20
ENDBRANCH   2  19
TORSDOF 10
ENDMDL
MODEL 4
REMARK VINA RESULT:      -7.3      2.749      4.414
REMARK  Name = 
REMARK  12 active torsions:
REMARK  status: ('A' for Active; 'I' for Inactive)
REMARK    1  A    between atoms: C_1  and  C_2
REMARK    2  A    between atoms: C_2  and  C_3
REMARK    3  A    between atoms: C_3  and  C_4
REMARK    4  A    between atoms: C_4  and  C_5
REMARK    5  A    between atoms: C_5  and  N_6
REMARK    6  A    between atoms: C_7  and  S_8
REMARK    7  A    between atoms: S_8  and  C_9
REMARK    8  A    between atoms: C_12  and  C_13
REMARK    9  A    between atoms: C_15  and  N_16
REMARK   10  A    between atoms: C_22  and  C_23
REMARK   11  A    between atoms: C_26  and  O_27
REMARK   12  A    between atoms: O_27  and  C_28
REMARK                            x       y       z     vdW  Elec       q    Type
REMARK                         _______ _______ _______ _____ _____    ______ ____
ROOT
ATOM      1  N   UNL     1       2.158   7.567  19.411  0.00  0.00    +0.000 N 
ATOM      2  C   UNL     1       1.347   8.679  19.473  0.00  0.00    +0.000 A 
ATOM      3  N   UNL     1       1.495   9.396  18.386  0.00  0.00    +0.000 NA
ATOM      4  N   UNL     1       2.373   8.735  17.568  0.00  0.00    +0.000 NA
ATOM      5  C   UNL     1       2.740   7.605  18.149  0.00  0.00    +0.000 A 
ENDROOT
BRANCH   5   6
ATOM      6  C   UNL     1       3.642   6.617  17.538  0.00  0.00    +0.000 A 
ATOM      7  C   UNL     1       3.302   5.257  17.553  0.00  0.00    +0.000 A 
ATOM      8  C   UNL     1       4.142   4.299  16.967  0.00  0.00    +0.000 A 
ATOM      9  C   UNL     1       5.319   4.686  16.328  0.00  0.00    +0.000 A 
ATOM     10  C   UNL     1       5.690   6.026  16.345  0.00  0.00    +0.000 A 
ATOM     11  C   UNL     1       4.875   6.974  16.974  0.00  0.00    +0.000 A 
BRANCH   9  12
ATOM     12  O   UNL     1       6.060   3.676  15.780  0.00  0.00    +0.000 OA
ATOM     13  C   UNL     1       6.251   3.749  14.370  0.00  0.00    +0.000 C 
ENDBRANCH   9  12
ENDBRANCH   5   6
BRANCH   1  14
ATOM     14  C   UNL     1       2.450   6.622  20.477  0.00  0.00    +0.000 C 
BRANCH  14  15
ATOM     15  C   UNL     1       1.492   5.430  20.527  0.00  0.00    +0.000 C 
BRANCH  15  16
ATOM     16  C   UNL     1       2.133   4.202  21.176  0.00  0.00    +0.000 C 
BRANCH  16  18
ATOM     17  C   UNL     1       0.891   2.881  19.418  0.00  0.00    +0.000 C 
ATOM     18  C   UNL     1       1.308   2.949  20.877  0.00  0.00    +0.000 C 
ENDBRANCH  16  18
ENDBRANCH  15  16
ENDBRANCH  14  15
ENDBRANCH   1  14
BRANCH   2  19
ATOM     19  S   UNL     1       0.388   9.143  20.840  0.00  0.00    +0.000 S 
BRANCH  19  20
ATOM     20  C   UNL     1       0.088  10.883  20.515  0.00  0.00    +0.000 A 
ATOM     21  C   UNL     1      -1.015  11.337  19.773  0.00  0.00    +0.000 A 
ATOM     22  C   UNL     1      -1.134  12.689  19.410  0.00  0.00    +0.000 A 
ATOM     23  C   UNL     1      -0.158  13.624  19.781  0.00  0.00    +0.000 A 
ATOM     24  C   UNL     1       0.916  13.168  20.550  0.00  0.00    +0.000 A 
ATOM     25  C   UNL     1       1.061  11.814  20.905  0.00  0.00    +0.000 A 
BRANCH  24  26
ATOM     26  N   UNL     1       1.915  14.100  21.031  0.00  0.00    +0.000 N 
ATOM     27  O   UNL     1       1.742  14.571  22.160  0.00  0.00    +0.000 OA
ATOM     28  O   UNL     1       2.886  14.312  20.292  0.00  0.00    +0.000 OA
ENDBRANCH  24  26
BRANCH  23  29
ATOM     29  C   UNL     1      -0.257  14.975  19.302  0.00  0.00    +0.000 C 
ATOM     30  N   UNL     1      -0.364  16.046  18.875  0.00  0.00    +0.000 NA
ENDBRANCH  23  29
ENDBRANCH  19  20
ENDBRANCH   2  19
TORSDOF 10
ENDMDL
MODEL 5
REMARK VINA RESULT:      -7.2      3.943     10.124
REMARK  Name = 
REMARK  12 active torsions:
REMARK  status: ('A' for Active; 'I' for Inactive)
REMARK    1  A    between atoms: C_1  and  C_2
REMARK    2  A    between atoms: C_2  and  C_3
REMARK    3  A    between atoms: C_3  and  C_4
REMARK    4  A    between atoms: C_4  and  C_5
REMARK    5  A    between atoms: C_5  and  N_6
REMARK    6  A    between atoms: C_7  and  S_8
REMARK    7  A    between atoms: S_8  and  C_9
REMARK    8  A    between atoms: C_12  and  C_13
REMARK    9  A    between atoms: C_15  and  N_16
REMARK   10  A    between atoms: C_22  and  C_23
REMARK   11  A    between atoms: C_26  and  O_27
REMARK   12  A    between atoms: O_27  and  C_28
REMARK                            x       y       z     vdW  Elec       q    Type
REMARK                         _______ _______ _______ _____ _____    ______ ____
ROOT
ATOM      1  N   UNL     1       0.918   9.856  19.573  0.00  0.00    +0.000 N 
ATOM      2  C   UNL     1       1.593   8.675  19.353  0.00  0.00    +0.000 A 
ATOM      3  N   UNL     1       1.844   8.089  20.499  0.00  0.00    +0.000 NA
ATOM      4  N   UNL     1       1.289   8.857  21.489  0.00  0.00    +0.000 NA
ATOM      5  C   UNL     1       0.681   9.897  20.942  0.00  0.00    +0.000 A 
ENDROOT
BRANCH   5   6
ATOM      6  C   UNL     1      -0.065  10.912  21.703  0.00  0.00    +0.000 A 
ATOM      7  C   UNL     1       0.242  12.270  21.541  0.00  0.00    +0.000 A 
ATOM      8  C   UNL     1      -0.463  13.255  22.248  0.00  0.00    +0.000 A 
ATOM      9  C   UNL     1      -1.507  12.903  23.102  0.00  0.00    +0.000 A 
ATOM     10  C   UNL     1      -1.792  11.557  23.305  0.00  0.00    +0.000 A 
ATOM     11  C   UNL     1      -1.053  10.573  22.637  0.00  0.00    +0.000 A 
BRANCH   9  12
ATOM     12  O   UNL     1      -2.136  13.939  23.734  0.00  0.00    +0.000 OA
ATOM     13  C   UNL     1      -1.773  15.243  23.287  0.00  0.00    +0.000 C 
ENDBRANCH   9  12
ENDBRANCH   5   6
BRANCH   1  14
ATOM     14  C   UNL     1       0.624  10.902  18.607  0.00  0.00    +0.000 C 
BRANCH  14  15
ATOM     15  C   UNL     1      -0.866  11.051  18.289  0.00  0.00    +0.000 C 
BRANCH  15  16
ATOM     16  C   UNL     1      -1.404   9.867  17.485  0.00  0.00    +0.000 C 
BRANCH  16  18
ATOM     17  C   UNL     1      -3.491  11.191  18.003  0.00  0.00    +0.000 C 
ATOM     18  C   UNL     1      -2.894  10.056  17.190  0.00  0.00    +0.000 C 
ENDBRANCH  16  18
ENDBRANCH  15  16
ENDBRANCH  14  15
ENDBRANCH   1  14
BRANCH   2  19
ATOM     19  S   UNL     1       2.159   8.117  17.814  0.00  0.00    +0.000 S 
BRANCH  19  20
ATOM     20  C   UNL     1       2.823   6.500  18.222  0.00  0.00    +0.000 A 
ATOM     21  C   UNL     1       2.008   5.407  18.557  0.00  0.00    +0.000 A 
ATOM     22  C   UNL     1       2.567   4.203  19.018  0.00  0.00    +0.000 A 
ATOM     23  C   UNL     1       3.954   4.057  19.152  0.00  0.00    +0.000 A 
ATOM     24  C   UNL     1       4.757   5.138  18.780  0.00  0.00    +0.000 A 
ATOM     25  C   UNL     1       4.213   6.357  18.336  0.00  0.00    +0.000 A 
BRANCH  24  26
ATOM     26  N   UNL     1       6.200   5.020  18.821  0.00  0.00    +0.000 N 
ATOM     27  O   UNL     1       6.758   5.360  19.870  0.00  0.00    +0.000 OA
ATOM     28  O   UNL     1       6.754   4.544  17.821  0.00  0.00    +0.000 OA
ENDBRANCH  24  26
BRANCH  23  29
ATOM     29  C   UNL     1       4.484   2.851  19.726  0.00  0.00    +0.000 C 
ATOM     30  N   UNL     1       4.862   1.864  20.199  0.00  0.00    +0.000 NA
ENDBRANCH  23  29
ENDBRANCH  19  20
ENDBRANCH   2  19
TORSDOF 10
ENDMDL
MODEL 6
REMARK VINA RESULT:      -7.2      3.964      5.433
REMARK  Name = 
REMARK  12 active torsions:
REMARK  status: ('A' for Active; 'I' for Inactive)
REMARK    1  A    between atoms: C_1  and  C_2
REMARK    2  A    between atoms: C_2  and  C_3
REMARK    3  A    between atoms: C_3  and  C_4
REMARK    4  A    between atoms: C_4  and  C_5
REMARK    5  A    between atoms: C_5  and  N_6
REMARK    6  A    between atoms: C_7  and  S_8
REMARK    7  A    between atoms: S_8  and  C_9
REMARK    8  A    between atoms: C_12  and  C_13
REMARK    9  A    between atoms: C_15  and  N_16
REMARK   10  A    between atoms: C_22  and  C_23
REMARK   11  A    between atoms: C_26  and  O_27
REMARK   12  A    between atoms: O_27  and  C_28
REMARK                            x       y       z     vdW  Elec       q    Type
REMARK                         _______ _______ _______ _____ _____    ______ ____
ROOT
ATOM      1  N   UNL     1       1.767   8.332  19.461  0.00  0.00    +0.000 N 
ATOM      2  C   UNL     1       1.431   9.630  19.141  0.00  0.00    +0.000 A 
ATOM      3  N   UNL     1       1.780   9.885  17.904  0.00  0.00    +0.000 NA
ATOM      4  N   UNL     1       2.307   8.736  17.375  0.00  0.00    +0.000 NA
ATOM      5  C   UNL     1       2.256   7.777  18.285  0.00  0.00    +0.000 A 
ENDROOT
BRANCH   5   6
ATOM      6  C   UNL     1       2.695   6.392  18.051  0.00  0.00    +0.000 A 
ATOM      7  C   UNL     1       4.048   6.055  18.191  0.00  0.00    +0.000 A 
ATOM      8  C   UNL     1       4.486   4.739  17.983  0.00  0.00    +0.000 A 
ATOM      9  C   UNL     1       3.577   3.732  17.664  0.00  0.00    +0.000 A 
ATOM     10  C   UNL     1       2.238   4.062  17.479  0.00  0.00    +0.000 A 
ATOM     11  C   UNL     1       1.811   5.385  17.637  0.00  0.00    +0.000 A 
BRANCH   9  12
ATOM     12  O   UNL     1       4.105   2.483  17.493  0.00  0.00    +0.000 OA
ATOM     13  C   UNL     1       3.570   1.468  18.338  0.00  0.00    +0.000 C 
ENDBRANCH   9  12
ENDBRANCH   5   6
BRANCH   1  14
ATOM     14  C   UNL     1       1.740   7.707  20.774  0.00  0.00    +0.000 C 
BRANCH  14  15
ATOM     15  C   UNL     1       1.063   6.335  20.793  0.00  0.00    +0.000 C 
BRANCH  15  16
ATOM     16  C   UNL     1       2.037   5.218  21.173  0.00  0.00    +0.000 C 
BRANCH  16  18
ATOM     17  C   UNL     1       2.247   2.725  21.516  0.00  0.00    +0.000 C 
ATOM     18  C   UNL     1       1.381   3.850  20.977  0.00  0.00    +0.000 C 
ENDBRANCH  16  18
ENDBRANCH  15  16
ENDBRANCH  14  15
ENDBRANCH   1  14
BRANCH   2  19
ATOM     19  S   UNL     1       0.783  10.797  20.245  0.00  0.00    +0.000 S 
BRANCH  19  20
ATOM     20  C   UNL     1      -0.777  11.224  19.467  0.00  0.00    +0.000 A 
ATOM     21  C   UNL     1      -1.751  12.012  20.102  0.00  0.00    +0.000 A 
ATOM     22  C   UNL     1      -3.018  12.198  19.524  0.00  0.00    +0.000 A 
ATOM     23  C   UNL     1      -3.346  11.606  18.297  0.00  0.00    +0.000 A 
ATOM     24  C   UNL     1      -2.357  10.855  17.657  0.00  0.00    +0.000 A 
ATOM     25  C   UNL     1      -1.089  10.642  18.230  0.00  0.00    +0.000 A 
BRANCH  24  26
ATOM     26  N   UNL     1      -2.608  10.283  16.351  0.00  0.00    +0.000 N 
ATOM     27  O   UNL     1      -2.978   9.105  16.318  0.00  0.00    +0.000 OA
ATOM     28  O   UNL     1      -2.480  11.035  15.375  0.00  0.00    +0.000 OA
ENDBRANCH  24  26
BRANCH  23  29
ATOM     29  C   UNL     1      -4.685  11.729  17.790  0.00  0.00    +0.000 C 
ATOM     30  N   UNL     1      -5.745  11.813  17.334  0.00  0.00    +0.000 NA
ENDBRANCH  23  29
ENDBRANCH  19  20
ENDBRANCH   2  19
TORSDOF 10
ENDMDL
MODEL 7
REMARK VINA RESULT:      -7.2      4.123      6.194
REMARK  Name = 
REMARK  12 active torsions:
REMARK  status: ('A' for Active; 'I' for Inactive)
REMARK    1  A    between atoms: C_1  and  C_2
REMARK    2  A    between atoms: C_2  and  C_3
REMARK    3  A    between atoms: C_3  and  C_4
REMARK    4  A    between atoms: C_4  and  C_5
REMARK    5  A    between atoms: C_5  and  N_6
REMARK    6  A    between atoms: C_7  and  S_8
REMARK    7  A    between atoms: S_8  and  C_9
REMARK    8  A    between atoms: C_12  and  C_13
REMARK    9  A    between atoms: C_15  and  N_16
REMARK   10  A    between atoms: C_22  and  C_23
REMARK   11  A    between atoms: C_26  and  O_27
REMARK   12  A    between atoms: O_27  and  C_28
REMARK                            x       y       z     vdW  Elec       q    Type
REMARK                         _______ _______ _______ _____ _____    ______ ____
ROOT
ATOM      1  N   UNL     1       1.796   8.754  19.359  0.00  0.00    +0.000 N 
ATOM      2  C   UNL     1       1.502  10.024  18.914  0.00  0.00    +0.000 A 
ATOM      3  N   UNL     1       1.837  10.140  17.652  0.00  0.00    +0.000 NA
ATOM      4  N   UNL     1       2.313   8.925  17.235  0.00  0.00    +0.000 NA
ATOM      5  C   UNL     1       2.245   8.065  18.238  0.00  0.00    +0.000 A 
ENDROOT
BRANCH   5   6
ATOM      6  C   UNL     1       2.629   6.648  18.139  0.00  0.00    +0.000 A 
ATOM      7  C   UNL     1       1.639   5.661  18.035  0.00  0.00    +0.000 A 
ATOM      8  C   UNL     1       1.983   4.306  17.929  0.00  0.00    +0.000 A 
ATOM      9  C   UNL     1       3.321   3.916  17.893  0.00  0.00    +0.000 A 
ATOM     10  C   UNL     1       4.312   4.881  18.041  0.00  0.00    +0.000 A 
ATOM     11  C   UNL     1       3.965   6.228  18.197  0.00  0.00    +0.000 A 
BRANCH   9  12
ATOM     12  O   UNL     1       3.548   2.573  17.778  0.00  0.00    +0.000 OA
ATOM     13  C   UNL     1       3.654   1.859  19.007  0.00  0.00    +0.000 C 
ENDBRANCH   9  12
ENDBRANCH   5   6
BRANCH   1  14
ATOM     14  C   UNL     1       1.771   8.266  20.729  0.00  0.00    +0.000 C 
BRANCH  14  15
ATOM     15  C   UNL     1       0.454   7.593  21.122  0.00  0.00    +0.000 C 
BRANCH  15  16
ATOM     16  C   UNL     1      -0.606   8.609  21.553  0.00  0.00    +0.000 C 
BRANCH  16  18
ATOM     17  C   UNL     1      -0.938  10.533  23.154  0.00  0.00    +0.000 C 
ATOM     18  C   UNL     1      -0.255   9.197  22.921  0.00  0.00    +0.000 C 
ENDBRANCH  16  18
ENDBRANCH  15  16
ENDBRANCH  14  15
ENDBRANCH   1  14
BRANCH   2  19
ATOM     19  S   UNL     1       0.915  11.321  19.903  0.00  0.00    +0.000 S 
BRANCH  19  20
ATOM     20  C   UNL     1      -0.753  11.543  19.279  0.00  0.00    +0.000 A 
ATOM     21  C   UNL     1      -1.753  12.206  20.009  0.00  0.00    +0.000 A 
ATOM     22  C   UNL     1      -3.083  12.228  19.556  0.00  0.00    +0.000 A 
ATOM     23  C   UNL     1      -3.449  11.592  18.362  0.00  0.00    +0.000 A 
ATOM     24  C   UNL     1      -2.439  10.967  17.626  0.00  0.00    +0.000 A 
ATOM     25  C   UNL     1      -1.106  10.919  18.075  0.00  0.00    +0.000 A 
BRANCH  24  26
ATOM     26  N   UNL     1      -2.740  10.361  16.346  0.00  0.00    +0.000 N 
ATOM     27  O   UNL     1      -2.946   9.143  16.340  0.00  0.00    +0.000 OA
ATOM     28  O   UNL     1      -2.814  11.119  15.369  0.00  0.00    +0.000 OA
ENDBRANCH  24  26
BRANCH  23  29
ATOM     29  C   UNL     1      -4.835  11.542  17.985  0.00  0.00    +0.000 C 
ATOM     30  N   UNL     1      -5.961  11.538  17.718  0.00  0.00    +0.000 NA
ENDBRANCH  23  29
ENDBRANCH  19  20
ENDBRANCH   2  19
TORSDOF 10
ENDMDL
MODEL 8
REMARK VINA RESULT:      -7.2      3.955      5.507
REMARK  Name = 
REMARK  12 active torsions:
REMARK  status: ('A' for Active; 'I' for Inactive)
REMARK    1  A    between atoms: C_1  and  C_2
REMARK    2  A    between atoms: C_2  and  C_3
REMARK    3  A    between atoms: C_3  and  C_4
REMARK    4  A    between atoms: C_4  and  C_5
REMARK    5  A    between atoms: C_5  and  N_6
REMARK    6  A    between atoms: C_7  and  S_8
REMARK    7  A    between atoms: S_8  and  C_9
REMARK    8  A    between atoms: C_12  and  C_13
REMARK    9  A    between atoms: C_15  and  N_16
REMARK   10  A    between atoms: C_22  and  C_23
REMARK   11  A    between atoms: C_26  and  O_27
REMARK   12  A    between atoms: O_27  and  C_28
REMARK                            x       y       z     vdW  Elec       q    Type
REMARK                         _______ _______ _______ _____ _____    ______ ____
ROOT
ATOM      1  N   UNL     1       1.786   8.275  19.473  0.00  0.00    +0.000 N 
ATOM      2  C   UNL     1       1.424   9.562  19.137  0.00  0.00    +0.000 A 
ATOM      3  N   UNL     1       1.747   9.802  17.890  0.00  0.00    +0.000 NA
ATOM      4  N   UNL     1       2.284   8.653  17.371  0.00  0.00    +0.000 NA
ATOM      5  C   UNL     1       2.265   7.709  18.297  0.00  0.00    +0.000 A 
ENDROOT
BRANCH   5   6
ATOM      6  C   UNL     1       2.722   6.327  18.077  0.00  0.00    +0.000 A 
ATOM      7  C   UNL     1       1.809   5.348  17.660  0.00  0.00    +0.000 A 
ATOM      8  C   UNL     1       2.225   4.028  17.435  0.00  0.00    +0.000 A 
ATOM      9  C   UNL     1       3.564   3.670  17.591  0.00  0.00    +0.000 A 
ATOM     10  C   UNL     1       4.471   4.622  18.047  0.00  0.00    +0.000 A 
ATOM     11  C   UNL     1       4.043   5.927  18.320  0.00  0.00    +0.000 A 
BRANCH   9  12
ATOM     12  O   UNL     1       3.866   2.362  17.337  0.00  0.00    +0.000 OA
ATOM     13  C   UNL     1       3.646   1.459  18.417  0.00  0.00    +0.000 C 
ENDBRANCH   9  12
ENDBRANCH   5   6
BRANCH   1  14
ATOM     14  C   UNL     1       1.792   7.672  20.795  0.00  0.00    +0.000 C 
BRANCH  14  15
ATOM     15  C   UNL     1       1.039   6.342  20.873  0.00  0.00    +0.000 C 
BRANCH  15  16
ATOM     16  C   UNL     1       1.972   5.167  21.171  0.00  0.00    +0.000 C 
BRANCH  16  18
ATOM     17  C   UNL     1       1.937   2.675  21.573  0.00  0.00    +0.000 C 
ATOM     18  C   UNL     1       1.276   3.841  20.860  0.00  0.00    +0.000 C 
ENDBRANCH  16  18
ENDBRANCH  15  16
ENDBRANCH  14  15
ENDBRANCH   1  14
BRANCH   2  19
ATOM     19  S   UNL     1       0.776  10.737  20.233  0.00  0.00    +0.000 S 
BRANCH  19  20
ATOM     20  C   UNL     1      -0.772  11.178  19.439  0.00  0.00    +0.000 A 
ATOM     21  C   UNL     1      -1.742  11.979  20.061  0.00  0.00    +0.000 A 
ATOM     22  C   UNL     1      -3.002  12.177  19.471  0.00  0.00    +0.000 A 
ATOM     23  C   UNL     1      -3.325  11.583  18.244  0.00  0.00    +0.000 A 
ATOM     24  C   UNL     1      -2.339  10.817  17.616  0.00  0.00    +0.000 A 
ATOM     25  C   UNL     1      -1.080  10.593  18.202  0.00  0.00    +0.000 A 
BRANCH  24  26
ATOM     26  N   UNL     1      -2.585  10.242  16.310  0.00  0.00    +0.000 N 
ATOM     27  O   UNL     1      -2.443  10.988  15.336  0.00  0.00    +0.000 OA
ATOM     28  O   UNL     1      -2.871   9.038  16.271  0.00  0.00    +0.000 OA
ENDBRANCH  24  26
BRANCH  23  29
ATOM     29  C   UNL     1      -4.658  11.718  17.724  0.00  0.00    +0.000 C 
ATOM     30  N   UNL     1      -5.713  11.860  17.268  0.00  0.00    +0.000 NA
ENDBRANCH  23  29
ENDBRANCH  19  20
ENDBRANCH   2  19
TORSDOF 10
ENDMDL
MODEL 9
REMARK VINA RESULT:      -7.2      3.844      5.267
REMARK  Name = 
REMARK  12 active torsions:
REMARK  status: ('A' for Active; 'I' for Inactive)
REMARK    1  A    between atoms: C_1  and  C_2
REMARK    2  A    between atoms: C_2  and  C_3
REMARK    3  A    between atoms: C_3  and  C_4
REMARK    4  A    between atoms: C_4  and  C_5
REMARK    5  A    between atoms: C_5  and  N_6
REMARK    6  A    between atoms: C_7  and  S_8
REMARK    7  A    between atoms: S_8  and  C_9
REMARK    8  A    between atoms: C_12  and  C_13
REMARK    9  A    between atoms: C_15  and  N_16
REMARK   10  A    between atoms: C_22  and  C_23
REMARK   11  A    between atoms: C_26  and  O_27
REMARK   12  A    between atoms: O_27  and  C_28
REMARK                            x       y       z     vdW  Elec       q    Type
REMARK                         _______ _______ _______ _____ _____    ______ ____
ROOT
ATOM      1  N   UNL     1       1.885   8.240  19.335  0.00  0.00    +0.000 N 
ATOM      2  C   UNL     1       1.548   9.522  18.961  0.00  0.00    +0.000 A 
ATOM      3  N   UNL     1       1.923   9.736  17.723  0.00  0.00    +0.000 NA
ATOM      4  N   UNL     1       2.471   8.573  17.248  0.00  0.00    +0.000 NA
ATOM      5  C   UNL     1       2.406   7.647  18.190  0.00  0.00    +0.000 A 
ENDROOT
BRANCH   5   6
ATOM      6  C   UNL     1       2.860   6.258  18.016  0.00  0.00    +0.000 A 
ATOM      7  C   UNL     1       1.937   5.260  17.673  0.00  0.00    +0.000 A 
ATOM      8  C   UNL     1       2.350   3.932  17.491  0.00  0.00    +0.000 A 
ATOM      9  C   UNL     1       3.694   3.584  17.617  0.00  0.00    +0.000 A 
ATOM     10  C   UNL     1       4.612   4.557  18.001  0.00  0.00    +0.000 A 
ATOM     11  C   UNL     1       4.190   5.871  18.230  0.00  0.00    +0.000 A 
BRANCH   9  12
ATOM     12  O   UNL     1       3.992   2.267  17.410  0.00  0.00    +0.000 OA
ATOM     13  C   UNL     1       3.573   1.373  18.438  0.00  0.00    +0.000 C 
ENDBRANCH   9  12
ENDBRANCH   5   6
BRANCH   1  14
ATOM     14  C   UNL     1       1.832   7.662  20.668  0.00  0.00    +0.000 C 
BRANCH  14  15
ATOM     15  C   UNL     1       1.145   6.296  20.724  0.00  0.00    +0.000 C 
BRANCH  15  16
ATOM     16  C   UNL     1       2.089   5.196  21.212  0.00  0.00    +0.000 C 
BRANCH  16  18
ATOM     17  C   UNL     1       2.341   2.704  21.536  0.00  0.00    +0.000 C 
ATOM     18  C   UNL     1       1.437   3.822  21.047  0.00  0.00    +0.000 C 
ENDBRANCH  16  18
ENDBRANCH  15  16
ENDBRANCH  14  15
ENDBRANCH   1  14
BRANCH   2  19
ATOM     19  S   UNL     1       0.866  10.723  20.007  0.00  0.00    +0.000 S 
BRANCH  19  20
ATOM     20  C   UNL     1      -0.799  10.886  19.357  0.00  0.00    +0.000 A 
ATOM     21  C   UNL     1      -1.204  10.290  18.151  0.00  0.00    +0.000 A 
ATOM     22  C   UNL     1      -2.467  10.565  17.599  0.00  0.00    +0.000 A 
ATOM     23  C   UNL     1      -3.359  11.437  18.236  0.00  0.00    +0.000 A 
ATOM     24  C   UNL     1      -2.960  11.995  19.453  0.00  0.00    +0.000 A 
ATOM     25  C   UNL     1      -1.692  11.747  20.010  0.00  0.00    +0.000 A 
BRANCH  24  26
ATOM     26  N   UNL     1      -3.868  12.842  20.198  0.00  0.00    +0.000 N 
ATOM     27  O   UNL     1      -4.858  12.297  20.698  0.00  0.00    +0.000 OA
ATOM     28  O   UNL     1      -3.555  14.035  20.316  0.00  0.00    +0.000 OA
ENDBRANCH  24  26
BRANCH  23  29
ATOM     29  C   UNL     1      -4.596  11.778  17.589  0.00  0.00    +0.000 C 
ATOM     30  N   UNL     1      -5.566  12.081  17.034  0.00  0.00    +0.000 NA
ENDBRANCH  23  29
ENDBRANCH  19  20
ENDBRANCH   2  19
TORSDOF 10
ENDMDL
