MODEL 1
REMARK VINA RESULT:      -8.5      0.000      0.000
REMARK  Name = 
REMARK  6 active torsions:
REMARK  status: ('A' for Active; 'I' for Inactive)
REMARK    1  A    between atoms: C_1  and  N_2
REMARK    2  A    between atoms: N_2  and  C_3
REMARK    3  A    between atoms: C_4  and  C_6
REMARK    4  A    between atoms: C_14  and  N_15
REMARK    5  A    between atoms: N_15  and  C_16
REMARK    6  A    between atoms: N_25  and  O_26
REMARK                            x       y       z     vdW  Elec       q    Type
REMARK                         _______ _______ _______ _____ _____    ______ ____
ROOT
ATOM      1  C   UNL     1       4.324   5.390  17.619  0.00  0.00    +0.000 A 
ATOM      2  S   UNL     1       4.204   3.798  17.000  0.00  0.00    +0.000 S 
ATOM      3  C   UNL     1       2.839   3.424  17.961  0.00  0.00    +0.000 A 
ATOM      4  C   UNL     1       2.078   2.253  17.915  0.00  0.00    +0.000 A 
ATOM      5  N   UNL     1       1.049   2.072  18.774  0.00  0.00    +0.000 NA
ATOM      6  C   UNL     1       0.772   3.048  19.658  0.00  0.00    +0.000 A 
ATOM      7  C   UNL     1       1.462   4.244  19.739  0.00  0.00    +0.000 A 
ATOM      8  C   UNL     1       2.551   4.450  18.862  0.00  0.00    +0.000 A 
ATOM      9  C   UNL     1       3.458   5.566  18.690  0.00  0.00    +0.000 A 
ENDROOT
BRANCH   1  13
ATOM     10  C   UNL     1       7.451   7.534  17.454  0.00  0.00    +0.000 C 
ATOM     11  N   UNL     1       6.537   6.494  17.890  0.00  0.00    +0.000 N 
ATOM     12  C   UNL     1       7.037   5.554  18.882  0.00  0.00    +0.000 C 
ATOM     13  C   UNL     1       5.363   6.305  17.140  0.00  0.00    +0.000 C 
ATOM     14  O   UNL     1       5.229   6.891  16.065  0.00  0.00    +0.000 OA
ENDBRANCH   1  13
BRANCH   9  15
ATOM     15  N   UNL     1       3.419   6.722  19.429  0.00  0.00    +0.000 N 
ATOM     16  H   UNL     1       3.818   6.668  20.373  0.00  0.00    +0.000 HD
BRANCH  15  17
ATOM     17  C   UNL     1       2.405   7.717  19.462  0.00  0.00    +0.000 A 
ATOM     18  C   UNL     1       2.101   8.405  18.271  0.00  0.00    +0.000 A 
ATOM     19  C   UNL     1       1.122   9.409  18.236  0.00  0.00    +0.000 A 
ATOM     20  C   UNL     1       0.461   9.723  19.406  0.00  0.00    +0.000 A 
ATOM     21  C   UNL     1       0.735   9.044  20.592  0.00  0.00    +0.000 A 
ATOM     22  C   UNL     1       1.707   8.047  20.632  0.00  0.00    +0.000 A 
ATOM     23  C   UNL     1      -0.098   9.502  21.746  0.00  0.00    +0.000 C 
ATOM     24  C   UNL     1      -0.943  10.637  21.169  0.00  0.00    +0.000 C 
ATOM     25  C   UNL     1      -0.566  10.729  19.704  0.00  0.00    +0.000 C 
ATOM     26  N   UNL     1      -1.135  11.625  18.966  0.00  0.00    +0.000 NA
BRANCH  26  27
ATOM     27  O   UNL     1      -0.680  11.630  17.649  0.00  0.00    +0.000 OA
ATOM     28  H   UNL     1      -1.396  11.161  17.181  0.00  0.00    +0.000 HD
ENDBRANCH  26  27
ENDBRANCH  15  17
ENDBRANCH   9  15
TORSDOF 4
ENDMDL
MODEL 2
REMARK VINA RESULT:      -8.3      1.446      3.970
REMARK  Name = 
REMARK  6 active torsions:
REMARK  status: ('A' for Active; 'I' for Inactive)
REMARK    1  A    between atoms: C_1  and  N_2
REMARK    2  A    between atoms: N_2  and  C_3
REMARK    3  A    between atoms: C_4  and  C_6
REMARK    4  A    between atoms: C_14  and  N_15
REMARK    5  A    between atoms: N_15  and  C_16
REMARK    6  A    between atoms: N_25  and  O_26
REMARK                            x       y       z     vdW  Elec       q    Type
REMARK                         _______ _______ _______ _____ _____    ______ ____
ROOT
ATOM      1  C   UNL     1       3.388   4.455  17.646  0.00  0.00    +0.000 A 
ATOM      2  S   UNL     1       4.254   4.065  16.222  0.00  0.00    +0.000 S 
ATOM      3  C   UNL     1       5.543   5.124  16.600  0.00  0.00    +0.000 A 
ATOM      4  C   UNL     1       6.742   5.270  15.896  0.00  0.00    +0.000 A 
ATOM      5  N   UNL     1       7.656   6.188  16.285  0.00  0.00    +0.000 NA
ATOM      6  C   UNL     1       7.390   6.941  17.367  0.00  0.00    +0.000 A 
ATOM      7  C   UNL     1       6.240   6.828  18.129  0.00  0.00    +0.000 A 
ATOM      8  C   UNL     1       5.263   5.887  17.734  0.00  0.00    +0.000 A 
ATOM      9  C   UNL     1       3.980   5.527  18.302  0.00  0.00    +0.000 A 
ENDROOT
BRANCH   1  13
ATOM     10  C   UNL     1       0.782   2.056  19.007  0.00  0.00    +0.000 C 
ATOM     11  N   UNL     1       2.043   2.763  18.877  0.00  0.00    +0.000 N 
ATOM     12  C   UNL     1       3.041   2.521  19.909  0.00  0.00    +0.000 C 
ATOM     13  C   UNL     1       2.106   3.813  17.944  0.00  0.00    +0.000 C 
ATOM     14  O   UNL     1       1.072   4.207  17.404  0.00  0.00    +0.000 OA
ENDBRANCH   1  13
BRANCH   9  15
ATOM     15  N   UNL     1       3.435   6.102  19.423  0.00  0.00    +0.000 N 
ATOM     16  H   UNL     1       3.183   5.460  20.182  0.00  0.00    +0.000 HD
BRANCH  15  17
ATOM     17  C   UNL     1       2.555   7.215  19.507  0.00  0.00    +0.000 A 
ATOM     18  C   UNL     1       2.410   8.044  18.377  0.00  0.00    +0.000 A 
ATOM     19  C   UNL     1       1.570   9.166  18.397  0.00  0.00    +0.000 A 
ATOM     20  C   UNL     1       0.887   9.455  19.561  0.00  0.00    +0.000 A 
ATOM     21  C   UNL     1       1.004   8.640  20.685  0.00  0.00    +0.000 A 
ATOM     22  C   UNL     1       1.838   7.525  20.671  0.00  0.00    +0.000 A 
ATOM     23  C   UNL     1       0.169   9.095  21.838  0.00  0.00    +0.000 C 
ATOM     24  C   UNL     1      -0.491  10.380  21.338  0.00  0.00    +0.000 C 
ATOM     25  C   UNL     1      -0.020  10.556  19.909  0.00  0.00    +0.000 C 
ATOM     26  N   UNL     1      -0.428  11.583  19.237  0.00  0.00    +0.000 NA
BRANCH  26  27
ATOM     27  O   UNL     1       0.101  11.649  17.949  0.00  0.00    +0.000 OA
ATOM     28  H   UNL     1      -0.703  11.696  17.398  0.00  0.00    +0.000 HD
ENDBRANCH  26  27
ENDBRANCH  15  17
ENDBRANCH   9  15
TORSDOF 4
ENDMDL
MODEL 3
REMARK VINA RESULT:      -8.2      2.062      4.419
REMARK  Name = 
REMARK  6 active torsions:
REMARK  status: ('A' for Active; 'I' for Inactive)
REMARK    1  A    between atoms: C_1  and  N_2
REMARK    2  A    between atoms: N_2  and  C_3
REMARK    3  A    between atoms: C_4  and  C_6
REMARK    4  A    between atoms: C_14  and  N_15
REMARK    5  A    between atoms: N_15  and  C_16
REMARK    6  A    between atoms: N_25  and  O_26
REMARK                            x       y       z     vdW  Elec       q    Type
REMARK                         _______ _______ _______ _____ _____    ______ ____
ROOT
ATOM      1  C   UNL     1       3.294   4.644  18.196  0.00  0.00    +0.000 A 
ATOM      2  S   UNL     1       4.710   3.681  18.188  0.00  0.00    +0.000 S 
ATOM      3  C   UNL     1       5.735   5.022  17.909  0.00  0.00    +0.000 A 
ATOM      4  C   UNL     1       7.133   5.016  17.884  0.00  0.00    +0.000 A 
ATOM      5  N   UNL     1       7.816   6.148  17.600  0.00  0.00    +0.000 NA
ATOM      6  C   UNL     1       7.121   7.274  17.358  0.00  0.00    +0.000 A 
ATOM      7  C   UNL     1       5.740   7.360  17.397  0.00  0.00    +0.000 A 
ATOM      8  C   UNL     1       5.004   6.187  17.676  0.00  0.00    +0.000 A 
ATOM      9  C   UNL     1       3.581   5.942  17.792  0.00  0.00    +0.000 A 
ENDROOT
BRANCH   1  13
ATOM     10  C   UNL     1       0.399   2.810  19.827  0.00  0.00    +0.000 C 
ATOM     11  N   UNL     1       1.645   3.543  19.699  0.00  0.00    +0.000 N 
ATOM     12  C   UNL     1       2.300   3.944  20.936  0.00  0.00    +0.000 C 
ATOM     13  C   UNL     1       1.979   4.042  18.428  0.00  0.00    +0.000 C 
ATOM     14  O   UNL     1       1.147   3.995  17.521  0.00  0.00    +0.000 OA
ENDBRANCH   1  13
BRANCH   9  15
ATOM     15  N   UNL     1       2.609   6.896  17.621  0.00  0.00    +0.000 N 
ATOM     16  H   UNL     1       2.599   7.372  16.711  0.00  0.00    +0.000 HD
BRANCH  15  17
ATOM     17  C   UNL     1       2.092   7.812  18.577  0.00  0.00    +0.000 A 
ATOM     18  C   UNL     1       2.110   7.445  19.937  0.00  0.00    +0.000 A 
ATOM     19  C   UNL     1       1.601   8.294  20.930  0.00  0.00    +0.000 A 
ATOM     20  C   UNL     1       1.066   9.508  20.546  0.00  0.00    +0.000 A 
ATOM     21  C   UNL     1       1.053   9.897  19.208  0.00  0.00    +0.000 A 
ATOM     22  C   UNL     1       1.556   9.056  18.218  0.00  0.00    +0.000 A 
ATOM     23  C   UNL     1       0.461  11.253  18.989  0.00  0.00    +0.000 C 
ATOM     24  C   UNL     1       0.024  11.698  20.384  0.00  0.00    +0.000 C 
ATOM     25  C   UNL     1       0.433  10.581  21.321  0.00  0.00    +0.000 C 
ATOM     26  N   UNL     1       0.173  10.696  22.584  0.00  0.00    +0.000 NA
BRANCH  26  27
ATOM     27  O   UNL     1       0.569   9.590  23.334  0.00  0.00    +0.000 OA
ATOM     28  H   UNL     1       1.420   9.353  22.920  0.00  0.00    +0.000 HD
ENDBRANCH  26  27
ENDBRANCH  15  17
ENDBRANCH   9  15
TORSDOF 4
ENDMDL
MODEL 4
REMARK VINA RESULT:      -8.1      1.679      2.041
REMARK  Name = 
REMARK  6 active torsions:
REMARK  status: ('A' for Active; 'I' for Inactive)
REMARK    1  A    between atoms: C_1  and  N_2
REMARK    2  A    between atoms: N_2  and  C_3
REMARK    3  A    between atoms: C_4  and  C_6
REMARK    4  A    between atoms: C_14  and  N_15
REMARK    5  A    between atoms: N_15  and  C_16
REMARK    6  A    between atoms: N_25  and  O_26
REMARK                            x       y       z     vdW  Elec       q    Type
REMARK                         _______ _______ _______ _____ _____    ______ ____
ROOT
ATOM      1  C   UNL     1       4.787   5.430  17.592  0.00  0.00    +0.000 A 
ATOM      2  S   UNL     1       5.284   3.882  18.130  0.00  0.00    +0.000 S 
ATOM      3  C   UNL     1       3.680   3.359  18.411  0.00  0.00    +0.000 A 
ATOM      4  C   UNL     1       3.271   2.077  18.788  0.00  0.00    +0.000 A 
ATOM      5  N   UNL     1       1.965   1.817  19.025  0.00  0.00    +0.000 NA
ATOM      6  C   UNL     1       1.075   2.815  18.877  0.00  0.00    +0.000 A 
ATOM      7  C   UNL     1       1.404   4.098  18.477  0.00  0.00    +0.000 A 
ATOM      8  C   UNL     1       2.765   4.398  18.238  0.00  0.00    +0.000 A 
ATOM      9  C   UNL     1       3.428   5.614  17.814  0.00  0.00    +0.000 A 
ENDROOT
BRANCH   1  13
ATOM     10  C   UNL     1       7.721   7.837  17.550  0.00  0.00    +0.000 C 
ATOM     11  N   UNL     1       6.876   6.731  17.961  0.00  0.00    +0.000 N 
ATOM     12  C   UNL     1       7.395   5.860  19.006  0.00  0.00    +0.000 C 
ATOM     13  C   UNL     1       5.770   6.422  17.149  0.00  0.00    +0.000 C 
ATOM     14  O   UNL     1       5.650   6.971  16.053  0.00  0.00    +0.000 OA
ENDBRANCH   1  13
BRANCH   9  15
ATOM     15  N   UNL     1       2.789   6.802  17.560  0.00  0.00    +0.000 N 
ATOM     16  H   UNL     1       3.158   7.354  16.777  0.00  0.00    +0.000 HD
BRANCH  15  17
ATOM     17  C   UNL     1       2.225   7.718  18.488  0.00  0.00    +0.000 A 
ATOM     18  C   UNL     1       2.209   7.369  19.852  0.00  0.00    +0.000 A 
ATOM     19  C   UNL     1       1.653   8.219  20.819  0.00  0.00    +0.000 A 
ATOM     20  C   UNL     1       1.105   9.416  20.403  0.00  0.00    +0.000 A 
ATOM     21  C   UNL     1       1.124   9.789  19.060  0.00  0.00    +0.000 A 
ATOM     22  C   UNL     1       1.674   8.946  18.097  0.00  0.00    +0.000 A 
ATOM     23  C   UNL     1       0.511  11.128  18.806  0.00  0.00    +0.000 C 
ATOM     24  C   UNL     1       0.023  11.582  20.181  0.00  0.00    +0.000 C 
ATOM     25  C   UNL     1       0.427  10.485  21.145  0.00  0.00    +0.000 C 
ATOM     26  N   UNL     1       0.127  10.611  22.397  0.00  0.00    +0.000 NA
BRANCH  26  27
ATOM     27  O   UNL     1       0.522   9.522  23.174  0.00  0.00    +0.000 OA
ATOM     28  H   UNL     1       1.392   9.301  22.791  0.00  0.00    +0.000 HD
ENDBRANCH  26  27
ENDBRANCH  15  17
ENDBRANCH   9  15
TORSDOF 4
ENDMDL
MODEL 5
REMARK VINA RESULT:      -7.9      1.101      1.221
REMARK  Name = 
REMARK  6 active torsions:
REMARK  status: ('A' for Active; 'I' for Inactive)
REMARK    1  A    between atoms: C_1  and  N_2
REMARK    2  A    between atoms: N_2  and  C_3
REMARK    3  A    between atoms: C_4  and  C_6
REMARK    4  A    between atoms: C_14  and  N_15
REMARK    5  A    between atoms: N_15  and  C_16
REMARK    6  A    between atoms: N_25  and  O_26
REMARK                            x       y       z     vdW  Elec       q    Type
REMARK                         _______ _______ _______ _____ _____    ______ ____
ROOT
ATOM      1  C   UNL     1       4.992   5.497  17.670  0.00  0.00    +0.000 A 
ATOM      2  S   UNL     1       5.375   3.940  18.269  0.00  0.00    +0.000 S 
ATOM      3  C   UNL     1       3.732   3.485  18.409  0.00  0.00    +0.000 A 
ATOM      4  C   UNL     1       3.239   2.225  18.762  0.00  0.00    +0.000 A 
ATOM      5  N   UNL     1       1.907   2.022  18.883  0.00  0.00    +0.000 NA
ATOM      6  C   UNL     1       1.076   3.051  18.642  0.00  0.00    +0.000 A 
ATOM      7  C   UNL     1       1.492   4.314  18.258  0.00  0.00    +0.000 A 
ATOM      8  C   UNL     1       2.879   4.556  18.141  0.00  0.00    +0.000 A 
ATOM      9  C   UNL     1       3.627   5.738  17.765  0.00  0.00    +0.000 A 
ENDROOT
BRANCH   1  13
ATOM     10  C   UNL     1       8.042   7.749  17.855  0.00  0.00    +0.000 C 
ATOM     11  N   UNL     1       7.117   6.683  18.192  0.00  0.00    +0.000 N 
ATOM     12  C   UNL     1       7.523   5.772  19.254  0.00  0.00    +0.000 C 
ATOM     13  C   UNL     1       6.051   6.443  17.307  0.00  0.00    +0.000 C 
ATOM     14  O   UNL     1       6.030   7.012  16.215  0.00  0.00    +0.000 OA
ENDBRANCH   1  13
BRANCH   9  15
ATOM     15  N   UNL     1       3.063   6.946  17.439  0.00  0.00    +0.000 N 
ATOM     16  H   UNL     1       3.610   7.544  16.810  0.00  0.00    +0.000 HD
BRANCH  15  17
ATOM     17  C   UNL     1       2.282   7.806  18.258  0.00  0.00    +0.000 A 
ATOM     18  C   UNL     1       1.640   8.906  17.656  0.00  0.00    +0.000 A 
ATOM     19  C   UNL     1       0.867   9.803  18.408  0.00  0.00    +0.000 A 
ATOM     20  C   UNL     1       0.752   9.592  19.767  0.00  0.00    +0.000 A 
ATOM     21  C   UNL     1       1.365   8.500  20.380  0.00  0.00    +0.000 A 
ATOM     22  C   UNL     1       2.135   7.609  19.638  0.00  0.00    +0.000 A 
ATOM     23  C   UNL     1       1.106   8.422  21.850  0.00  0.00    +0.000 C 
ATOM     24  C   UNL     1       0.265   9.662  22.148  0.00  0.00    +0.000 C 
ATOM     25  C   UNL     1       0.062  10.353  20.815  0.00  0.00    +0.000 C 
ATOM     26  N   UNL     1      -0.621  11.451  20.776  0.00  0.00    +0.000 NA
BRANCH  26  27
ATOM     27  O   UNL     1      -0.707  12.005  19.500  0.00  0.00    +0.000 OA
ATOM     28  H   UNL     1      -0.153  11.399  18.974  0.00  0.00    +0.000 HD
ENDBRANCH  26  27
ENDBRANCH  15  17
ENDBRANCH   9  15
TORSDOF 4
ENDMDL
MODEL 6
REMARK VINA RESULT:      -7.9      1.602      4.117
REMARK  Name = 
REMARK  6 active torsions:
REMARK  status: ('A' for Active; 'I' for Inactive)
REMARK    1  A    between atoms: C_1  and  N_2
REMARK    2  A    between atoms: N_2  and  C_3
REMARK    3  A    between atoms: C_4  and  C_6
REMARK    4  A    between atoms: C_14  and  N_15
REMARK    5  A    between atoms: N_15  and  C_16
REMARK    6  A    between atoms: N_25  and  O_26
REMARK                            x       y       z     vdW  Elec       q    Type
REMARK                         _______ _______ _______ _____ _____    ______ ____
ROOT
ATOM      1  C   UNL     1       3.482   4.717  18.280  0.00  0.00    +0.000 A 
ATOM      2  S   UNL     1       4.895   3.770  18.469  0.00  0.00    +0.000 S 
ATOM      3  C   UNL     1       5.937   5.086  18.139  0.00  0.00    +0.000 A 
ATOM      4  C   UNL     1       7.333   5.089  18.218  0.00  0.00    +0.000 A 
ATOM      5  N   UNL     1       8.034   6.194  17.878  0.00  0.00    +0.000 NA
ATOM      6  C   UNL     1       7.358   7.286  17.479  0.00  0.00    +0.000 A 
ATOM      7  C   UNL     1       5.978   7.364  17.408  0.00  0.00    +0.000 A 
ATOM      8  C   UNL     1       5.224   6.217  17.743  0.00  0.00    +0.000 A 
ATOM      9  C   UNL     1       3.797   5.973  17.776  0.00  0.00    +0.000 A 
ENDROOT
BRANCH   1  13
ATOM     10  C   UNL     1       0.482   3.008  19.856  0.00  0.00    +0.000 C 
ATOM     11  N   UNL     1       1.735   3.734  19.754  0.00  0.00    +0.000 N 
ATOM     12  C   UNL     1       2.305   4.238  20.995  0.00  0.00    +0.000 C 
ATOM     13  C   UNL     1       2.154   4.130  18.471  0.00  0.00    +0.000 C 
ATOM     14  O   UNL     1       1.385   4.005  17.517  0.00  0.00    +0.000 OA
ENDBRANCH   1  13
BRANCH   9  15
ATOM     15  N   UNL     1       2.840   6.899  17.444  0.00  0.00    +0.000 N 
ATOM     16  H   UNL     1       2.930   7.328  16.515  0.00  0.00    +0.000 HD
BRANCH  15  17
ATOM     17  C   UNL     1       2.203   7.852  18.283  0.00  0.00    +0.000 A 
ATOM     18  C   UNL     1       1.782   9.072  17.718  0.00  0.00    +0.000 A 
ATOM     19  C   UNL     1       1.162  10.062  18.493  0.00  0.00    +0.000 A 
ATOM     20  C   UNL     1       0.978   9.823  19.840  0.00  0.00    +0.000 A 
ATOM     21  C   UNL     1       1.372   8.617  20.417  0.00  0.00    +0.000 A 
ATOM     22  C   UNL     1       1.990   7.631  19.651  0.00  0.00    +0.000 A 
ATOM     23  C   UNL     1       1.066   8.529  21.877  0.00  0.00    +0.000 C 
ATOM     24  C   UNL     1       0.452   9.887  22.212  0.00  0.00    +0.000 C 
ATOM     25  C   UNL     1       0.408  10.654  20.907  0.00  0.00    +0.000 C 
ATOM     26  N   UNL     1      -0.068  11.857  20.902  0.00  0.00    +0.000 NA
BRANCH  26  27
ATOM     27  O   UNL     1      -0.023  12.467  19.650  0.00  0.00    +0.000 OA
ATOM     28  H   UNL     1      -0.900  12.250  19.283  0.00  0.00    +0.000 HD
ENDBRANCH  26  27
ENDBRANCH  15  17
ENDBRANCH   9  15
TORSDOF 4
ENDMDL
MODEL 7
REMARK VINA RESULT:      -7.9      2.094      4.527
REMARK  Name = 
REMARK  6 active torsions:
REMARK  status: ('A' for Active; 'I' for Inactive)
REMARK    1  A    between atoms: C_1  and  N_2
REMARK    2  A    between atoms: N_2  and  C_3
REMARK    3  A    between atoms: C_4  and  C_6
REMARK    4  A    between atoms: C_14  and  N_15
REMARK    5  A    between atoms: N_15  and  C_16
REMARK    6  A    between atoms: N_25  and  O_26
REMARK                            x       y       z     vdW  Elec       q    Type
REMARK                         _______ _______ _______ _____ _____    ______ ____
ROOT
ATOM      1  C   UNL     1       3.716   4.552  19.116  0.00  0.00    +0.000 A 
ATOM      2  S   UNL     1       5.253   3.799  19.148  0.00  0.00    +0.000 S 
ATOM      3  C   UNL     1       6.035   5.147  18.443  0.00  0.00    +0.000 A 
ATOM      4  C   UNL     1       7.409   5.307  18.243  0.00  0.00    +0.000 A 
ATOM      5  N   UNL     1       7.886   6.412  17.624  0.00  0.00    +0.000 NA
ATOM      6  C   UNL     1       7.010   7.351  17.223  0.00  0.00    +0.000 A 
ATOM      7  C   UNL     1       5.642   7.273  17.416  0.00  0.00    +0.000 A 
ATOM      8  C   UNL     1       5.119   6.121  18.046  0.00  0.00    +0.000 A 
ATOM      9  C   UNL     1       3.766   5.738  18.394  0.00  0.00    +0.000 A 
ENDROOT
BRANCH   1  13
ATOM     10  C   UNL     1       0.548   2.474  19.345  0.00  0.00    +0.000 C 
ATOM     11  N   UNL     1       1.801   2.991  18.824  0.00  0.00    +0.000 N 
ATOM     12  C   UNL     1       2.333   2.346  17.632  0.00  0.00    +0.000 C 
ATOM     13  C   UNL     1       2.533   3.868  19.644  0.00  0.00    +0.000 C 
ATOM     14  O   UNL     1       2.188   4.033  20.814  0.00  0.00    +0.000 OA
ENDBRANCH   1  13
BRANCH   9  15
ATOM     15  N   UNL     1       2.651   6.496  18.134  0.00  0.00    +0.000 N 
ATOM     16  H   UNL     1       2.473   6.714  17.147  0.00  0.00    +0.000 HD
BRANCH  15  17
ATOM     17  C   UNL     1       2.108   7.561  18.902  0.00  0.00    +0.000 A 
ATOM     18  C   UNL     1       1.960   7.381  20.292  0.00  0.00    +0.000 A 
ATOM     19  C   UNL     1       1.417   8.385  21.106  0.00  0.00    +0.000 A 
ATOM     20  C   UNL     1       1.015   9.565  20.513  0.00  0.00    +0.000 A 
ATOM     21  C   UNL     1       1.167   9.771  19.143  0.00  0.00    +0.000 A 
ATOM     22  C   UNL     1       1.704   8.775  18.331  0.00  0.00    +0.000 A 
ATOM     23  C   UNL     1       0.702  11.117  18.689  0.00  0.00    +0.000 C 
ATOM     24  C   UNL     1       0.159  11.772  19.958  0.00  0.00    +0.000 C 
ATOM     25  C   UNL     1       0.387  10.769  21.070  0.00  0.00    +0.000 C 
ATOM     26  N   UNL     1       0.010  11.069  22.271  0.00  0.00    +0.000 NA
BRANCH  26  27
ATOM     27  O   UNL     1       0.244  10.052  23.196  0.00  0.00    +0.000 OA
ATOM     28  H   UNL     1       0.467   9.297  22.620  0.00  0.00    +0.000 HD
ENDBRANCH  26  27
ENDBRANCH  15  17
ENDBRANCH   9  15
TORSDOF 4
ENDMDL
MODEL 8
REMARK VINA RESULT:      -7.9      1.848      3.786
REMARK  Name = 
REMARK  6 active torsions:
REMARK  status: ('A' for Active; 'I' for Inactive)
REMARK    1  A    between atoms: C_1  and  N_2
REMARK    2  A    between atoms: N_2  and  C_3
REMARK    3  A    between atoms: C_4  and  C_6
REMARK    4  A    between atoms: C_14  and  N_15
REMARK    5  A    between atoms: N_15  and  C_16
REMARK    6  A    between atoms: N_25  and  O_26
REMARK                            x       y       z     vdW  Elec       q    Type
REMARK                         _______ _______ _______ _____ _____    ______ ____
ROOT
ATOM      1  C   UNL     1       2.746   4.360  18.960  0.00  0.00    +0.000 A 
ATOM      2  S   UNL     1       3.005   3.367  17.590  0.00  0.00    +0.000 S 
ATOM      3  C   UNL     1       4.069   4.488  16.858  0.00  0.00    +0.000 A 
ATOM      4  C   UNL     1       4.803   4.302  15.684  0.00  0.00    +0.000 A 
ATOM      5  N   UNL     1       5.572   5.301  15.192  0.00  0.00    +0.000 NA
ATOM      6  C   UNL     1       5.621   6.464  15.866  0.00  0.00    +0.000 A 
ATOM      7  C   UNL     1       4.947   6.706  17.050  0.00  0.00    +0.000 A 
ATOM      8  C   UNL     1       4.125   5.684  17.575  0.00  0.00    +0.000 A 
ATOM      9  C   UNL     1       3.307   5.617  18.768  0.00  0.00    +0.000 A 
ENDROOT
BRANCH   1  13
ATOM     10  C   UNL     1       1.296   2.347  21.832  0.00  0.00    +0.000 C 
ATOM     11  N   UNL     1       2.267   2.847  20.876  0.00  0.00    +0.000 N 
ATOM     12  C   UNL     1       3.642   2.395  21.038  0.00  0.00    +0.000 C 
ATOM     13  C   UNL     1       1.878   3.919  20.054  0.00  0.00    +0.000 C 
ATOM     14  O   UNL     1       0.816   4.501  20.280  0.00  0.00    +0.000 OA
ENDBRANCH   1  13
BRANCH   9  15
ATOM     15  N   UNL     1       3.165   6.638  19.675  0.00  0.00    +0.000 N 
ATOM     16  H   UNL     1       3.345   6.398  20.656  0.00  0.00    +0.000 HD
BRANCH  15  17
ATOM     17  C   UNL     1       2.219   7.698  19.670  0.00  0.00    +0.000 A 
ATOM     18  C   UNL     1       1.976   8.377  18.460  0.00  0.00    +0.000 A 
ATOM     19  C   UNL     1       1.068   9.443  18.389  0.00  0.00    +0.000 A 
ATOM     20  C   UNL     1       0.415   9.827  19.544  0.00  0.00    +0.000 A 
ATOM     21  C   UNL     1       0.629   9.159  20.748  0.00  0.00    +0.000 A 
ATOM     22  C   UNL     1       1.531   8.102  20.823  0.00  0.00    +0.000 A 
ATOM     23  C   UNL     1      -0.187   9.699  21.879  0.00  0.00    +0.000 C 
ATOM     24  C   UNL     1      -0.947  10.873  21.265  0.00  0.00    +0.000 C 
ATOM     25  C   UNL     1      -0.546  10.906  19.805  0.00  0.00    +0.000 C 
ATOM     26  N   UNL     1      -1.046  11.821  19.038  0.00  0.00    +0.000 NA
BRANCH  26  27
ATOM     27  O   UNL     1      -0.575  11.764  17.728  0.00  0.00    +0.000 OA
ATOM     28  H   UNL     1      -1.324  12.133  17.223  0.00  0.00    +0.000 HD
ENDBRANCH  26  27
ENDBRANCH  15  17
ENDBRANCH   9  15
TORSDOF 4
ENDMDL
MODEL 9
REMARK VINA RESULT:      -7.8      1.064      1.258
REMARK  Name = 
REMARK  6 active torsions:
REMARK  status: ('A' for Active; 'I' for Inactive)
REMARK    1  A    between atoms: C_1  and  N_2
REMARK    2  A    between atoms: N_2  and  C_3
REMARK    3  A    between atoms: C_4  and  C_6
REMARK    4  A    between atoms: C_14  and  N_15
REMARK    5  A    between atoms: N_15  and  C_16
REMARK    6  A    between atoms: N_25  and  O_26
REMARK                            x       y       z     vdW  Elec       q    Type
REMARK                         _______ _______ _______ _____ _____    ______ ____
ROOT
ATOM      1  C   UNL     1       4.595   4.761  18.672  0.00  0.00    +0.000 A 
ATOM      2  S   UNL     1       4.471   3.250  17.877  0.00  0.00    +0.000 S 
ATOM      3  C   UNL     1       2.830   3.045  18.316  0.00  0.00    +0.000 A 
ATOM      4  C   UNL     1       1.976   2.017  17.907  0.00  0.00    +0.000 A 
ATOM      5  N   UNL     1       0.709   1.954  18.376  0.00  0.00    +0.000 NA
ATOM      6  C   UNL     1       0.291   2.907  19.229  0.00  0.00    +0.000 A 
ATOM      7  C   UNL     1       1.071   3.969  19.651  0.00  0.00    +0.000 A 
ATOM      8  C   UNL     1       2.404   4.048  19.187  0.00  0.00    +0.000 A 
ATOM      9  C   UNL     1       3.458   5.012  19.430  0.00  0.00    +0.000 A 
ENDROOT
BRANCH   1  13
ATOM     10  C   UNL     1       7.485   6.915  17.484  0.00  0.00    +0.000 C 
ATOM     11  N   UNL     1       6.163   6.318  17.528  0.00  0.00    +0.000 N 
ATOM     12  C   UNL     1       5.186   6.816  16.570  0.00  0.00    +0.000 C 
ATOM     13  C   UNL     1       5.845   5.524  18.644  0.00  0.00    +0.000 C 
ATOM     14  O   UNL     1       6.612   5.497  19.607  0.00  0.00    +0.000 OA
ENDBRANCH   1  13
BRANCH   9  15
ATOM     15  N   UNL     1       3.335   6.113  20.241  0.00  0.00    +0.000 N 
ATOM     16  H   UNL     1       3.498   5.957  21.242  0.00  0.00    +0.000 HD
BRANCH  15  17
ATOM     17  C   UNL     1       2.419   7.194  20.130  0.00  0.00    +0.000 A 
ATOM     18  C   UNL     1       2.284   7.836  18.884  0.00  0.00    +0.000 A 
ATOM     19  C   UNL     1       1.411   8.919  18.710  0.00  0.00    +0.000 A 
ATOM     20  C   UNL     1       0.683   9.357  19.798  0.00  0.00    +0.000 A 
ATOM     21  C   UNL     1       0.789   8.726  21.037  0.00  0.00    +0.000 A 
ATOM     22  C   UNL     1       1.656   7.651  21.214  0.00  0.00    +0.000 A 
ATOM     23  C   UNL     1      -0.096   9.321  22.084  0.00  0.00    +0.000 C 
ATOM     24  C   UNL     1      -0.778  10.491  21.377  0.00  0.00    +0.000 C 
ATOM     25  C   UNL     1      -0.268  10.465  19.951  0.00  0.00    +0.000 C 
ATOM     26  N   UNL     1      -0.686  11.364  19.120  0.00  0.00    +0.000 NA
BRANCH  26  27
ATOM     27  O   UNL     1      -0.119  11.253  17.851  0.00  0.00    +0.000 OA
ATOM     28  H   UNL     1       0.567  11.946  17.870  0.00  0.00    +0.000 HD
ENDBRANCH  26  27
ENDBRANCH  15  17
ENDBRANCH   9  15
TORSDOF 4
ENDMDL
