MODEL 1
REMARK VINA RESULT:      -7.1      0.000      0.000
REMARK  Name = 
REMARK  6 active torsions:
REMARK  status: ('A' for Active; 'I' for Inactive)
REMARK    1  A    between atoms: O_1  and  C_2
REMARK    2  A    between atoms: C_2  and  C_3
REMARK    3  A    between atoms: C_3  and  C_4
REMARK    4  A    between atoms: C_3  and  C_13
REMARK    5  A    between atoms: C_4  and  C_5
REMARK    6  A    between atoms: C_5  and  C_6
REMARK                            x       y       z     vdW  Elec       q    Type
REMARK                         _______ _______ _______ _____ _____    ______ ____
ROOT
ATOM      1  C   UNL     1       1.614   3.924  20.323  0.00  0.00    +0.000 C 
ENDROOT
BRANCH   1   2
ATOM      2  C   UNL     1       2.628   3.800  19.188  0.00  0.00    +0.000 C 
ATOM      3  C   UNL     1       2.226   3.602  17.916  0.00  0.00    +0.000 C 
ATOM      4  C   UNL     1       3.161   3.642  16.731  0.00  0.00    +0.000 C 
ATOM      5  C   UNL     1       4.535   4.257  17.060  0.00  0.00    +0.000 C 
ATOM      6  C   UNL     1       5.052   3.682  18.375  0.00  0.00    +0.000 C 
ATOM      7  C   UNL     1       4.095   3.989  19.528  0.00  0.00    +0.000 C 
ATOM      8  O   UNL     1       5.470   3.948  16.010  0.00  0.00    +0.000 OA
ATOM      9  C   UNL     1       5.527   5.138  15.227  0.00  0.00    +0.000 C 
ATOM     10  C   UNL     1       5.348   6.230  16.246  0.00  0.00    +0.000 C 
ATOM     11  O   UNL     1       4.404   5.689  17.166  0.00  0.00    +0.000 OA
ENDBRANCH   1   2
BRANCH   1  12
ATOM     12  C   UNL     1       2.242   3.572  21.687  0.00  0.00    +0.000 C 
BRANCH  12  13
ATOM     13  O   UNL     1       1.560   2.472  22.284  0.00  0.00    +0.000 OA
ATOM     14  H   UNL     1       0.846   2.214  21.676  0.00  0.00    +0.000 HD
ENDBRANCH  12  13
ENDBRANCH   1  12
BRANCH   1  15
ATOM     15  C   UNL     1       0.957   5.323  20.381  0.00  0.00    +0.000 C 
BRANCH  15  16
ATOM     16  C   UNL     1       1.911   6.452  20.799  0.00  0.00    +0.000 C 
BRANCH  16  17
ATOM     17  C   UNL     1       1.757   7.645  19.875  0.00  0.00    +0.000 A 
ATOM     18  C   UNL     1       2.338   7.551  18.594  0.00  0.00    +0.000 A 
ATOM     19  C   UNL     1       2.315   8.629  17.708  0.00  0.00    +0.000 A 
ATOM     20  C   UNL     1       1.715   9.825  18.087  0.00  0.00    +0.000 A 
ATOM     21  C   UNL     1       1.125   9.936  19.345  0.00  0.00    +0.000 A 
ATOM     22  C   UNL     1       1.139   8.853  20.237  0.00  0.00    +0.000 A 
ATOM     23  I   UNL     1       0.200   9.163  22.090  0.00  0.00    +0.000 I 
ENDBRANCH  16  17
ENDBRANCH  15  16
ENDBRANCH   1  15
TORSDOF 6
ENDMDL
MODEL 2
REMARK VINA RESULT:      -6.8      3.104      5.822
REMARK  Name = 
REMARK  6 active torsions:
REMARK  status: ('A' for Active; 'I' for Inactive)
REMARK    1  A    between atoms: O_1  and  C_2
REMARK    2  A    between atoms: C_2  and  C_3
REMARK    3  A    between atoms: C_3  and  C_4
REMARK    4  A    between atoms: C_3  and  C_13
REMARK    5  A    between atoms: C_4  and  C_5
REMARK    6  A    between atoms: C_5  and  C_6
REMARK                            x       y       z     vdW  Elec       q    Type
REMARK                         _______ _______ _______ _____ _____    ______ ____
ROOT
ATOM      1  C   UNL     1       2.531   7.570  17.534  0.00  0.00    +0.000 C 
ENDROOT
BRANCH   1   2
ATOM      2  C   UNL     1       2.310   6.276  18.314  0.00  0.00    +0.000 C 
ATOM      3  C   UNL     1       1.819   5.175  17.707  0.00  0.00    +0.000 C 
ATOM      4  C   UNL     1       1.740   3.823  18.375  0.00  0.00    +0.000 C 
ATOM      5  C   UNL     1       2.567   3.733  19.672  0.00  0.00    +0.000 C 
ATOM      6  C   UNL     1       2.326   4.979  20.519  0.00  0.00    +0.000 C 
ATOM      7  C   UNL     1       2.736   6.248  19.769  0.00  0.00    +0.000 C 
ATOM      8  O   UNL     1       2.173   2.570  20.421  0.00  0.00    +0.000 OA
ATOM      9  C   UNL     1       3.184   1.607  20.134  0.00  0.00    +0.000 C 
ATOM     10  C   UNL     1       4.425   2.444  19.987  0.00  0.00    +0.000 C 
ATOM     11  O   UNL     1       3.966   3.627  19.338  0.00  0.00    +0.000 OA
ENDBRANCH   1   2
BRANCH   1  12
ATOM     12  C   UNL     1       1.908   8.782  18.257  0.00  0.00    +0.000 C 
BRANCH  12  13
ATOM     13  O   UNL     1       1.937   9.935  17.419  0.00  0.00    +0.000 OA
ATOM     14  H   UNL     1       2.622  10.528  17.772  0.00  0.00    +0.000 HD
ENDBRANCH  12  13
ENDBRANCH   1  12
BRANCH   1  15
ATOM     15  C   UNL     1       4.024   7.835  17.234  0.00  0.00    +0.000 C 
BRANCH  15  16
ATOM     16  C   UNL     1       4.659   6.838  16.253  0.00  0.00    +0.000 C 
BRANCH  16  17
ATOM     17  C   UNL     1       5.747   6.036  16.941  0.00  0.00    +0.000 A 
ATOM     18  C   UNL     1       6.076   6.392  18.265  0.00  0.00    +0.000 A 
ATOM     19  C   UNL     1       7.117   5.762  18.947  0.00  0.00    +0.000 A 
ATOM     20  C   UNL     1       7.855   4.765  18.317  0.00  0.00    +0.000 A 
ATOM     21  C   UNL     1       7.539   4.389  17.012  0.00  0.00    +0.000 A 
ATOM     22  C   UNL     1       6.489   5.015  16.325  0.00  0.00    +0.000 A 
ATOM     23  I   UNL     1       6.122   4.336  14.371  0.00  0.00    +0.000 I 
ENDBRANCH  16  17
ENDBRANCH  15  16
ENDBRANCH   1  15
TORSDOF 6
ENDMDL
MODEL 3
REMARK VINA RESULT:      -6.8      2.034      3.011
REMARK  Name = 
REMARK  6 active torsions:
REMARK  status: ('A' for Active; 'I' for Inactive)
REMARK    1  A    between atoms: O_1  and  C_2
REMARK    2  A    between atoms: C_2  and  C_3
REMARK    3  A    between atoms: C_3  and  C_4
REMARK    4  A    between atoms: C_3  and  C_13
REMARK    5  A    between atoms: C_4  and  C_5
REMARK    6  A    between atoms: C_5  and  C_6
REMARK                            x       y       z     vdW  Elec       q    Type
REMARK                         _______ _______ _______ _____ _____    ______ ____
ROOT
ATOM      1  C   UNL     1       1.858   5.519  19.847  0.00  0.00    +0.000 C 
ENDROOT
BRANCH   1   2
ATOM      2  C   UNL     1       3.180   5.706  19.106  0.00  0.00    +0.000 C 
ATOM      3  C   UNL     1       4.335   5.233  19.619  0.00  0.00    +0.000 C 
ATOM      4  C   UNL     1       5.641   5.231  18.863  0.00  0.00    +0.000 C 
ATOM      5  C   UNL     1       5.474   5.502  17.355  0.00  0.00    +0.000 C 
ATOM      6  C   UNL     1       4.515   6.669  17.148  0.00  0.00    +0.000 C 
ATOM      7  C   UNL     1       3.138   6.368  17.742  0.00  0.00    +0.000 C 
ATOM      8  O   UNL     1       6.750   5.830  16.775  0.00  0.00    +0.000 OA
ATOM      9  C   UNL     1       7.172   4.622  16.145  0.00  0.00    +0.000 C 
ATOM     10  C   UNL     1       5.882   4.009  15.675  0.00  0.00    +0.000 C 
ATOM     11  O   UNL     1       4.956   4.318  16.713  0.00  0.00    +0.000 OA
ENDBRANCH   1   2
BRANCH   1  12
ATOM     12  C   UNL     1       1.787   4.146  20.546  0.00  0.00    +0.000 C 
BRANCH  12  13
ATOM     13  O   UNL     1       0.494   3.568  20.387  0.00  0.00    +0.000 OA
ATOM     14  H   UNL     1       0.293   3.576  19.436  0.00  0.00    +0.000 HD
ENDBRANCH  12  13
ENDBRANCH   1  12
BRANCH   1  15
ATOM     15  C   UNL     1       1.582   6.652  20.863  0.00  0.00    +0.000 C 
BRANCH  15  16
ATOM     16  C   UNL     1       1.666   8.067  20.271  0.00  0.00    +0.000 C 
BRANCH  16  17
ATOM     17  C   UNL     1       0.823   9.032  21.082  0.00  0.00    +0.000 A 
ATOM     18  C   UNL     1       0.824   8.874  22.483  0.00  0.00    +0.000 A 
ATOM     19  C   UNL     1       0.017   9.665  23.302  0.00  0.00    +0.000 A 
ATOM     20  C   UNL     1      -0.813  10.627  22.736  0.00  0.00    +0.000 A 
ATOM     21  C   UNL     1      -0.823  10.806  21.353  0.00  0.00    +0.000 A 
ATOM     22  C   UNL     1      -0.008  10.019  20.526  0.00  0.00    +0.000 A 
ATOM     23  I   UNL     1      -0.118  10.413  18.466  0.00  0.00    +0.000 I 
ENDBRANCH  16  17
ENDBRANCH  15  16
ENDBRANCH   1  15
TORSDOF 6
ENDMDL
MODEL 4
REMARK VINA RESULT:      -6.7      1.433      1.823
REMARK  Name = 
REMARK  6 active torsions:
REMARK  status: ('A' for Active; 'I' for Inactive)
REMARK    1  A    between atoms: O_1  and  C_2
REMARK    2  A    between atoms: C_2  and  C_3
REMARK    3  A    between atoms: C_3  and  C_4
REMARK    4  A    between atoms: C_3  and  C_13
REMARK    5  A    between atoms: C_4  and  C_5
REMARK    6  A    between atoms: C_5  and  C_6
REMARK                            x       y       z     vdW  Elec       q    Type
REMARK                         _______ _______ _______ _____ _____    ______ ____
ROOT
ATOM      1  C   UNL     1       1.978   5.404  19.739  0.00  0.00    +0.000 C 
ENDROOT
BRANCH   1   2
ATOM      2  C   UNL     1       2.953   5.122  18.598  0.00  0.00    +0.000 C 
ATOM      3  C   UNL     1       3.384   6.115  17.793  0.00  0.00    +0.000 C 
ATOM      4  C   UNL     1       4.473   5.938  16.762  0.00  0.00    +0.000 C 
ATOM      5  C   UNL     1       5.273   4.632  16.939  0.00  0.00    +0.000 C 
ATOM      6  C   UNL     1       4.313   3.474  17.191  0.00  0.00    +0.000 C 
ATOM      7  C   UNL     1       3.481   3.708  18.453  0.00  0.00    +0.000 C 
ATOM      8  O   UNL     1       6.035   4.364  15.749  0.00  0.00    +0.000 OA
ATOM      9  C   UNL     1       7.356   4.794  16.071  0.00  0.00    +0.000 C 
ATOM     10  C   UNL     1       7.472   4.481  17.537  0.00  0.00    +0.000 C 
ATOM     11  O   UNL     1       6.176   4.774  18.055  0.00  0.00    +0.000 OA
ENDBRANCH   1   2
BRANCH   1  12
ATOM     12  C   UNL     1       1.957   4.252  20.765  0.00  0.00    +0.000 C 
BRANCH  12  13
ATOM     13  O   UNL     1       0.727   3.535  20.688  0.00  0.00    +0.000 OA
ATOM     14  H   UNL     1       0.866   2.793  20.075  0.00  0.00    +0.000 HD
ENDBRANCH  12  13
ENDBRANCH   1  12
BRANCH   1  15
ATOM     15  C   UNL     1       2.267   6.747  20.448  0.00  0.00    +0.000 C 
BRANCH  15  16
ATOM     16  C   UNL     1       1.010   7.505  20.904  0.00  0.00    +0.000 C 
BRANCH  16  17
ATOM     17  C   UNL     1       0.950   8.871  20.250  0.00  0.00    +0.000 A 
ATOM     18  C   UNL     1       1.496   8.997  18.957  0.00  0.00    +0.000 A 
ATOM     19  C   UNL     1       1.556  10.233  18.312  0.00  0.00    +0.000 A 
ATOM     20  C   UNL     1       1.074  11.371  18.949  0.00  0.00    +0.000 A 
ATOM     21  C   UNL     1       0.519  11.268  20.225  0.00  0.00    +0.000 A 
ATOM     22  C   UNL     1       0.451  10.027  20.874  0.00  0.00    +0.000 A 
ATOM     23  I   UNL     1      -0.422  10.025  22.785  0.00  0.00    +0.000 I 
ENDBRANCH  16  17
ENDBRANCH  15  16
ENDBRANCH   1  15
TORSDOF 6
ENDMDL
MODEL 5
REMARK VINA RESULT:      -6.7      1.034      1.246
REMARK  Name = 
REMARK  6 active torsions:
REMARK  status: ('A' for Active; 'I' for Inactive)
REMARK    1  A    between atoms: O_1  and  C_2
REMARK    2  A    between atoms: C_2  and  C_3
REMARK    3  A    between atoms: C_3  and  C_4
REMARK    4  A    between atoms: C_3  and  C_13
REMARK    5  A    between atoms: C_4  and  C_5
REMARK    6  A    between atoms: C_5  and  C_6
REMARK                            x       y       z     vdW  Elec       q    Type
REMARK                         _______ _______ _______ _____ _____    ______ ____
ROOT
ATOM      1  C   UNL     1       2.051   5.164  19.869  0.00  0.00    +0.000 C 
ENDROOT
BRANCH   1   2
ATOM      2  C   UNL     1       3.098   4.620  18.899  0.00  0.00    +0.000 C 
ATOM      3  C   UNL     1       2.742   3.830  17.865  0.00  0.00    +0.000 C 
ATOM      4  C   UNL     1       3.697   3.403  16.777  0.00  0.00    +0.000 C 
ATOM      5  C   UNL     1       5.010   4.210  16.766  0.00  0.00    +0.000 C 
ATOM      6  C   UNL     1       5.541   4.342  18.190  0.00  0.00    +0.000 C 
ATOM      7  C   UNL     1       4.536   5.063  19.091  0.00  0.00    +0.000 C 
ATOM      8  O   UNL     1       5.990   3.534  15.958  0.00  0.00    +0.000 OA
ATOM      9  C   UNL     1       5.969   4.236  14.717  0.00  0.00    +0.000 C 
ATOM     10  C   UNL     1       5.679   5.653  15.127  0.00  0.00    +0.000 C 
ATOM     11  O   UNL     1       4.761   5.517  16.209  0.00  0.00    +0.000 OA
ENDBRANCH   1   2
BRANCH   1  12
ATOM     12  C   UNL     1       1.805   4.192  21.042  0.00  0.00    +0.000 C 
BRANCH  12  13
ATOM     13  O   UNL     1       0.698   3.340  20.762  0.00  0.00    +0.000 OA
ATOM     14  H   UNL     1       0.274   3.133  21.613  0.00  0.00    +0.000 HD
ENDBRANCH  12  13
ENDBRANCH   1  12
BRANCH   1  15
ATOM     15  C   UNL     1       2.412   6.568  20.404  0.00  0.00    +0.000 C 
BRANCH  15  16
ATOM     16  C   UNL     1       1.214   7.371  20.934  0.00  0.00    +0.000 C 
BRANCH  16  17
ATOM     17  C   UNL     1       1.104   8.699  20.211  0.00  0.00    +0.000 A 
ATOM     18  C   UNL     1       1.656   8.780  18.916  0.00  0.00    +0.000 A 
ATOM     19  C   UNL     1       1.672   9.983  18.209  0.00  0.00    +0.000 A 
ATOM     20  C   UNL     1       1.139  11.132  18.784  0.00  0.00    +0.000 A 
ATOM     21  C   UNL     1       0.578  11.072  20.059  0.00  0.00    +0.000 A 
ATOM     22  C   UNL     1       0.554   9.864  20.771  0.00  0.00    +0.000 A 
ATOM     23  I   UNL     1      -0.335   9.924  22.674  0.00  0.00    +0.000 I 
ENDBRANCH  16  17
ENDBRANCH  15  16
ENDBRANCH   1  15
TORSDOF 6
ENDMDL
MODEL 6
REMARK VINA RESULT:      -6.6      1.419      2.029
REMARK  Name = 
REMARK  6 active torsions:
REMARK  status: ('A' for Active; 'I' for Inactive)
REMARK    1  A    between atoms: O_1  and  C_2
REMARK    2  A    between atoms: C_2  and  C_3
REMARK    3  A    between atoms: C_3  and  C_4
REMARK    4  A    between atoms: C_3  and  C_13
REMARK    5  A    between atoms: C_4  and  C_5
REMARK    6  A    between atoms: C_5  and  C_6
REMARK                            x       y       z     vdW  Elec       q    Type
REMARK                         _______ _______ _______ _____ _____    ______ ____
ROOT
ATOM      1  C   UNL     1       1.437   4.458  20.136  0.00  0.00    +0.000 C 
ENDROOT
BRANCH   1   2
ATOM      2  C   UNL     1       2.520   4.162  19.101  0.00  0.00    +0.000 C 
ATOM      3  C   UNL     1       2.197   3.726  17.865  0.00  0.00    +0.000 C 
ATOM      4  C   UNL     1       3.201   3.580  16.746  0.00  0.00    +0.000 C 
ATOM      5  C   UNL     1       4.542   4.282  17.034  0.00  0.00    +0.000 C 
ATOM      6  C   UNL     1       4.989   3.968  18.458  0.00  0.00    +0.000 C 
ATOM      7  C   UNL     1       3.959   4.451  19.482  0.00  0.00    +0.000 C 
ATOM      8  O   UNL     1       5.543   3.816  16.111  0.00  0.00    +0.000 OA
ATOM      9  C   UNL     1       5.625   4.847  15.130  0.00  0.00    +0.000 C 
ATOM     10  C   UNL     1       5.366   6.099  15.922  0.00  0.00    +0.000 C 
ATOM     11  O   UNL     1       4.378   5.706  16.872  0.00  0.00    +0.000 OA
ENDBRANCH   1   2
BRANCH   1  12
ATOM     12  C   UNL     1       1.233   3.271  21.100  0.00  0.00    +0.000 C 
BRANCH  12  13
ATOM     13  O   UNL     1       2.168   3.331  22.174  0.00  0.00    +0.000 OA
ATOM     14  H   UNL     1       2.265   4.267  22.416  0.00  0.00    +0.000 HD
ENDBRANCH  12  13
ENDBRANCH   1  12
BRANCH   1  15
ATOM     15  C   UNL     1       1.718   5.752  20.934  0.00  0.00    +0.000 C 
BRANCH  15  16
ATOM     16  C   UNL     1       1.948   6.996  20.061  0.00  0.00    +0.000 C 
BRANCH  16  17
ATOM     17  C   UNL     1       1.238   8.198  20.653  0.00  0.00    +0.000 A 
ATOM     18  C   UNL     1       0.755   8.081  21.972  0.00  0.00    +0.000 A 
ATOM     19  C   UNL     1       0.020   9.106  22.569  0.00  0.00    +0.000 A 
ATOM     20  C   UNL     1      -0.250  10.269  21.856  0.00  0.00    +0.000 A 
ATOM     21  C   UNL     1       0.227  10.411  20.553  0.00  0.00    +0.000 A 
ATOM     22  C   UNL     1       0.972   9.386  19.952  0.00  0.00    +0.000 A 
ATOM     23  I   UNL     1       1.636   9.746  17.992  0.00  0.00    +0.000 I 
ENDBRANCH  16  17
ENDBRANCH  15  16
ENDBRANCH   1  15
TORSDOF 6
ENDMDL
MODEL 7
REMARK VINA RESULT:      -6.5      3.685      7.099
REMARK  Name = 
REMARK  6 active torsions:
REMARK  status: ('A' for Active; 'I' for Inactive)
REMARK    1  A    between atoms: O_1  and  C_2
REMARK    2  A    between atoms: C_2  and  C_3
REMARK    3  A    between atoms: C_3  and  C_4
REMARK    4  A    between atoms: C_3  and  C_13
REMARK    5  A    between atoms: C_4  and  C_5
REMARK    6  A    between atoms: C_5  and  C_6
REMARK                            x       y       z     vdW  Elec       q    Type
REMARK                         _______ _______ _______ _____ _____    ______ ____
ROOT
ATOM      1  C   UNL     1       2.083   7.447  20.330  0.00  0.00    +0.000 C 
ENDROOT
BRANCH   1   2
ATOM      2  C   UNL     1       1.109   8.572  20.676  0.00  0.00    +0.000 C 
ATOM      3  C   UNL     1       0.749   8.808  21.955  0.00  0.00    +0.000 C 
ATOM      4  C   UNL     1      -0.068  10.004  22.381  0.00  0.00    +0.000 C 
ATOM      5  C   UNL     1      -0.168  11.093  21.296  0.00  0.00    +0.000 C 
ATOM      6  C   UNL     1      -0.472  10.447  19.948  0.00  0.00    +0.000 C 
ATOM      7  C   UNL     1       0.627   9.460  19.546  0.00  0.00    +0.000 C 
ATOM      8  O   UNL     1      -1.222  12.014  21.626  0.00  0.00    +0.000 OA
ATOM      9  C   UNL     1      -0.547  13.139  22.185  0.00  0.00    +0.000 C 
ATOM     10  C   UNL     1       0.743  13.185  21.412  0.00  0.00    +0.000 C 
ATOM     11  O   UNL     1       1.081  11.812  21.227  0.00  0.00    +0.000 OA
ENDBRANCH   1   2
BRANCH   1  12
ATOM     12  C   UNL     1       1.513   6.065  20.711  0.00  0.00    +0.000 C 
BRANCH  12  13
ATOM     13  O   UNL     1       2.505   5.276  21.363  0.00  0.00    +0.000 OA
ATOM     14  H   UNL     1       2.049   4.740  22.033  0.00  0.00    +0.000 HD
ENDBRANCH  12  13
ENDBRANCH   1  12
BRANCH   1  15
ATOM     15  C   UNL     1       2.501   7.462  18.842  0.00  0.00    +0.000 C 
BRANCH  15  16
ATOM     16  C   UNL     1       2.268   6.134  18.106  0.00  0.00    +0.000 C 
BRANCH  16  17
ATOM     17  C   UNL     1       3.561   5.634  17.492  0.00  0.00    +0.000 A 
ATOM     18  C   UNL     1       4.486   6.601  17.050  0.00  0.00    +0.000 A 
ATOM     19  C   UNL     1       5.665   6.234  16.401  0.00  0.00    +0.000 A 
ATOM     20  C   UNL     1       5.942   4.890  16.176  0.00  0.00    +0.000 A 
ATOM     21  C   UNL     1       5.046   3.915  16.614  0.00  0.00    +0.000 A 
ATOM     22  C   UNL     1       3.863   4.279  17.273  0.00  0.00    +0.000 A 
ATOM     23  I   UNL     1       2.617   2.703  17.887  0.00  0.00    +0.000 I 
ENDBRANCH  16  17
ENDBRANCH  15  16
ENDBRANCH   1  15
TORSDOF 6
ENDMDL
MODEL 8
REMARK VINA RESULT:      -6.4      2.028      2.680
REMARK  Name = 
REMARK  6 active torsions:
REMARK  status: ('A' for Active; 'I' for Inactive)
REMARK    1  A    between atoms: O_1  and  C_2
REMARK    2  A    between atoms: C_2  and  C_3
REMARK    3  A    between atoms: C_3  and  C_4
REMARK    4  A    between atoms: C_3  and  C_13
REMARK    5  A    between atoms: C_4  and  C_5
REMARK    6  A    between atoms: C_5  and  C_6
REMARK                            x       y       z     vdW  Elec       q    Type
REMARK                         _______ _______ _______ _____ _____    ______ ____
ROOT
ATOM      1  C   UNL     1       1.541   5.218  19.956  0.00  0.00    +0.000 C 
ENDROOT
BRANCH   1   2
ATOM      2  C   UNL     1       2.767   4.908  19.100  0.00  0.00    +0.000 C 
ATOM      3  C   UNL     1       2.990   5.566  17.943  0.00  0.00    +0.000 C 
ATOM      4  C   UNL     1       4.262   5.432  17.141  0.00  0.00    +0.000 C 
ATOM      5  C   UNL     1       5.404   4.749  17.919  0.00  0.00    +0.000 C 
ATOM      6  C   UNL     1       4.866   3.519  18.643  0.00  0.00    +0.000 C 
ATOM      7  C   UNL     1       3.763   3.896  19.633  0.00  0.00    +0.000 C 
ATOM      8  O   UNL     1       6.440   4.345  17.006  0.00  0.00    +0.000 OA
ATOM      9  C   UNL     1       7.439   5.355  17.136  0.00  0.00    +0.000 C 
ATOM     10  C   UNL     1       7.349   5.743  18.587  0.00  0.00    +0.000 C 
ATOM     11  O   UNL     1       5.954   5.681  18.873  0.00  0.00    +0.000 OA
ENDBRANCH   1   2
BRANCH   1  12
ATOM     12  C   UNL     1       1.098   3.990  20.778  0.00  0.00    +0.000 C 
BRANCH  12  13
ATOM     13  O   UNL     1       0.329   3.099  19.974  0.00  0.00    +0.000 OA
ATOM     14  H   UNL     1       0.847   2.922  19.170  0.00  0.00    +0.000 HD
ENDBRANCH  12  13
ENDBRANCH   1  12
BRANCH   1  15
ATOM     15  C   UNL     1       1.759   6.434  20.885  0.00  0.00    +0.000 C 
BRANCH  15  16
ATOM     16  C   UNL     1       1.760   7.790  20.163  0.00  0.00    +0.000 C 
BRANCH  16  17
ATOM     17  C   UNL     1       0.964   8.812  20.951  0.00  0.00    +0.000 A 
ATOM     18  C   UNL     1       0.934   8.668  22.354  0.00  0.00    +0.000 A 
ATOM     19  C   UNL     1       0.163   9.514  23.152  0.00  0.00    +0.000 A 
ATOM     20  C   UNL     1      -0.598  10.518  22.565  0.00  0.00    +0.000 A 
ATOM     21  C   UNL     1      -0.575  10.685  21.180  0.00  0.00    +0.000 A 
ATOM     22  C   UNL     1       0.204   9.842  20.374  0.00  0.00    +0.000 A 
ATOM     23  I   UNL     1       0.149  10.221  18.308  0.00  0.00    +0.000 I 
ENDBRANCH  16  17
ENDBRANCH  15  16
ENDBRANCH   1  15
TORSDOF 6
ENDMDL
MODEL 9
REMARK VINA RESULT:      -6.3      2.098      3.048
REMARK  Name = 
REMARK  6 active torsions:
REMARK  status: ('A' for Active; 'I' for Inactive)
REMARK    1  A    between atoms: O_1  and  C_2
REMARK    2  A    between atoms: C_2  and  C_3
REMARK    3  A    between atoms: C_3  and  C_4
REMARK    4  A    between atoms: C_3  and  C_13
REMARK    5  A    between atoms: C_4  and  C_5
REMARK    6  A    between atoms: C_5  and  C_6
REMARK                            x       y       z     vdW  Elec       q    Type
REMARK                         _______ _______ _______ _____ _____    ______ ____
ROOT
ATOM      1  C   UNL     1       2.005   6.306  19.400  0.00  0.00    +0.000 C 
ENDROOT
BRANCH   1   2
ATOM      2  C   UNL     1       2.982   5.872  18.310  0.00  0.00    +0.000 C 
ATOM      3  C   UNL     1       3.608   6.783  17.537  0.00  0.00    +0.000 C 
ATOM      4  C   UNL     1       4.708   6.433  16.564  0.00  0.00    +0.000 C 
ATOM      5  C   UNL     1       5.280   5.017  16.772  0.00  0.00    +0.000 C 
ATOM      6  C   UNL     1       4.136   4.027  16.963  0.00  0.00    +0.000 C 
ATOM      7  C   UNL     1       3.285   4.391  18.182  0.00  0.00    +0.000 C 
ATOM      8  O   UNL     1       6.051   4.630  15.621  0.00  0.00    +0.000 OA
ATOM      9  C   UNL     1       7.405   4.844  16.015  0.00  0.00    +0.000 C 
ATOM     10  C   UNL     1       7.392   4.518  17.484  0.00  0.00    +0.000 C 
ATOM     11  O   UNL     1       6.134   5.014  17.934  0.00  0.00    +0.000 OA
ENDBRANCH   1   2
BRANCH   1  12
ATOM     12  C   UNL     1       2.046   5.352  20.612  0.00  0.00    +0.000 C 
BRANCH  12  13
ATOM     13  O   UNL     1       0.873   4.544  20.654  0.00  0.00    +0.000 OA
ATOM     14  H   UNL     1       0.117   5.129  20.473  0.00  0.00    +0.000 HD
ENDBRANCH  12  13
ENDBRANCH   1  12
BRANCH   1  15
ATOM     15  C   UNL     1       2.238   7.764  19.859  0.00  0.00    +0.000 C 
BRANCH  15  16
ATOM     16  C   UNL     1       1.139   8.746  19.426  0.00  0.00    +0.000 C 
BRANCH  16  17
ATOM     17  C   UNL     1       0.555   9.454  20.633  0.00  0.00    +0.000 A 
ATOM     18  C   UNL     1       0.057   8.649  21.678  0.00  0.00    +0.000 A 
ATOM     19  C   UNL     1      -0.570   9.211  22.790  0.00  0.00    +0.000 A 
ATOM     20  C   UNL     1      -0.718  10.591  22.878  0.00  0.00    +0.000 A 
ATOM     21  C   UNL     1      -0.224  11.407  21.860  0.00  0.00    +0.000 A 
ATOM     22  C   UNL     1       0.414  10.847  20.744  0.00  0.00    +0.000 A 
ATOM     23  I   UNL     1       1.118  12.200  19.300  0.00  0.00    +0.000 I 
ENDBRANCH  16  17
ENDBRANCH  15  16
ENDBRANCH   1  15
TORSDOF 6
ENDMDL
