MODEL 1
REMARK VINA RESULT:      -7.4      0.000      0.000
REMARK  Name = 
REMARK  5 active torsions:
REMARK  status: ('A' for Active; 'I' for Inactive)
REMARK    1  A    between atoms: N_3  and  C_4
REMARK    2  A    between atoms: C_4  and  C_5
REMARK    3  A    between atoms: C_14  and  O_15
REMARK    4  A    between atoms: C_14  and  C_16
REMARK    5  A    between atoms: C_16  and  N_17
REMARK                            x       y       z     vdW  Elec       q    Type
REMARK                         _______ _______ _______ _____ _____    ______ ____
ROOT
ATOM      1  O   UNL     1       4.776   3.495  16.854  0.00  0.00    +0.000 OA
ATOM      2  C   UNL     1       5.193   4.583  17.232  0.00  0.00    +0.000 C 
ATOM      3  N   UNL     1       5.136   4.994  18.573  0.00  0.00    +0.000 N 
ATOM      4  C   UNL     1       6.412   5.366  19.181  0.00  0.00    +0.000 C 
ATOM      5  C   UNL     1       7.202   6.367  18.333  0.00  0.00    +0.000 C 
ATOM      6  C   UNL     1       7.222   5.968  16.849  0.00  0.00    +0.000 C 
ATOM      7  C   UNL     1       5.788   5.706  16.350  0.00  0.00    +0.000 C 
ENDROOT
BRANCH   7   8
ATOM      8  O   UNL     1       5.081   6.941  16.591  0.00  0.00    +0.000 OA
ATOM      9  H   UNL     1       4.186   6.809  16.227  0.00  0.00    +0.000 HD
ENDBRANCH   7   8
BRANCH   3  10
ATOM     10  C   UNL     1       4.026   4.553  19.411  0.00  0.00    +0.000 C 
BRANCH  10  11
ATOM     11  C   UNL     1       2.648   5.222  19.245  0.00  0.00    +0.000 C 
ATOM     12  C   UNL     1       1.782   4.649  18.120  0.00  0.00    +0.000 C 
ATOM     13  C   UNL     1       1.372   3.200  18.362  0.00  0.00    +0.000 C 
ATOM     14  C   UNL     1       0.704   2.995  19.720  0.00  0.00    +0.000 C 
ATOM     15  C   UNL     1       1.439   3.666  20.879  0.00  0.00    +0.000 C 
ATOM     16  C   UNL     1       1.855   5.105  20.565  0.00  0.00    +0.000 C 
ENDBRANCH  10  11
ENDBRANCH   3  10
BRANCH   7  17
ATOM     17  C   UNL     1       5.747   5.379  14.831  0.00  0.00    +0.000 C 
BRANCH  17  18
ATOM     18  N   UNL     1       6.720   4.384  14.316  0.00  0.00    +0.000 NA
ATOM     19  C   UNL     1       7.789   5.020  13.532  0.00  0.00    +0.000 C 
ATOM     20  C   UNL     1       7.273   5.002  12.106  0.00  0.00    +0.000 C 
ATOM     21  C   UNL     1       6.605   3.646  12.018  0.00  0.00    +0.000 C 
ATOM     22  C   UNL     1       6.157   3.343  13.444  0.00  0.00    +0.000 C 
ENDBRANCH  17  18
ENDBRANCH   7  17
TORSDOF 5
ENDMDL
MODEL 2
REMARK VINA RESULT:      -7.1      1.112      1.700
REMARK  Name = 
REMARK  5 active torsions:
REMARK  status: ('A' for Active; 'I' for Inactive)
REMARK    1  A    between atoms: N_3  and  C_4
REMARK    2  A    between atoms: C_4  and  C_5
REMARK    3  A    between atoms: C_14  and  O_15
REMARK    4  A    between atoms: C_14  and  C_16
REMARK    5  A    between atoms: C_16  and  N_17
REMARK                            x       y       z     vdW  Elec       q    Type
REMARK                         _______ _______ _______ _____ _____    ______ ____
ROOT
ATOM      1  O   UNL     1       4.893   3.209  16.638  0.00  0.00    +0.000 OA
ATOM      2  C   UNL     1       5.347   4.222  17.157  0.00  0.00    +0.000 C 
ATOM      3  N   UNL     1       4.765   4.824  18.285  0.00  0.00    +0.000 N 
ATOM      4  C   UNL     1       5.642   4.989  19.442  0.00  0.00    +0.000 C 
ATOM      5  C   UNL     1       6.972   5.659  19.086  0.00  0.00    +0.000 C 
ATOM      6  C   UNL     1       7.593   5.057  17.817  0.00  0.00    +0.000 C 
ATOM      7  C   UNL     1       6.561   5.048  16.673  0.00  0.00    +0.000 C 
ENDROOT
BRANCH   7   8
ATOM      8  O   UNL     1       6.177   6.430  16.509  0.00  0.00    +0.000 OA
ATOM      9  H   UNL     1       5.327   6.525  16.976  0.00  0.00    +0.000 HD
ENDBRANCH   7   8
BRANCH   3  10
ATOM     10  C   UNL     1       3.319   4.762  18.464  0.00  0.00    +0.000 C 
BRANCH  10  11
ATOM     11  C   UNL     1       2.620   3.388  18.466  0.00  0.00    +0.000 C 
ATOM     12  C   UNL     1       3.189   2.375  19.463  0.00  0.00    +0.000 C 
ATOM     13  C   UNL     1       2.998   2.797  20.916  0.00  0.00    +0.000 C 
ATOM     14  C   UNL     1       1.545   3.131  21.249  0.00  0.00    +0.000 C 
ATOM     15  C   UNL     1       0.864   4.027  20.216  0.00  0.00    +0.000 C 
ATOM     16  C   UNL     1       1.119   3.573  18.776  0.00  0.00    +0.000 C 
ENDBRANCH  10  11
ENDBRANCH   3  10
BRANCH   7  17
ATOM     17  C   UNL     1       7.168   4.524  15.341  0.00  0.00    +0.000 C 
BRANCH  17  18
ATOM     18  N   UNL     1       6.662   5.116  14.077  0.00  0.00    +0.000 NA
ATOM     19  C   UNL     1       5.506   4.375  13.551  0.00  0.00    +0.000 C 
ATOM     20  C   UNL     1       6.111   3.338  12.625  0.00  0.00    +0.000 C 
ATOM     21  C   UNL     1       7.226   4.112  11.953  0.00  0.00    +0.000 C 
ATOM     22  C   UNL     1       7.632   5.169  12.973  0.00  0.00    +0.000 C 
ENDBRANCH  17  18
ENDBRANCH   7  17
TORSDOF 5
ENDMDL
MODEL 3
REMARK VINA RESULT:      -7.1      0.785      1.157
REMARK  Name = 
REMARK  5 active torsions:
REMARK  status: ('A' for Active; 'I' for Inactive)
REMARK    1  A    between atoms: N_3  and  C_4
REMARK    2  A    between atoms: C_4  and  C_5
REMARK    3  A    between atoms: C_14  and  O_15
REMARK    4  A    between atoms: C_14  and  C_16
REMARK    5  A    between atoms: C_16  and  N_17
REMARK                            x       y       z     vdW  Elec       q    Type
REMARK                         _______ _______ _______ _____ _____    ______ ____
ROOT
ATOM      1  O   UNL     1       4.845   2.823  17.747  0.00  0.00    +0.000 OA
ATOM      2  C   UNL     1       5.210   3.991  17.700  0.00  0.00    +0.000 C 
ATOM      3  N   UNL     1       5.071   4.874  18.784  0.00  0.00    +0.000 N 
ATOM      4  C   UNL     1       6.303   5.506  19.253  0.00  0.00    +0.000 C 
ATOM      5  C   UNL     1       7.106   6.149  18.119  0.00  0.00    +0.000 C 
ATOM      6  C   UNL     1       7.215   5.222  16.899  0.00  0.00    +0.000 C 
ATOM      7  C   UNL     1       5.817   4.725  16.483  0.00  0.00    +0.000 C 
ENDROOT
BRANCH   7   8
ATOM      8  O   UNL     1       5.064   5.926  16.211  0.00  0.00    +0.000 OA
ATOM      9  H   UNL     1       5.725   6.627  16.064  0.00  0.00    +0.000 HD
ENDBRANCH   7   8
BRANCH   3  10
ATOM     10  C   UNL     1       3.932   4.730  19.684  0.00  0.00    +0.000 C 
BRANCH  10  11
ATOM     11  C   UNL     1       2.577   5.346  19.285  0.00  0.00    +0.000 C 
ATOM     12  C   UNL     1       1.938   4.747  18.029  0.00  0.00    +0.000 C 
ATOM     13  C   UNL     1       1.550   3.282  18.199  0.00  0.00    +0.000 C 
ATOM     14  C   UNL     1       0.670   3.042  19.424  0.00  0.00    +0.000 C 
ATOM     15  C   UNL     1       1.170   3.734  20.691  0.00  0.00    +0.000 C 
ATOM     16  C   UNL     1       1.576   5.190  20.450  0.00  0.00    +0.000 C 
ENDBRANCH  10  11
ENDBRANCH   3  10
BRANCH   7  17
ATOM     17  C   UNL     1       5.865   3.849  15.199  0.00  0.00    +0.000 C 
BRANCH  17  18
ATOM     18  N   UNL     1       5.794   4.546  13.890  0.00  0.00    +0.000 NA
ATOM     19  C   UNL     1       4.959   3.813  12.927  0.00  0.00    +0.000 C 
ATOM     20  C   UNL     1       5.932   2.905  12.200  0.00  0.00    +0.000 C 
ATOM     21  C   UNL     1       7.148   3.792  12.037  0.00  0.00    +0.000 C 
ATOM     22  C   UNL     1       7.084   4.756  13.217  0.00  0.00    +0.000 C 
ENDBRANCH  17  18
ENDBRANCH   7  17
TORSDOF 5
ENDMDL
MODEL 4
REMARK VINA RESULT:      -7.1      0.735      1.298
REMARK  Name = 
REMARK  5 active torsions:
REMARK  status: ('A' for Active; 'I' for Inactive)
REMARK    1  A    between atoms: N_3  and  C_4
REMARK    2  A    between atoms: C_4  and  C_5
REMARK    3  A    between atoms: C_14  and  O_15
REMARK    4  A    between atoms: C_14  and  C_16
REMARK    5  A    between atoms: C_16  and  N_17
REMARK                            x       y       z     vdW  Elec       q    Type
REMARK                         _______ _______ _______ _____ _____    ______ ____
ROOT
ATOM      1  O   UNL     1       4.233   3.928  16.519  0.00  0.00    +0.000 OA
ATOM      2  C   UNL     1       4.888   4.835  17.016  0.00  0.00    +0.000 C 
ATOM      3  N   UNL     1       4.786   5.193  18.371  0.00  0.00    +0.000 N 
ATOM      4  C   UNL     1       6.031   5.158  19.135  0.00  0.00    +0.000 C 
ATOM      5  C   UNL     1       7.167   5.922  18.450  0.00  0.00    +0.000 C 
ATOM      6  C   UNL     1       7.255   5.593  16.952  0.00  0.00    +0.000 C 
ATOM      7  C   UNL     1       5.877   5.773  16.286  0.00  0.00    +0.000 C 
ENDROOT
BRANCH   7   8
ATOM      8  O   UNL     1       5.521   7.149  16.539  0.00  0.00    +0.000 OA
ATOM      9  H   UNL     1       4.560   7.206  16.388  0.00  0.00    +0.000 HD
ENDBRANCH   7   8
BRANCH   3  10
ATOM     10  C   UNL     1       3.503   5.056  19.053  0.00  0.00    +0.000 C 
BRANCH  10  11
ATOM     11  C   UNL     1       3.354   4.001  20.167  0.00  0.00    +0.000 C 
ATOM     12  C   UNL     1       2.126   4.179  21.065  0.00  0.00    +0.000 C 
ATOM     13  C   UNL     1       0.809   3.998  20.317  0.00  0.00    +0.000 C 
ATOM     14  C   UNL     1       0.739   2.675  19.556  0.00  0.00    +0.000 C 
ATOM     15  C   UNL     1       1.996   2.359  18.747  0.00  0.00    +0.000 C 
ATOM     16  C   UNL     1       3.285   2.593  19.538  0.00  0.00    +0.000 C 
ENDBRANCH  10  11
ENDBRANCH   3  10
BRANCH   7  17
ATOM     17  C   UNL     1       5.932   5.532  14.751  0.00  0.00    +0.000 C 
BRANCH  17  18
ATOM     18  N   UNL     1       6.831   4.459  14.257  0.00  0.00    +0.000 NA
ATOM     19  C   UNL     1       7.860   4.986  13.349  0.00  0.00    +0.000 C 
ATOM     20  C   UNL     1       7.241   4.870  11.969  0.00  0.00    +0.000 C 
ATOM     21  C   UNL     1       6.523   3.539  12.044  0.00  0.00    +0.000 C 
ATOM     22  C   UNL     1       6.171   3.373  13.519  0.00  0.00    +0.000 C 
ENDBRANCH  17  18
ENDBRANCH   7  17
TORSDOF 5
ENDMDL
MODEL 5
REMARK VINA RESULT:      -7.1      1.053      1.614
REMARK  Name = 
REMARK  5 active torsions:
REMARK  status: ('A' for Active; 'I' for Inactive)
REMARK    1  A    between atoms: N_3  and  C_4
REMARK    2  A    between atoms: C_4  and  C_5
REMARK    3  A    between atoms: C_14  and  O_15
REMARK    4  A    between atoms: C_14  and  C_16
REMARK    5  A    between atoms: C_16  and  N_17
REMARK                            x       y       z     vdW  Elec       q    Type
REMARK                         _______ _______ _______ _____ _____    ______ ____
ROOT
ATOM      1  O   UNL     1       4.479   3.092  17.151  0.00  0.00    +0.000 OA
ATOM      2  C   UNL     1       5.139   4.106  17.344  0.00  0.00    +0.000 C 
ATOM      3  N   UNL     1       4.932   4.949  18.448  0.00  0.00    +0.000 N 
ATOM      4  C   UNL     1       6.095   5.178  19.302  0.00  0.00    +0.000 C 
ATOM      5  C   UNL     1       7.335   5.604  18.511  0.00  0.00    +0.000 C 
ATOM      6  C   UNL     1       7.544   4.732  17.263  0.00  0.00    +0.000 C 
ATOM      7  C   UNL     1       6.248   4.678  16.431  0.00  0.00    +0.000 C 
ENDROOT
BRANCH   7   8
ATOM      8  O   UNL     1       5.955   6.056  16.112  0.00  0.00    +0.000 OA
ATOM      9  H   UNL     1       5.897   6.518  16.968  0.00  0.00    +0.000 HD
ENDBRANCH   7   8
BRANCH   3  10
ATOM     10  C   UNL     1       3.585   5.106  18.986  0.00  0.00    +0.000 C 
BRANCH  10  11
ATOM     11  C   UNL     1       3.268   4.556  20.390  0.00  0.00    +0.000 C 
ATOM     12  C   UNL     1       1.911   4.980  20.960  0.00  0.00    +0.000 C 
ATOM     13  C   UNL     1       0.733   4.432  20.162  0.00  0.00    +0.000 C 
ATOM     14  C   UNL     1       0.796   2.917  19.980  0.00  0.00    +0.000 C 
ATOM     15  C   UNL     1       2.169   2.402  19.550  0.00  0.00    +0.000 C 
ATOM     16  C   UNL     1       3.313   3.013  20.362  0.00  0.00    +0.000 C 
ENDBRANCH  10  11
ENDBRANCH   3  10
BRANCH   7  17
ATOM     17  C   UNL     1       6.432   3.876  15.112  0.00  0.00    +0.000 C 
BRANCH  17  18
ATOM     18  N   UNL     1       6.156   4.581  13.835  0.00  0.00    +0.000 NA
ATOM     19  C   UNL     1       5.184   3.852  13.008  0.00  0.00    +0.000 C 
ATOM     20  C   UNL     1       6.034   2.953  12.131  0.00  0.00    +0.000 C 
ATOM     21  C   UNL     1       7.207   3.846  11.788  0.00  0.00    +0.000 C 
ATOM     22  C   UNL     1       7.324   4.801  12.971  0.00  0.00    +0.000 C 
ENDBRANCH  17  18
ENDBRANCH   7  17
TORSDOF 5
ENDMDL
MODEL 6
REMARK VINA RESULT:      -6.8      0.835      1.507
REMARK  Name = 
REMARK  5 active torsions:
REMARK  status: ('A' for Active; 'I' for Inactive)
REMARK    1  A    between atoms: N_3  and  C_4
REMARK    2  A    between atoms: C_4  and  C_5
REMARK    3  A    between atoms: C_14  and  O_15
REMARK    4  A    between atoms: C_14  and  C_16
REMARK    5  A    between atoms: C_16  and  N_17
REMARK                            x       y       z     vdW  Elec       q    Type
REMARK                         _______ _______ _______ _____ _____    ______ ____
ROOT
ATOM      1  O   UNL     1       4.508   3.538  16.424  0.00  0.00    +0.000 OA
ATOM      2  C   UNL     1       4.944   4.557  16.947  0.00  0.00    +0.000 C 
ATOM      3  N   UNL     1       4.754   4.856  18.306  0.00  0.00    +0.000 N 
ATOM      4  C   UNL     1       5.969   5.080  19.086  0.00  0.00    +0.000 C 
ATOM      5  C   UNL     1       6.915   6.089  18.429  0.00  0.00    +0.000 C 
ATOM      6  C   UNL     1       7.087   5.816  16.927  0.00  0.00    +0.000 C 
ATOM      7  C   UNL     1       5.709   5.703  16.246  0.00  0.00    +0.000 C 
ENDROOT
BRANCH   7   8
ATOM      8  O   UNL     1       5.057   6.963  16.519  0.00  0.00    +0.000 OA
ATOM      9  H   UNL     1       4.743   6.904  17.440  0.00  0.00    +0.000 HD
ENDBRANCH   7   8
BRANCH   3  10
ATOM     10  C   UNL     1       3.526   4.427  18.968  0.00  0.00    +0.000 C 
BRANCH  10  11
ATOM     11  C   UNL     1       3.293   2.924  19.218  0.00  0.00    +0.000 C 
ATOM     12  C   UNL     1       3.509   2.468  20.664  0.00  0.00    +0.000 C 
ATOM     13  C   UNL     1       2.509   3.081  21.638  0.00  0.00    +0.000 C 
ATOM     14  C   UNL     1       1.059   2.863  21.211  0.00  0.00    +0.000 C 
ATOM     15  C   UNL     1       0.797   3.162  19.735  0.00  0.00    +0.000 C 
ATOM     16  C   UNL     1       1.851   2.550  18.810  0.00  0.00    +0.000 C 
ENDBRANCH  10  11
ENDBRANCH   3  10
BRANCH   7  17
ATOM     17  C   UNL     1       5.829   5.511  14.708  0.00  0.00    +0.000 C 
BRANCH  17  18
ATOM     18  N   UNL     1       6.800   4.501  14.217  0.00  0.00    +0.000 NA
ATOM     19  C   UNL     1       7.874   5.117  13.423  0.00  0.00    +0.000 C 
ATOM     20  C   UNL     1       7.362   5.072  11.997  0.00  0.00    +0.000 C 
ATOM     21  C   UNL     1       6.688   3.717  11.934  0.00  0.00    +0.000 C 
ATOM     22  C   UNL     1       6.235   3.445  13.364  0.00  0.00    +0.000 C 
ENDBRANCH  17  18
ENDBRANCH   7  17
TORSDOF 5
ENDMDL
MODEL 7
REMARK VINA RESULT:      -6.6      0.683      1.457
REMARK  Name = 
REMARK  5 active torsions:
REMARK  status: ('A' for Active; 'I' for Inactive)
REMARK    1  A    between atoms: N_3  and  C_4
REMARK    2  A    between atoms: C_4  and  C_5
REMARK    3  A    between atoms: C_14  and  O_15
REMARK    4  A    between atoms: C_14  and  C_16
REMARK    5  A    between atoms: C_16  and  N_17
REMARK                            x       y       z     vdW  Elec       q    Type
REMARK                         _______ _______ _______ _____ _____    ______ ____
ROOT
ATOM      1  O   UNL     1       4.944   3.366  16.480  0.00  0.00    +0.000 OA
ATOM      2  C   UNL     1       5.258   4.452  16.952  0.00  0.00    +0.000 C 
ATOM      3  N   UNL     1       5.101   4.763  18.313  0.00  0.00    +0.000 N 
ATOM      4  C   UNL     1       6.312   5.181  19.015  0.00  0.00    +0.000 C 
ATOM      5  C   UNL     1       7.067   6.292  18.281  0.00  0.00    +0.000 C 
ATOM      6  C   UNL     1       7.194   6.001  16.778  0.00  0.00    +0.000 C 
ATOM      7  C   UNL     1       5.812   5.673  16.182  0.00  0.00    +0.000 C 
ENDROOT
BRANCH   7   8
ATOM      8  O   UNL     1       5.003   6.835  16.463  0.00  0.00    +0.000 OA
ATOM      9  H   UNL     1       5.548   7.604  16.215  0.00  0.00    +0.000 HD
ENDBRANCH   7   8
BRANCH   3  10
ATOM     10  C   UNL     1       3.985   4.186  19.055  0.00  0.00    +0.000 C 
BRANCH  10  11
ATOM     11  C   UNL     1       2.544   4.478  18.592  0.00  0.00    +0.000 C 
ATOM     12  C   UNL     1       1.449   4.033  19.566  0.00  0.00    +0.000 C 
ATOM     13  C   UNL     1       1.485   4.790  20.889  0.00  0.00    +0.000 C 
ATOM     14  C   UNL     1       1.464   6.306  20.703  0.00  0.00    +0.000 C 
ATOM     15  C   UNL     1       2.435   6.812  19.637  0.00  0.00    +0.000 C 
ATOM     16  C   UNL     1       2.377   5.993  18.346  0.00  0.00    +0.000 C 
ENDBRANCH  10  11
ENDBRANCH   3  10
BRANCH   7  17
ATOM     17  C   UNL     1       5.874   5.452  14.644  0.00  0.00    +0.000 C 
BRANCH  17  18
ATOM     18  N   UNL     1       6.847   4.453  14.134  0.00  0.00    +0.000 NA
ATOM     19  C   UNL     1       7.901   5.081  13.326  0.00  0.00    +0.000 C 
ATOM     20  C   UNL     1       7.367   5.036  11.907  0.00  0.00    +0.000 C 
ATOM     21  C   UNL     1       6.705   3.675  11.850  0.00  0.00    +0.000 C 
ATOM     22  C   UNL     1       6.277   3.394  13.287  0.00  0.00    +0.000 C 
ENDBRANCH  17  18
ENDBRANCH   7  17
TORSDOF 5
ENDMDL
MODEL 8
REMARK VINA RESULT:      -6.3      1.395      6.562
REMARK  Name = 
REMARK  5 active torsions:
REMARK  status: ('A' for Active; 'I' for Inactive)
REMARK    1  A    between atoms: N_3  and  C_4
REMARK    2  A    between atoms: C_4  and  C_5
REMARK    3  A    between atoms: C_14  and  O_15
REMARK    4  A    between atoms: C_14  and  C_16
REMARK    5  A    between atoms: C_16  and  N_17
REMARK                            x       y       z     vdW  Elec       q    Type
REMARK                         _______ _______ _______ _____ _____    ______ ____
ROOT
ATOM      1  O   UNL     1       4.063   5.179  16.766  0.00  0.00    +0.000 OA
ATOM      2  C   UNL     1       5.058   4.752  17.339  0.00  0.00    +0.000 C 
ATOM      3  N   UNL     1       6.216   4.350  16.653  0.00  0.00    +0.000 N 
ATOM      4  C   UNL     1       7.453   5.024  17.040  0.00  0.00    +0.000 C 
ATOM      5  C   UNL     1       7.682   5.016  18.554  0.00  0.00    +0.000 C 
ATOM      6  C   UNL     1       6.408   5.393  19.326  0.00  0.00    +0.000 C 
ATOM      7  C   UNL     1       5.226   4.521  18.859  0.00  0.00    +0.000 C 
ENDROOT
BRANCH   7   8
ATOM      8  O   UNL     1       5.650   3.163  19.101  0.00  0.00    +0.000 OA
ATOM      9  H   UNL     1       5.382   2.962  20.017  0.00  0.00    +0.000 HD
ENDBRANCH   7   8
BRANCH   3  10
ATOM     10  C   UNL     1       6.091   3.750  15.329  0.00  0.00    +0.000 C 
BRANCH  10  11
ATOM     11  C   UNL     1       5.545   4.602  14.166  0.00  0.00    +0.000 C 
ATOM     12  C   UNL     1       6.546   5.592  13.564  0.00  0.00    +0.000 C 
ATOM     13  C   UNL     1       7.729   4.906  12.888  0.00  0.00    +0.000 C 
ATOM     14  C   UNL     1       7.298   3.871  11.851  0.00  0.00    +0.000 C 
ATOM     15  C   UNL     1       6.192   2.934  12.335  0.00  0.00    +0.000 C 
ATOM     16  C   UNL     1       5.051   3.675  13.035  0.00  0.00    +0.000 C 
ENDBRANCH  10  11
ENDBRANCH   3  10
BRANCH   7  17
ATOM     17  C   UNL     1       3.931   4.807  19.669  0.00  0.00    +0.000 C 
BRANCH  17  18
ATOM     18  N   UNL     1       3.171   3.639  20.181  0.00  0.00    +0.000 NA
ATOM     19  C   UNL     1       2.503   2.904  19.096  0.00  0.00    +0.000 C 
ATOM     20  C   UNL     1       1.131   3.541  18.998  0.00  0.00    +0.000 C 
ATOM     21  C   UNL     1       0.773   3.773  20.451  0.00  0.00    +0.000 C 
ATOM     22  C   UNL     1       2.114   3.951  21.154  0.00  0.00    +0.000 C 
ENDBRANCH  17  18
ENDBRANCH   7  17
TORSDOF 5
ENDMDL
MODEL 9
REMARK VINA RESULT:      -6.3      1.476      6.812
REMARK  Name = 
REMARK  5 active torsions:
REMARK  status: ('A' for Active; 'I' for Inactive)
REMARK    1  A    between atoms: N_3  and  C_4
REMARK    2  A    between atoms: C_4  and  C_5
REMARK    3  A    between atoms: C_14  and  O_15
REMARK    4  A    between atoms: C_14  and  C_16
REMARK    5  A    between atoms: C_16  and  N_17
REMARK                            x       y       z     vdW  Elec       q    Type
REMARK                         _______ _______ _______ _____ _____    ______ ____
ROOT
ATOM      1  O   UNL     1       3.752   3.306  16.176  0.00  0.00    +0.000 OA
ATOM      2  C   UNL     1       4.717   3.990  16.498  0.00  0.00    +0.000 C 
ATOM      3  N   UNL     1       5.653   4.470  15.567  0.00  0.00    +0.000 N 
ATOM      4  C   UNL     1       5.843   5.919  15.544  0.00  0.00    +0.000 C 
ATOM      5  C   UNL     1       6.102   6.503  16.935  0.00  0.00    +0.000 C 
ATOM      6  C   UNL     1       5.128   5.941  17.982  0.00  0.00    +0.000 C 
ATOM      7  C   UNL     1       5.125   4.401  17.931  0.00  0.00    +0.000 C 
ENDROOT
BRANCH   7   8
ATOM      8  O   UNL     1       6.495   4.020  18.177  0.00  0.00    +0.000 OA
ATOM      9  H   UNL     1       6.551   3.073  17.953  0.00  0.00    +0.000 HD
ENDBRANCH   7   8
BRANCH   3  10
ATOM     10  C   UNL     1       5.964   3.671  14.387  0.00  0.00    +0.000 C 
BRANCH  10  11
ATOM     11  C   UNL     1       5.854   4.317  12.992  0.00  0.00    +0.000 C 
ATOM     12  C   UNL     1       7.169   4.396  12.210  0.00  0.00    +0.000 C 
ATOM     13  C   UNL     1       7.730   3.024  11.849  0.00  0.00    +0.000 C 
ATOM     14  C   UNL     1       6.716   2.144  11.121  0.00  0.00    +0.000 C 
ATOM     15  C   UNL     1       5.332   2.131  11.767  0.00  0.00    +0.000 C 
ATOM     16  C   UNL     1       4.837   3.531  12.138  0.00  0.00    +0.000 C 
ENDBRANCH  10  11
ENDBRANCH   3  10
BRANCH   7  17
ATOM     17  C   UNL     1       4.216   3.781  19.030  0.00  0.00    +0.000 C 
BRANCH  17  18
ATOM     18  N   UNL     1       2.868   4.374  19.220  0.00  0.00    +0.000 NA
ATOM     19  C   UNL     1       2.689   4.898  20.581  0.00  0.00    +0.000 C 
ATOM     20  C   UNL     1       2.103   3.736  21.360  0.00  0.00    +0.000 C 
ATOM     21  C   UNL     1       1.142   3.126  20.362  0.00  0.00    +0.000 C 
ATOM     22  C   UNL     1       1.739   3.457  18.998  0.00  0.00    +0.000 C 
ENDBRANCH  17  18
ENDBRANCH   7  17
TORSDOF 5
ENDMDL
