MODEL 1
REMARK VINA RESULT:      -8.2      0.000      0.000
REMARK  Name = 
REMARK  6 active torsions:
REMARK  status: ('A' for Active; 'I' for Inactive)
REMARK    1  A    between atoms: C_1  and  C_2
REMARK    2  A    between atoms: C_9  and  C_10
REMARK    3  A    between atoms: C_10  and  N_11
REMARK    4  A    between atoms: N_11  and  S_12
REMARK    5  A    between atoms: S_12  and  C_15
REMARK    6  A    between atoms: C_21  and  C_22
REMARK                            x       y       z     vdW  Elec       q    Type
REMARK                         _______ _______ _______ _____ _____    ______ ____
ROOT
ATOM      1  C   UNL     1       5.959   3.334  15.942  0.00  0.00    +0.000 C 
ATOM      2  C   UNL     1       5.244   4.610  16.282  0.00  0.00    +0.000 A 
ATOM      3  C   UNL     1       5.512   5.797  15.598  0.00  0.00    +0.000 A 
ATOM      4  C   UNL     1       4.858   6.978  15.958  0.00  0.00    +0.000 A 
ATOM      5  C   UNL     1       3.946   6.974  17.015  0.00  0.00    +0.000 A 
ATOM      6  N   UNL     1       3.325   8.163  17.393  0.00  0.00    +0.000 N 
ATOM      7  C   UNL     1       2.462   8.268  18.444  0.00  0.00    +0.000 A 
ATOM      8  O   UNL     1       1.969   9.357  18.722  0.00  0.00    +0.000 OA
ATOM      9  C   UNL     1       2.149   7.030  19.234  0.00  0.00    +0.000 A 
ATOM     10  C   UNL     1       2.685   5.841  18.852  0.00  0.00    +0.000 A 
ATOM     11  C   UNL     1       3.653   5.805  17.714  0.00  0.00    +0.000 A 
ATOM     12  C   UNL     1       4.304   4.621  17.324  0.00  0.00    +0.000 A 
ATOM     13  H   UNL     1       3.511   9.017  16.887  0.00  0.00    +0.000 HD
ENDROOT
BRANCH  10  14
ATOM     14  C   UNL     1       2.318   4.599  19.572  0.00  0.00    +0.000 A 
ATOM     15  C   UNL     1       2.854   4.331  20.839  0.00  0.00    +0.000 A 
ATOM     16  C   UNL     1       2.370   3.258  21.590  0.00  0.00    +0.000 A 
ATOM     17  C   UNL     1       1.351   2.453  21.083  0.00  0.00    +0.000 A 
ATOM     18  C   UNL     1       0.820   2.708  19.819  0.00  0.00    +0.000 A 
ATOM     19  C   UNL     1       1.303   3.777  19.064  0.00  0.00    +0.000 A 
ENDBRANCH  10  14
BRANCH   9  20
ATOM     20  C   UNL     1       1.161   7.261  20.362  0.00  0.00    +0.000 C 
BRANCH  20  21
ATOM     21  N   UNL     1       1.624   8.357  21.243  0.00  0.00    +0.000 NA
ATOM     22  H   UNL     1       2.232   9.017  20.759  0.00  0.00    +0.000 HD
BRANCH  21  23
ATOM     23  S   UNL     1       0.394   9.184  22.080  0.00  0.00    +0.000 S 
ATOM     24  O   UNL     1      -0.775   8.341  22.157  0.00  0.00    +0.000 OA
ATOM     25  O   UNL     1       1.002   9.762  23.257  0.00  0.00    +0.000 OA
BRANCH  23  26
ATOM     26  C   UNL     1       0.035  10.536  20.973  0.00  0.00    +0.000 A 
ATOM     27  C   UNL     1       0.733  11.740  21.087  0.00  0.00    +0.000 A 
ATOM     28  C   UNL     1       0.442  12.790  20.212  0.00  0.00    +0.000 A 
ATOM     29  C   UNL     1      -0.527  12.626  19.219  0.00  0.00    +0.000 A 
ATOM     30  C   UNL     1      -1.190  11.408  19.079  0.00  0.00    +0.000 A 
ATOM     31  C   UNL     1      -0.907  10.356  19.952  0.00  0.00    +0.000 A 
ENDBRANCH  23  26
ENDBRANCH  21  23
ENDBRANCH  20  21
ENDBRANCH   9  20
TORSDOF 5
ENDMDL
MODEL 2
REMARK VINA RESULT:      -7.8      0.933      1.403
REMARK  Name = 
REMARK  6 active torsions:
REMARK  status: ('A' for Active; 'I' for Inactive)
REMARK    1  A    between atoms: C_1  and  C_2
REMARK    2  A    between atoms: C_9  and  C_10
REMARK    3  A    between atoms: C_10  and  N_11
REMARK    4  A    between atoms: N_11  and  S_12
REMARK    5  A    between atoms: S_12  and  C_15
REMARK    6  A    between atoms: C_21  and  C_22
REMARK                            x       y       z     vdW  Elec       q    Type
REMARK                         _______ _______ _______ _____ _____    ______ ____
ROOT
ATOM      1  C   UNL     1       5.686   3.419  16.388  0.00  0.00    +0.000 C 
ATOM      2  C   UNL     1       5.001   4.732  16.634  0.00  0.00    +0.000 A 
ATOM      3  C   UNL     1       5.328   5.872  15.896  0.00  0.00    +0.000 A 
ATOM      4  C   UNL     1       4.700   7.089  16.170  0.00  0.00    +0.000 A 
ATOM      5  C   UNL     1       3.755   7.170  17.195  0.00  0.00    +0.000 A 
ATOM      6  N   UNL     1       3.160   8.397  17.487  0.00  0.00    +0.000 N 
ATOM      7  C   UNL     1       2.267   8.584  18.501  0.00  0.00    +0.000 A 
ATOM      8  O   UNL     1       1.799   9.700  18.704  0.00  0.00    +0.000 OA
ATOM      9  C   UNL     1       1.890   7.401  19.346  0.00  0.00    +0.000 A 
ATOM     10  C   UNL     1       2.401   6.178  19.046  0.00  0.00    +0.000 A 
ATOM     11  C   UNL     1       3.403   6.050  17.946  0.00  0.00    +0.000 A 
ATOM     12  C   UNL     1       4.029   4.828  17.642  0.00  0.00    +0.000 A 
ATOM     13  H   UNL     1       3.389   9.215  16.942  0.00  0.00    +0.000 HD
ENDROOT
BRANCH  10  14
ATOM     14  C   UNL     1       1.972   4.988  19.819  0.00  0.00    +0.000 A 
ATOM     15  C   UNL     1       1.167   4.009  19.221  0.00  0.00    +0.000 A 
ATOM     16  C   UNL     1       0.915   2.808  19.887  0.00  0.00    +0.000 A 
ATOM     17  C   UNL     1       1.467   2.579  21.147  0.00  0.00    +0.000 A 
ATOM     18  C   UNL     1       2.260   3.553  21.752  0.00  0.00    +0.000 A 
ATOM     19  C   UNL     1       2.511   4.756  21.091  0.00  0.00    +0.000 A 
ENDBRANCH  10  14
BRANCH   9  20
ATOM     20  C   UNL     1       0.874   7.722  20.425  0.00  0.00    +0.000 C 
BRANCH  20  21
ATOM     21  N   UNL     1       1.332   8.866  21.247  0.00  0.00    +0.000 NA
ATOM     22  H   UNL     1       1.558   9.685  20.684  0.00  0.00    +0.000 HD
BRANCH  21  23
ATOM     23  S   UNL     1       0.302   9.294  22.533  0.00  0.00    +0.000 S 
ATOM     24  O   UNL     1      -0.826   8.394  22.555  0.00  0.00    +0.000 OA
ATOM     25  O   UNL     1       1.141   9.499  23.692  0.00  0.00    +0.000 OA
BRANCH  23  26
ATOM     26  C   UNL     1      -0.276  10.903  22.027  0.00  0.00    +0.000 A 
ATOM     27  C   UNL     1      -1.130  11.635  22.856  0.00  0.00    +0.000 A 
ATOM     28  C   UNL     1      -1.573  12.895  22.447  0.00  0.00    +0.000 A 
ATOM     29  C   UNL     1      -1.149  13.425  21.226  0.00  0.00    +0.000 A 
ATOM     30  C   UNL     1      -0.262  12.711  20.422  0.00  0.00    +0.000 A 
ATOM     31  C   UNL     1       0.182  11.450  20.822  0.00  0.00    +0.000 A 
ENDBRANCH  23  26
ENDBRANCH  21  23
ENDBRANCH  20  21
ENDBRANCH   9  20
TORSDOF 5
ENDMDL
MODEL 3
REMARK VINA RESULT:      -7.4      2.441      4.473
REMARK  Name = 
REMARK  6 active torsions:
REMARK  status: ('A' for Active; 'I' for Inactive)
REMARK    1  A    between atoms: C_1  and  C_2
REMARK    2  A    between atoms: C_9  and  C_10
REMARK    3  A    between atoms: C_10  and  N_11
REMARK    4  A    between atoms: N_11  and  S_12
REMARK    5  A    between atoms: S_12  and  C_15
REMARK    6  A    between atoms: C_21  and  C_22
REMARK                            x       y       z     vdW  Elec       q    Type
REMARK                         _______ _______ _______ _____ _____    ______ ____
ROOT
ATOM      1  C   UNL     1       1.358   2.896  21.811  0.00  0.00    +0.000 C 
ATOM      2  C   UNL     1       1.716   3.816  20.679  0.00  0.00    +0.000 A 
ATOM      3  C   UNL     1       2.276   3.328  19.496  0.00  0.00    +0.000 A 
ATOM      4  C   UNL     1       2.632   4.210  18.474  0.00  0.00    +0.000 A 
ATOM      5  C   UNL     1       2.445   5.583  18.641  0.00  0.00    +0.000 A 
ATOM      6  N   UNL     1       2.837   6.460  17.631  0.00  0.00    +0.000 N 
ATOM      7  C   UNL     1       2.741   7.817  17.725  0.00  0.00    +0.000 A 
ATOM      8  O   UNL     1       3.124   8.522  16.796  0.00  0.00    +0.000 OA
ATOM      9  C   UNL     1       2.167   8.405  18.982  0.00  0.00    +0.000 A 
ATOM     10  C   UNL     1       1.713   7.577  19.959  0.00  0.00    +0.000 A 
ATOM     11  C   UNL     1       1.883   6.101  19.807  0.00  0.00    +0.000 A 
ATOM     12  C   UNL     1       1.510   5.197  20.817  0.00  0.00    +0.000 A 
ATOM     13  H   UNL     1       3.228   6.102  16.771  0.00  0.00    +0.000 HD
ENDROOT
BRANCH  10  14
ATOM     14  C   UNL     1       1.068   8.143  21.167  0.00  0.00    +0.000 A 
ATOM     15  C   UNL     1       1.845   8.738  22.170  0.00  0.00    +0.000 A 
ATOM     16  C   UNL     1       1.229   9.429  23.215  0.00  0.00    +0.000 A 
ATOM     17  C   UNL     1      -0.161   9.532  23.261  0.00  0.00    +0.000 A 
ATOM     18  C   UNL     1      -0.940   8.933  22.271  0.00  0.00    +0.000 A 
ATOM     19  C   UNL     1      -0.328   8.239  21.227  0.00  0.00    +0.000 A 
ENDBRANCH  10  14
BRANCH   9  20
ATOM     20  C   UNL     1       2.087   9.920  18.964  0.00  0.00    +0.000 C 
BRANCH  20  21
ATOM     21  N   UNL     1       0.898  10.369  18.204  0.00  0.00    +0.000 NA
ATOM     22  H   UNL     1       0.285   9.596  17.946  0.00  0.00    +0.000 HD
BRANCH  21  23
ATOM     23  S   UNL     1       0.002  11.619  18.933  0.00  0.00    +0.000 S 
ATOM     24  O   UNL     1       0.124  11.515  20.368  0.00  0.00    +0.000 OA
ATOM     25  O   UNL     1       0.326  12.836  18.223  0.00  0.00    +0.000 OA
BRANCH  23  26
ATOM     26  C   UNL     1      -1.670  11.192  18.482  0.00  0.00    +0.000 A 
ATOM     27  C   UNL     1      -2.737  11.988  18.905  0.00  0.00    +0.000 A 
ATOM     28  C   UNL     1      -4.040  11.641  18.542  0.00  0.00    +0.000 A 
ATOM     29  C   UNL     1      -4.271  10.517  17.746  0.00  0.00    +0.000 A 
ATOM     30  C   UNL     1      -3.200   9.750  17.288  0.00  0.00    +0.000 A 
ATOM     31  C   UNL     1      -1.895  10.088  17.650  0.00  0.00    +0.000 A 
ENDBRANCH  23  26
ENDBRANCH  21  23
ENDBRANCH  20  21
ENDBRANCH   9  20
TORSDOF 5
ENDMDL
MODEL 4
REMARK VINA RESULT:      -7.4      3.159      6.620
REMARK  Name = 
REMARK  6 active torsions:
REMARK  status: ('A' for Active; 'I' for Inactive)
REMARK    1  A    between atoms: C_1  and  C_2
REMARK    2  A    between atoms: C_9  and  C_10
REMARK    3  A    between atoms: C_10  and  N_11
REMARK    4  A    between atoms: N_11  and  S_12
REMARK    5  A    between atoms: S_12  and  C_15
REMARK    6  A    between atoms: C_21  and  C_22
REMARK                            x       y       z     vdW  Elec       q    Type
REMARK                         _______ _______ _______ _____ _____    ______ ____
ROOT
ATOM      1  C   UNL     1      -0.592   9.059  23.008  0.00  0.00    +0.000 C 
ATOM      2  C   UNL     1       0.240   9.043  21.758  0.00  0.00    +0.000 A 
ATOM      3  C   UNL     1       0.522  10.217  21.058  0.00  0.00    +0.000 A 
ATOM      4  C   UNL     1       1.269  10.170  19.879  0.00  0.00    +0.000 A 
ATOM      5  C   UNL     1       1.720   8.942  19.390  0.00  0.00    +0.000 A 
ATOM      6  N   UNL     1       2.433   8.898  18.193  0.00  0.00    +0.000 N 
ATOM      7  C   UNL     1       2.869   7.743  17.612  0.00  0.00    +0.000 A 
ATOM      8  O   UNL     1       3.477   7.788  16.546  0.00  0.00    +0.000 OA
ATOM      9  C   UNL     1       2.578   6.443  18.304  0.00  0.00    +0.000 A 
ATOM     10  C   UNL     1       1.943   6.455  19.506  0.00  0.00    +0.000 A 
ATOM     11  C   UNL     1       1.460   7.752  20.068  0.00  0.00    +0.000 A 
ATOM     12  C   UNL     1       0.726   7.822  21.265  0.00  0.00    +0.000 A 
ATOM     13  H   UNL     1       2.647   9.751  17.697  0.00  0.00    +0.000 HD
ENDROOT
BRANCH  10  14
ATOM     14  C   UNL     1       1.725   5.186  20.240  0.00  0.00    +0.000 A 
ATOM     15  C   UNL     1       0.747   4.280  19.810  0.00  0.00    +0.000 A 
ATOM     16  C   UNL     1       0.666   3.011  20.387  0.00  0.00    +0.000 A 
ATOM     17  C   UNL     1       1.561   2.642  21.391  0.00  0.00    +0.000 A 
ATOM     18  C   UNL     1       2.530   3.543  21.831  0.00  0.00    +0.000 A 
ATOM     19  C   UNL     1       2.612   4.812  21.258  0.00  0.00    +0.000 A 
ENDBRANCH  10  14
BRANCH   9  20
ATOM     20  C   UNL     1       3.130   5.230  17.580  0.00  0.00    +0.000 C 
BRANCH  20  21
ATOM     21  N   UNL     1       4.499   4.922  18.052  0.00  0.00    +0.000 NA
ATOM     22  H   UNL     1       4.551   4.032  18.547  0.00  0.00    +0.000 HD
BRANCH  21  23
ATOM     23  S   UNL     1       5.713   5.011  16.861  0.00  0.00    +0.000 S 
ATOM     24  O   UNL     1       6.414   3.750  16.804  0.00  0.00    +0.000 OA
ATOM     25  O   UNL     1       5.109   5.606  15.690  0.00  0.00    +0.000 OA
BRANCH  23  26
ATOM     26  C   UNL     1       6.817   6.233  17.546  0.00  0.00    +0.000 A 
ATOM     27  C   UNL     1       6.874   7.514  16.993  0.00  0.00    +0.000 A 
ATOM     28  C   UNL     1       7.743   8.462  17.541  0.00  0.00    +0.000 A 
ATOM     29  C   UNL     1       8.533   8.133  18.645  0.00  0.00    +0.000 A 
ATOM     30  C   UNL     1       8.440   6.867  19.222  0.00  0.00    +0.000 A 
ATOM     31  C   UNL     1       7.577   5.914  18.678  0.00  0.00    +0.000 A 
ENDBRANCH  23  26
ENDBRANCH  21  23
ENDBRANCH  20  21
ENDBRANCH   9  20
TORSDOF 5
ENDMDL
MODEL 5
REMARK VINA RESULT:      -7.3      3.322      6.739
REMARK  Name = 
REMARK  6 active torsions:
REMARK  status: ('A' for Active; 'I' for Inactive)
REMARK    1  A    between atoms: C_1  and  C_2
REMARK    2  A    between atoms: C_9  and  C_10
REMARK    3  A    between atoms: C_10  and  N_11
REMARK    4  A    between atoms: N_11  and  S_12
REMARK    5  A    between atoms: S_12  and  C_15
REMARK    6  A    between atoms: C_21  and  C_22
REMARK                            x       y       z     vdW  Elec       q    Type
REMARK                         _______ _______ _______ _____ _____    ______ ____
ROOT
ATOM      1  C   UNL     1      -0.471   8.573  22.391  0.00  0.00    +0.000 C 
ATOM      2  C   UNL     1       0.454   8.606  21.209  0.00  0.00    +0.000 A 
ATOM      3  C   UNL     1       0.741   9.800  20.544  0.00  0.00    +0.000 A 
ATOM      4  C   UNL     1       1.577   9.797  19.426  0.00  0.00    +0.000 A 
ATOM      5  C   UNL     1       2.113   8.595  18.960  0.00  0.00    +0.000 A 
ATOM      6  N   UNL     1       2.917   8.594  17.821  0.00  0.00    +0.000 N 
ATOM      7  C   UNL     1       3.442   7.466  17.264  0.00  0.00    +0.000 A 
ATOM      8  O   UNL     1       4.128   7.548  16.249  0.00  0.00    +0.000 OA
ATOM      9  C   UNL     1       3.152   6.146  17.919  0.00  0.00    +0.000 A 
ATOM     10  C   UNL     1       2.427   6.118  19.068  0.00  0.00    +0.000 A 
ATOM     11  C   UNL     1       1.851   7.387  19.604  0.00  0.00    +0.000 A 
ATOM     12  C   UNL     1       1.025   7.412  20.742  0.00  0.00    +0.000 A 
ATOM     13  H   UNL     1       3.134   9.461  17.352  0.00  0.00    +0.000 HD
ENDROOT
BRANCH  10  14
ATOM     14  C   UNL     1       2.205   4.831  19.770  0.00  0.00    +0.000 A 
ATOM     15  C   UNL     1       2.757   4.614  21.040  0.00  0.00    +0.000 A 
ATOM     16  C   UNL     1       2.399   3.481  21.774  0.00  0.00    +0.000 A 
ATOM     17  C   UNL     1       1.489   2.566  21.246  0.00  0.00    +0.000 A 
ATOM     18  C   UNL     1       0.945   2.770  19.979  0.00  0.00    +0.000 A 
ATOM     19  C   UNL     1       1.302   3.900  19.242  0.00  0.00    +0.000 A 
ENDBRANCH  10  14
BRANCH   9  20
ATOM     20  C   UNL     1       3.806   4.965  17.227  0.00  0.00    +0.000 C 
BRANCH  20  21
ATOM     21  N   UNL     1       4.480   5.400  15.982  0.00  0.00    +0.000 NA
ATOM     22  H   UNL     1       4.460   6.412  15.861  0.00  0.00    +0.000 HD
BRANCH  21  23
ATOM     23  S   UNL     1       6.061   4.806  15.768  0.00  0.00    +0.000 S 
ATOM     24  O   UNL     1       6.079   3.393  16.061  0.00  0.00    +0.000 OA
ATOM     25  O   UNL     1       6.541   5.336  14.512  0.00  0.00    +0.000 OA
BRANCH  23  26
ATOM     26  C   UNL     1       6.955   5.655  17.057  0.00  0.00    +0.000 A 
ATOM     27  C   UNL     1       7.233   7.018  16.937  0.00  0.00    +0.000 A 
ATOM     28  C   UNL     1       7.934   7.670  17.955  0.00  0.00    +0.000 A 
ATOM     29  C   UNL     1       8.335   6.965  19.093  0.00  0.00    +0.000 A 
ATOM     30  C   UNL     1       8.017   5.614  19.229  0.00  0.00    +0.000 A 
ATOM     31  C   UNL     1       7.320   4.956  18.214  0.00  0.00    +0.000 A 
ENDBRANCH  23  26
ENDBRANCH  21  23
ENDBRANCH  20  21
ENDBRANCH   9  20
TORSDOF 5
ENDMDL
MODEL 6
REMARK VINA RESULT:      -7.3      4.072      6.760
REMARK  Name = 
REMARK  6 active torsions:
REMARK  status: ('A' for Active; 'I' for Inactive)
REMARK    1  A    between atoms: C_1  and  C_2
REMARK    2  A    between atoms: C_9  and  C_10
REMARK    3  A    between atoms: C_10  and  N_11
REMARK    4  A    between atoms: N_11  and  S_12
REMARK    5  A    between atoms: S_12  and  C_15
REMARK    6  A    between atoms: C_21  and  C_22
REMARK                            x       y       z     vdW  Elec       q    Type
REMARK                         _______ _______ _______ _____ _____    ______ ____
ROOT
ATOM      1  C   UNL     1       0.891   2.771  21.041  0.00  0.00    +0.000 C 
ATOM      2  C   UNL     1       1.901   2.893  19.938  0.00  0.00    +0.000 A 
ATOM      3  C   UNL     1       2.535   1.769  19.405  0.00  0.00    +0.000 A 
ATOM      4  C   UNL     1       3.497   1.913  18.403  0.00  0.00    +0.000 A 
ATOM      5  C   UNL     1       3.839   3.187  17.946  0.00  0.00    +0.000 A 
ATOM      6  N   UNL     1       4.827   3.327  16.971  0.00  0.00    +0.000 N 
ATOM      7  C   UNL     1       5.264   4.530  16.501  0.00  0.00    +0.000 A 
ATOM      8  O   UNL     1       6.151   4.569  15.654  0.00  0.00    +0.000 OA
ATOM      9  C   UNL     1       4.638   5.780  17.051  0.00  0.00    +0.000 A 
ATOM     10  C   UNL     1       3.626   5.677  17.952  0.00  0.00    +0.000 A 
ATOM     11  C   UNL     1       3.222   4.329  18.453  0.00  0.00    +0.000 A 
ATOM     12  C   UNL     1       2.240   4.163  19.445  0.00  0.00    +0.000 A 
ATOM     13  H   UNL     1       5.272   2.510  16.579  0.00  0.00    +0.000 HD
ENDROOT
BRANCH  10  14
ATOM     14  C   UNL     1       2.943   6.900  18.439  0.00  0.00    +0.000 A 
ATOM     15  C   UNL     1       2.513   7.878  17.532  0.00  0.00    +0.000 A 
ATOM     16  C   UNL     1       1.714   8.935  17.970  0.00  0.00    +0.000 A 
ATOM     17  C   UNL     1       1.339   9.019  19.310  0.00  0.00    +0.000 A 
ATOM     18  C   UNL     1       1.772   8.055  20.220  0.00  0.00    +0.000 A 
ATOM     19  C   UNL     1       2.574   6.998  19.786  0.00  0.00    +0.000 A 
ENDBRANCH  10  14
BRANCH   9  20
ATOM     20  C   UNL     1       5.184   7.055  16.438  0.00  0.00    +0.000 C 
BRANCH  20  21
ATOM     21  N   UNL     1       5.901   7.856  17.457  0.00  0.00    +0.000 NA
ATOM     22  H   UNL     1       5.424   7.859  18.357  0.00  0.00    +0.000 HD
BRANCH  21  23
ATOM     23  S   UNL     1       7.547   7.469  17.656  0.00  0.00    +0.000 S 
ATOM     24  O   UNL     1       7.689   6.569  18.775  0.00  0.00    +0.000 OA
ATOM     25  O   UNL     1       8.065   7.151  16.344  0.00  0.00    +0.000 OA
BRANCH  23  26
ATOM     26  C   UNL     1       8.247   9.045  18.114  0.00  0.00    +0.000 A 
ATOM     27  C   UNL     1       7.935  10.191  17.380  0.00  0.00    +0.000 A 
ATOM     28  C   UNL     1       8.490  11.418  17.752  0.00  0.00    +0.000 A 
ATOM     29  C   UNL     1       9.335  11.498  18.861  0.00  0.00    +0.000 A 
ATOM     30  C   UNL     1       9.609  10.360  19.618  0.00  0.00    +0.000 A 
ATOM     31  C   UNL     1       9.061   9.130  19.250  0.00  0.00    +0.000 A 
ENDBRANCH  23  26
ENDBRANCH  21  23
ENDBRANCH  20  21
ENDBRANCH   9  20
TORSDOF 5
ENDMDL
MODEL 7
REMARK VINA RESULT:      -7.3      4.212      7.084
REMARK  Name = 
REMARK  6 active torsions:
REMARK  status: ('A' for Active; 'I' for Inactive)
REMARK    1  A    between atoms: C_1  and  C_2
REMARK    2  A    between atoms: C_9  and  C_10
REMARK    3  A    between atoms: C_10  and  N_11
REMARK    4  A    between atoms: N_11  and  S_12
REMARK    5  A    between atoms: S_12  and  C_15
REMARK    6  A    between atoms: C_21  and  C_22
REMARK                            x       y       z     vdW  Elec       q    Type
REMARK                         _______ _______ _______ _____ _____    ______ ____
ROOT
ATOM      1  C   UNL     1      -3.026   9.575  15.146  0.00  0.00    +0.000 C 
ATOM      2  C   UNL     1      -3.161  10.368  16.414  0.00  0.00    +0.000 A 
ATOM      3  C   UNL     1      -4.288  11.155  16.662  0.00  0.00    +0.000 A 
ATOM      4  C   UNL     1      -4.372  11.910  17.833  0.00  0.00    +0.000 A 
ATOM      5  C   UNL     1      -3.319  11.892  18.751  0.00  0.00    +0.000 A 
ATOM      6  N   UNL     1      -3.394  12.677  19.901  0.00  0.00    +0.000 N 
ATOM      7  C   UNL     1      -2.396  12.763  20.826  0.00  0.00    +0.000 A 
ATOM      8  O   UNL     1      -2.533  13.491  21.805  0.00  0.00    +0.000 OA
ATOM      9  C   UNL     1      -1.148  11.957  20.606  0.00  0.00    +0.000 A 
ATOM     10  C   UNL     1      -1.070  11.130  19.530  0.00  0.00    +0.000 A 
ATOM     11  C   UNL     1      -2.184  11.113  18.536  0.00  0.00    +0.000 A 
ATOM     12  C   UNL     1      -2.126  10.341  17.361  0.00  0.00    +0.000 A 
ATOM     13  H   UNL     1      -4.216  13.234  20.083  0.00  0.00    +0.000 HD
ENDROOT
BRANCH  10  14
ATOM     14  C   UNL     1       0.121  10.267  19.347  0.00  0.00    +0.000 A 
ATOM     15  C   UNL     1       0.410   9.255  20.273  0.00  0.00    +0.000 A 
ATOM     16  C   UNL     1       1.421   8.331  20.005  0.00  0.00    +0.000 A 
ATOM     17  C   UNL     1       2.143   8.410  18.815  0.00  0.00    +0.000 A 
ATOM     18  C   UNL     1       1.867   9.420  17.894  0.00  0.00    +0.000 A 
ATOM     19  C   UNL     1       0.860  10.348  18.160  0.00  0.00    +0.000 A 
ENDBRANCH  10  14
BRANCH   9  20
ATOM     20  C   UNL     1      -0.120  12.113  21.710  0.00  0.00    +0.000 C 
BRANCH  20  21
ATOM     21  N   UNL     1       0.267  13.535  21.863  0.00  0.00    +0.000 NA
ATOM     22  H   UNL     1       0.217  13.851  22.830  0.00  0.00    +0.000 HD
BRANCH  21  23
ATOM     23  S   UNL     1       1.767  13.956  21.176  0.00  0.00    +0.000 S 
ATOM     24  O   UNL     1       2.605  14.543  22.194  0.00  0.00    +0.000 OA
ATOM     25  O   UNL     1       2.199  12.824  20.386  0.00  0.00    +0.000 OA
BRANCH  23  26
ATOM     26  C   UNL     1       1.303  15.237  20.025  0.00  0.00    +0.000 A 
ATOM     27  C   UNL     1       2.253  16.159  19.582  0.00  0.00    +0.000 A 
ATOM     28  C   UNL     1       1.875  17.157  18.680  0.00  0.00    +0.000 A 
ATOM     29  C   UNL     1       0.560  17.217  18.211  0.00  0.00    +0.000 A 
ATOM     30  C   UNL     1      -0.375  16.268  18.622  0.00  0.00    +0.000 A 
ATOM     31  C   UNL     1      -0.005  15.271  19.527  0.00  0.00    +0.000 A 
ENDBRANCH  23  26
ENDBRANCH  21  23
ENDBRANCH  20  21
ENDBRANCH   9  20
TORSDOF 5
ENDMDL
MODEL 8
REMARK VINA RESULT:      -7.2      3.030      6.988
REMARK  Name = 
REMARK  6 active torsions:
REMARK  status: ('A' for Active; 'I' for Inactive)
REMARK    1  A    between atoms: C_1  and  C_2
REMARK    2  A    between atoms: C_9  and  C_10
REMARK    3  A    between atoms: C_10  and  N_11
REMARK    4  A    between atoms: N_11  and  S_12
REMARK    5  A    between atoms: S_12  and  C_15
REMARK    6  A    between atoms: C_21  and  C_22
REMARK                            x       y       z     vdW  Elec       q    Type
REMARK                         _______ _______ _______ _____ _____    ______ ____
ROOT
ATOM      1  C   UNL     1      -0.606   8.660  22.437  0.00  0.00    +0.000 C 
ATOM      2  C   UNL     1       0.334   8.693  21.267  0.00  0.00    +0.000 A 
ATOM      3  C   UNL     1       0.617   9.885  20.596  0.00  0.00    +0.000 A 
ATOM      4  C   UNL     1       1.467   9.882  19.489  0.00  0.00    +0.000 A 
ATOM      5  C   UNL     1       2.022   8.682  19.040  0.00  0.00    +0.000 A 
ATOM      6  N   UNL     1       2.841   8.681  17.912  0.00  0.00    +0.000 N 
ATOM      7  C   UNL     1       3.385   7.554  17.370  0.00  0.00    +0.000 A 
ATOM      8  O   UNL     1       4.083   7.636  16.364  0.00  0.00    +0.000 OA
ATOM      9  C   UNL     1       3.101   6.237  18.033  0.00  0.00    +0.000 A 
ATOM     10  C   UNL     1       2.362   6.210  19.173  0.00  0.00    +0.000 A 
ATOM     11  C   UNL     1       1.764   7.477  19.691  0.00  0.00    +0.000 A 
ATOM     12  C   UNL     1       0.923   7.502  20.818  0.00  0.00    +0.000 A 
ATOM     13  H   UNL     1       3.054   9.547  17.438  0.00  0.00    +0.000 HD
ENDROOT
BRANCH  10  14
ATOM     14  C   UNL     1       2.144   4.926  19.882  0.00  0.00    +0.000 A 
ATOM     15  C   UNL     1       2.740   4.699  21.131  0.00  0.00    +0.000 A 
ATOM     16  C   UNL     1       2.391   3.572  21.877  0.00  0.00    +0.000 A 
ATOM     17  C   UNL     1       1.447   2.672  21.384  0.00  0.00    +0.000 A 
ATOM     18  C   UNL     1       0.858   2.887  20.138  0.00  0.00    +0.000 A 
ATOM     19  C   UNL     1       1.207   4.011  19.388  0.00  0.00    +0.000 A 
ENDBRANCH  10  14
BRANCH   9  20
ATOM     20  C   UNL     1       3.777   5.058  17.359  0.00  0.00    +0.000 C 
BRANCH  20  21
ATOM     21  N   UNL     1       4.900   4.560  18.186  0.00  0.00    +0.000 NA
ATOM     22  H   UNL     1       4.895   3.545  18.281  0.00  0.00    +0.000 HD
BRANCH  21  23
ATOM     23  S   UNL     1       6.442   5.107  17.719  0.00  0.00    +0.000 S 
ATOM     24  O   UNL     1       6.502   6.541  17.870  0.00  0.00    +0.000 OA
ATOM     25  O   UNL     1       7.406   4.229  18.345  0.00  0.00    +0.000 OA
BRANCH  23  26
ATOM     26  C   UNL     1       6.460   4.727  15.977  0.00  0.00    +0.000 A 
ATOM     27  C   UNL     1       7.388   5.341  15.133  0.00  0.00    +0.000 A 
ATOM     28  C   UNL     1       7.390   5.033  13.771  0.00  0.00    +0.000 A 
ATOM     29  C   UNL     1       6.482   4.101  13.262  0.00  0.00    +0.000 A 
ATOM     30  C   UNL     1       5.586   3.457  14.114  0.00  0.00    +0.000 A 
ATOM     31  C   UNL     1       5.576   3.763  15.475  0.00  0.00    +0.000 A 
ENDBRANCH  23  26
ENDBRANCH  21  23
ENDBRANCH  20  21
ENDBRANCH   9  20
TORSDOF 5
ENDMDL
MODEL 9
REMARK VINA RESULT:      -7.2      3.018      7.387
REMARK  Name = 
REMARK  6 active torsions:
REMARK  status: ('A' for Active; 'I' for Inactive)
REMARK    1  A    between atoms: C_1  and  C_2
REMARK    2  A    between atoms: C_9  and  C_10
REMARK    3  A    between atoms: C_10  and  N_11
REMARK    4  A    between atoms: N_11  and  S_12
REMARK    5  A    between atoms: S_12  and  C_15
REMARK    6  A    between atoms: C_21  and  C_22
REMARK                            x       y       z     vdW  Elec       q    Type
REMARK                         _______ _______ _______ _____ _____    ______ ____
ROOT
ATOM      1  C   UNL     1      -0.709   8.945  22.812  0.00  0.00    +0.000 C 
ATOM      2  C   UNL     1       0.182   8.959  21.604  0.00  0.00    +0.000 A 
ATOM      3  C   UNL     1       0.474  10.148  20.931  0.00  0.00    +0.000 A 
ATOM      4  C   UNL     1       1.277  10.128  19.789  0.00  0.00    +0.000 A 
ATOM      5  C   UNL     1       1.776   8.915  19.309  0.00  0.00    +0.000 A 
ATOM      6  N   UNL     1       2.546   8.899  18.147  0.00  0.00    +0.000 N 
ATOM      7  C   UNL     1       3.032   7.760  17.575  0.00  0.00    +0.000 A 
ATOM      8  O   UNL     1       3.690   7.829  16.541  0.00  0.00    +0.000 OA
ATOM      9  C   UNL     1       2.734   6.446  18.239  0.00  0.00    +0.000 A 
ATOM     10  C   UNL     1       2.042   6.432  19.409  0.00  0.00    +0.000 A 
ATOM     11  C   UNL     1       1.507   7.713  19.960  0.00  0.00    +0.000 A 
ATOM     12  C   UNL     1       0.715   7.754  21.122  0.00  0.00    +0.000 A 
ATOM     13  H   UNL     1       2.767   9.762  17.672  0.00  0.00    +0.000 HD
ENDROOT
BRANCH  10  14
ATOM     14  C   UNL     1       1.815   5.150  20.117  0.00  0.00    +0.000 A 
ATOM     15  C   UNL     1       0.921   4.204  19.597  0.00  0.00    +0.000 A 
ATOM     16  C   UNL     1       0.844   2.930  20.163  0.00  0.00    +0.000 A 
ATOM     17  C   UNL     1       1.658   2.595  21.244  0.00  0.00    +0.000 A 
ATOM     18  C   UNL     1       2.542   3.535  21.772  0.00  0.00    +0.000 A 
ATOM     19  C   UNL     1       2.620   4.810  21.212  0.00  0.00    +0.000 A 
ENDBRANCH  10  14
BRANCH   9  20
ATOM     20  C   UNL     1       3.344   5.253  17.529  0.00  0.00    +0.000 C 
BRANCH  20  21
ATOM     21  N   UNL     1       4.746   5.537  17.145  0.00  0.00    +0.000 NA
ATOM     22  H   UNL     1       5.187   6.223  17.756  0.00  0.00    +0.000 HD
BRANCH  21  23
ATOM     23  S   UNL     1       5.742   4.168  16.971  0.00  0.00    +0.000 S 
ATOM     24  O   UNL     1       6.937   4.348  17.760  0.00  0.00    +0.000 OA
ATOM     25  O   UNL     1       4.891   3.009  17.121  0.00  0.00    +0.000 OA
BRANCH  23  26
ATOM     26  C   UNL     1       6.192   4.252  15.247  0.00  0.00    +0.000 A 
ATOM     27  C   UNL     1       5.436   3.572  14.290  0.00  0.00    +0.000 A 
ATOM     28  C   UNL     1       5.801   3.649  12.944  0.00  0.00    +0.000 A 
ATOM     29  C   UNL     1       6.903   4.415  12.558  0.00  0.00    +0.000 A 
ATOM     30  C   UNL     1       7.629   5.128  13.511  0.00  0.00    +0.000 A 
ATOM     31  C   UNL     1       7.273   5.054  14.858  0.00  0.00    +0.000 A 
ENDBRANCH  23  26
ENDBRANCH  21  23
ENDBRANCH  20  21
ENDBRANCH   9  20
TORSDOF 5
ENDMDL
