MODEL 1
REMARK VINA RESULT:      -6.1      0.000      0.000
REMARK  Name = 
REMARK  7 active torsions:
REMARK  status: ('A' for Active; 'I' for Inactive)
REMARK    1  A    between atoms: C_1  and  C_2
REMARK    2  A    between atoms: C_2  and  C_3
REMARK    3  A    between atoms: C_3  and  C_4
REMARK    4  A    between atoms: C_4  and  N_5
REMARK    5  A    between atoms: N_5  and  C_6
REMARK    6  A    between atoms: C_11  and  C_12
REMARK    7  A    between atoms: C_13  and  C_14
REMARK                            x       y       z     vdW  Elec       q    Type
REMARK                         _______ _______ _______ _____ _____    ______ ____
ROOT
ATOM      1  C   UNL     1       5.633   4.249  17.074  0.00  0.00    +0.000 A 
ATOM      2  N   UNL     1       5.914   4.211  15.759  0.00  0.00    +0.000 NA
ATOM      3  C   UNL     1       6.812   5.068  15.287  0.00  0.00    +0.000 A 
ATOM      4  N   UNL     1       7.106   5.006  13.939  0.00  0.00    +0.000 N 
ATOM      5  N   UNL     1       7.416   6.010  16.005  0.00  0.00    +0.000 NA
ATOM      6  C   UNL     1       7.116   6.067  17.318  0.00  0.00    +0.000 A 
ATOM      7  C   UNL     1       7.815   7.155  18.080  0.00  0.00    +0.000 C 
ATOM      8  C   UNL     1       6.228   5.182  17.925  0.00  0.00    +0.000 A 
ATOM      9  C   UNL     1       5.874   5.268  19.379  0.00  0.00    +0.000 C 
ATOM     10  H   UNL     1       6.318   4.604  13.448  0.00  0.00    +0.000 HD
ATOM     11  H   UNL     1       7.434   5.909  13.630  0.00  0.00    +0.000 HD
ENDROOT
BRANCH   1  12
ATOM     12  N   UNL     1       4.678   3.339  17.589  0.00  0.00    +0.000 N 
ATOM     13  H   UNL     1       5.011   2.396  17.415  0.00  0.00    +0.000 HD
BRANCH  12  14
ATOM     14  C   UNL     1       3.332   3.537  17.042  0.00  0.00    +0.000 C 
BRANCH  14  15
ATOM     15  C   UNL     1       2.509   4.434  17.970  0.00  0.00    +0.000 C 
BRANCH  15  17
ATOM     16  C   UNL     1       1.143   3.935  20.040  0.00  0.00    +0.000 C 
ATOM     17  C   UNL     1       1.329   3.657  18.558  0.00  0.00    +0.000 C 
ENDBRANCH  15  17
ENDBRANCH  14  15
ENDBRANCH  12  14
ENDBRANCH   1  12
TORSDOF 4
ENDMDL
MODEL 2
REMARK VINA RESULT:      -6.1      1.926      3.138
REMARK  Name = 
REMARK  7 active torsions:
REMARK  status: ('A' for Active; 'I' for Inactive)
REMARK    1  A    between atoms: C_1  and  C_2
REMARK    2  A    between atoms: C_2  and  C_3
REMARK    3  A    between atoms: C_3  and  C_4
REMARK    4  A    between atoms: C_4  and  N_5
REMARK    5  A    between atoms: N_5  and  C_6
REMARK    6  A    between atoms: C_11  and  C_12
REMARK    7  A    between atoms: C_13  and  C_14
REMARK                            x       y       z     vdW  Elec       q    Type
REMARK                         _______ _______ _______ _____ _____    ______ ____
ROOT
ATOM      1  C   UNL     1       5.117   4.558  18.902  0.00  0.00    +0.000 A 
ATOM      2  N   UNL     1       6.126   4.971  19.690  0.00  0.00    +0.000 NA
ATOM      3  C   UNL     1       7.292   5.252  19.117  0.00  0.00    +0.000 A 
ATOM      4  N   UNL     1       8.314   5.693  19.934  0.00  0.00    +0.000 N 
ATOM      5  N   UNL     1       7.560   5.099  17.824  0.00  0.00    +0.000 NA
ATOM      6  C   UNL     1       6.557   4.660  17.037  0.00  0.00    +0.000 A 
ATOM      7  C   UNL     1       6.916   4.493  15.589  0.00  0.00    +0.000 C 
ATOM      8  C   UNL     1       5.282   4.386  17.527  0.00  0.00    +0.000 A 
ATOM      9  C   UNL     1       4.178   3.870  16.654  0.00  0.00    +0.000 C 
ATOM     10  H   UNL     1       8.153   5.356  20.874  0.00  0.00    +0.000 HD
ATOM     11  H   UNL     1       9.199   5.470  19.505  0.00  0.00    +0.000 HD
ENDROOT
BRANCH   1  12
ATOM     12  N   UNL     1       3.870   4.257  19.502  0.00  0.00    +0.000 N 
ATOM     13  H   UNL     1       3.322   3.713  18.843  0.00  0.00    +0.000 HD
BRANCH  12  14
ATOM     14  C   UNL     1       3.138   5.446  19.947  0.00  0.00    +0.000 C 
BRANCH  14  15
ATOM     15  C   UNL     1       1.750   5.055  20.461  0.00  0.00    +0.000 C 
BRANCH  15  17
ATOM     16  C   UNL     1       1.433   2.759  21.477  0.00  0.00    +0.000 C 
ATOM     17  C   UNL     1       1.479   3.573  20.194  0.00  0.00    +0.000 C 
ENDBRANCH  15  17
ENDBRANCH  14  15
ENDBRANCH  12  14
ENDBRANCH   1  12
TORSDOF 4
ENDMDL
MODEL 3
REMARK VINA RESULT:      -6.0      2.406      5.384
REMARK  Name = 
REMARK  7 active torsions:
REMARK  status: ('A' for Active; 'I' for Inactive)
REMARK    1  A    between atoms: C_1  and  C_2
REMARK    2  A    between atoms: C_2  and  C_3
REMARK    3  A    between atoms: C_3  and  C_4
REMARK    4  A    between atoms: C_4  and  N_5
REMARK    5  A    between atoms: N_5  and  C_6
REMARK    6  A    between atoms: C_11  and  C_12
REMARK    7  A    between atoms: C_13  and  C_14
REMARK                            x       y       z     vdW  Elec       q    Type
REMARK                         _______ _______ _______ _____ _____    ______ ____
ROOT
ATOM      1  C   UNL     1       4.319   3.980  19.022  0.00  0.00    +0.000 A 
ATOM      2  N   UNL     1       4.030   5.207  19.491  0.00  0.00    +0.000 NA
ATOM      3  C   UNL     1       2.765   5.480  19.791  0.00  0.00    +0.000 A 
ATOM      4  N   UNL     1       2.485   6.737  20.289  0.00  0.00    +0.000 N 
ATOM      5  N   UNL     1       1.743   4.650  19.605  0.00  0.00    +0.000 NA
ATOM      6  C   UNL     1       2.027   3.428  19.111  0.00  0.00    +0.000 A 
ATOM      7  C   UNL     1       0.837   2.535  18.910  0.00  0.00    +0.000 C 
ATOM      8  C   UNL     1       3.326   3.021  18.813  0.00  0.00    +0.000 A 
ATOM      9  C   UNL     1       3.634   1.673  18.236  0.00  0.00    +0.000 C 
ATOM     10  H   UNL     1       3.198   7.382  19.976  0.00  0.00    +0.000 HD
ATOM     11  H   UNL     1       1.525   6.969  20.079  0.00  0.00    +0.000 HD
ENDROOT
BRANCH   1  12
ATOM     12  N   UNL     1       5.665   3.677  18.701  0.00  0.00    +0.000 N 
ATOM     13  H   UNL     1       6.208   3.694  19.558  0.00  0.00    +0.000 HD
BRANCH  12  14
ATOM     14  C   UNL     1       6.236   4.572  17.690  0.00  0.00    +0.000 C 
BRANCH  14  15
ATOM     15  C   UNL     1       5.791   4.144  16.289  0.00  0.00    +0.000 C 
BRANCH  15  17
ATOM     16  C   UNL     1       5.037   6.558  16.205  0.00  0.00    +0.000 C 
ATOM     17  C   UNL     1       5.550   5.370  15.407  0.00  0.00    +0.000 C 
ENDBRANCH  15  17
ENDBRANCH  14  15
ENDBRANCH  12  14
ENDBRANCH   1  12
TORSDOF 4
ENDMDL
MODEL 4
REMARK VINA RESULT:      -6.0      1.938      3.189
REMARK  Name = 
REMARK  7 active torsions:
REMARK  status: ('A' for Active; 'I' for Inactive)
REMARK    1  A    between atoms: C_1  and  C_2
REMARK    2  A    between atoms: C_2  and  C_3
REMARK    3  A    between atoms: C_3  and  C_4
REMARK    4  A    between atoms: C_4  and  N_5
REMARK    5  A    between atoms: N_5  and  C_6
REMARK    6  A    between atoms: C_11  and  C_12
REMARK    7  A    between atoms: C_13  and  C_14
REMARK                            x       y       z     vdW  Elec       q    Type
REMARK                         _______ _______ _______ _____ _____    ______ ____
ROOT
ATOM      1  C   UNL     1       4.947   4.600  18.981  0.00  0.00    +0.000 A 
ATOM      2  N   UNL     1       6.005   5.002  19.707  0.00  0.00    +0.000 NA
ATOM      3  C   UNL     1       7.152   5.222  19.073  0.00  0.00    +0.000 A 
ATOM      4  N   UNL     1       8.225   5.652  19.826  0.00  0.00    +0.000 N 
ATOM      5  N   UNL     1       7.354   5.016  17.774  0.00  0.00    +0.000 NA
ATOM      6  C   UNL     1       6.301   4.588  17.050  0.00  0.00    +0.000 A 
ATOM      7  C   UNL     1       6.586   4.359  15.594  0.00  0.00    +0.000 C 
ATOM      8  C   UNL     1       5.041   4.377  17.607  0.00  0.00    +0.000 A 
ATOM      9  C   UNL     1       3.881   3.873  16.803  0.00  0.00    +0.000 C 
ATOM     10  H   UNL     1       8.097   5.353  20.783  0.00  0.00    +0.000 HD
ATOM     11  H   UNL     1       9.081   5.382  19.366  0.00  0.00    +0.000 HD
ENDROOT
BRANCH   1  12
ATOM     12  N   UNL     1       3.719   4.365  19.647  0.00  0.00    +0.000 N 
ATOM     13  H   UNL     1       3.563   5.122  20.305  0.00  0.00    +0.000 HD
BRANCH  12  14
ATOM     14  C   UNL     1       3.660   3.060  20.313  0.00  0.00    +0.000 C 
BRANCH  14  15
ATOM     15  C   UNL     1       2.247   2.793  20.835  0.00  0.00    +0.000 C 
BRANCH  15  17
ATOM     16  C   UNL     1       0.755   2.499  18.813  0.00  0.00    +0.000 C 
ATOM     17  C   UNL     1       1.206   3.440  19.918  0.00  0.00    +0.000 C 
ENDBRANCH  15  17
ENDBRANCH  14  15
ENDBRANCH  12  14
ENDBRANCH   1  12
TORSDOF 4
ENDMDL
MODEL 5
REMARK VINA RESULT:      -5.9      2.329      4.756
REMARK  Name = 
REMARK  7 active torsions:
REMARK  status: ('A' for Active; 'I' for Inactive)
REMARK    1  A    between atoms: C_1  and  C_2
REMARK    2  A    between atoms: C_2  and  C_3
REMARK    3  A    between atoms: C_3  and  C_4
REMARK    4  A    between atoms: C_4  and  N_5
REMARK    5  A    between atoms: N_5  and  C_6
REMARK    6  A    between atoms: C_11  and  C_12
REMARK    7  A    between atoms: C_13  and  C_14
REMARK                            x       y       z     vdW  Elec       q    Type
REMARK                         _______ _______ _______ _____ _____    ______ ____
ROOT
ATOM      1  C   UNL     1       6.025   4.135  17.326  0.00  0.00    +0.000 A 
ATOM      2  N   UNL     1       7.141   4.557  17.948  0.00  0.00    +0.000 NA
ATOM      3  C   UNL     1       7.006   5.219  19.092  0.00  0.00    +0.000 A 
ATOM      4  N   UNL     1       8.159   5.631  19.730  0.00  0.00    +0.000 N 
ATOM      5  N   UNL     1       5.844   5.553  19.645  0.00  0.00    +0.000 NA
ATOM      6  C   UNL     1       4.725   5.153  19.009  0.00  0.00    +0.000 A 
ATOM      7  C   UNL     1       3.441   5.566  19.669  0.00  0.00    +0.000 C 
ATOM      8  C   UNL     1       4.754   4.409  17.832  0.00  0.00    +0.000 A 
ATOM      9  C   UNL     1       3.506   3.992  17.113  0.00  0.00    +0.000 C 
ATOM     10  H   UNL     1       8.899   5.723  19.047  0.00  0.00    +0.000 HD
ATOM     11  H   UNL     1       7.951   6.436  20.301  0.00  0.00    +0.000 HD
ENDROOT
BRANCH   1  12
ATOM     12  N   UNL     1       6.157   3.426  16.106  0.00  0.00    +0.000 N 
ATOM     13  H   UNL     1       6.767   2.630  16.264  0.00  0.00    +0.000 HD
BRANCH  12  14
ATOM     14  C   UNL     1       6.644   4.258  15.001  0.00  0.00    +0.000 C 
BRANCH  14  15
ATOM     15  C   UNL     1       5.669   4.200  13.823  0.00  0.00    +0.000 C 
BRANCH  15  17
ATOM     16  C   UNL     1       5.381   2.760  11.763  0.00  0.00    +0.000 C 
ATOM     17  C   UNL     1       6.347   3.585  12.597  0.00  0.00    +0.000 C 
ENDBRANCH  15  17
ENDBRANCH  14  15
ENDBRANCH  12  14
ENDBRANCH   1  12
TORSDOF 4
ENDMDL
MODEL 6
REMARK VINA RESULT:      -5.9      2.261      5.610
REMARK  Name = 
REMARK  7 active torsions:
REMARK  status: ('A' for Active; 'I' for Inactive)
REMARK    1  A    between atoms: C_1  and  C_2
REMARK    2  A    between atoms: C_2  and  C_3
REMARK    3  A    between atoms: C_3  and  C_4
REMARK    4  A    between atoms: C_4  and  N_5
REMARK    5  A    between atoms: N_5  and  C_6
REMARK    6  A    between atoms: C_11  and  C_12
REMARK    7  A    between atoms: C_13  and  C_14
REMARK                            x       y       z     vdW  Elec       q    Type
REMARK                         _______ _______ _______ _____ _____    ______ ____
ROOT
ATOM      1  C   UNL     1       4.374   4.473  18.858  0.00  0.00    +0.000 A 
ATOM      2  N   UNL     1       5.093   3.510  19.463  0.00  0.00    +0.000 NA
ATOM      3  C   UNL     1       4.478   2.376  19.780  0.00  0.00    +0.000 A 
ATOM      4  N   UNL     1       5.231   1.389  20.384  0.00  0.00    +0.000 N 
ATOM      5  N   UNL     1       3.182   2.138  19.600  0.00  0.00    +0.000 NA
ATOM      6  C   UNL     1       2.455   3.112  19.017  0.00  0.00    +0.000 A 
ATOM      7  C   UNL     1       0.996   2.797  18.848  0.00  0.00    +0.000 C 
ATOM      8  C   UNL     1       3.012   4.318  18.598  0.00  0.00    +0.000 A 
ATOM      9  C   UNL     1       2.194   5.410  17.977  0.00  0.00    +0.000 C 
ATOM     10  H   UNL     1       6.018   1.816  20.853  0.00  0.00    +0.000 HD
ATOM     11  H   UNL     1       4.624   0.802  20.936  0.00  0.00    +0.000 HD
ENDROOT
BRANCH   1  12
ATOM     12  N   UNL     1       5.021   5.685  18.514  0.00  0.00    +0.000 N 
ATOM     13  H   UNL     1       4.314   6.407  18.417  0.00  0.00    +0.000 HD
BRANCH  12  14
ATOM     14  C   UNL     1       5.843   5.581  17.304  0.00  0.00    +0.000 C 
BRANCH  14  15
ATOM     15  C   UNL     1       7.319   5.421  17.678  0.00  0.00    +0.000 C 
BRANCH  15  17
ATOM     16  C   UNL     1       7.717   7.918  17.577  0.00  0.00    +0.000 C 
ATOM     17  C   UNL     1       7.820   6.660  18.424  0.00  0.00    +0.000 C 
ENDBRANCH  15  17
ENDBRANCH  14  15
ENDBRANCH  12  14
ENDBRANCH   1  12
TORSDOF 4
ENDMDL
MODEL 7
REMARK VINA RESULT:      -5.9      2.266      5.297
REMARK  Name = 
REMARK  7 active torsions:
REMARK  status: ('A' for Active; 'I' for Inactive)
REMARK    1  A    between atoms: C_1  and  C_2
REMARK    2  A    between atoms: C_2  and  C_3
REMARK    3  A    between atoms: C_3  and  C_4
REMARK    4  A    between atoms: C_4  and  N_5
REMARK    5  A    between atoms: N_5  and  C_6
REMARK    6  A    between atoms: C_11  and  C_12
REMARK    7  A    between atoms: C_13  and  C_14
REMARK                            x       y       z     vdW  Elec       q    Type
REMARK                         _______ _______ _______ _____ _____    ______ ____
ROOT
ATOM      1  C   UNL     1       4.520   4.883  18.911  0.00  0.00    +0.000 A 
ATOM      2  N   UNL     1       5.151   3.739  19.232  0.00  0.00    +0.000 NA
ATOM      3  C   UNL     1       4.448   2.787  19.836  0.00  0.00    +0.000 A 
ATOM      4  N   UNL     1       5.102   1.611  20.144  0.00  0.00    +0.000 N 
ATOM      5  N   UNL     1       3.176   2.899  20.206  0.00  0.00    +0.000 NA
ATOM      6  C   UNL     1       2.550   4.055  19.908  0.00  0.00    +0.000 A 
ATOM      7  C   UNL     1       1.120   4.134  20.358  0.00  0.00    +0.000 C 
ATOM      8  C   UNL     1       3.178   5.097  19.229  0.00  0.00    +0.000 A 
ATOM      9  C   UNL     1       2.487   6.392  18.926  0.00  0.00    +0.000 C 
ATOM     10  H   UNL     1       6.092   1.797  20.231  0.00  0.00    +0.000 HD
ATOM     11  H   UNL     1       4.641   1.172  20.927  0.00  0.00    +0.000 HD
ENDROOT
BRANCH   1  12
ATOM     12  N   UNL     1       5.259   5.905  18.264  0.00  0.00    +0.000 N 
ATOM     13  H   UNL     1       4.603   6.541  17.822  0.00  0.00    +0.000 HD
BRANCH  12  14
ATOM     14  C   UNL     1       6.236   5.392  17.299  0.00  0.00    +0.000 C 
BRANCH  14  15
ATOM     15  C   UNL     1       5.583   5.212  15.927  0.00  0.00    +0.000 C 
BRANCH  15  17
ATOM     16  C   UNL     1       6.021   3.956  13.774  0.00  0.00    +0.000 C 
ATOM     17  C   UNL     1       6.025   3.892  15.293  0.00  0.00    +0.000 C 
ENDBRANCH  15  17
ENDBRANCH  14  15
ENDBRANCH  12  14
ENDBRANCH   1  12
TORSDOF 4
ENDMDL
MODEL 8
REMARK VINA RESULT:      -5.9      1.757      5.179
REMARK  Name = 
REMARK  7 active torsions:
REMARK  status: ('A' for Active; 'I' for Inactive)
REMARK    1  A    between atoms: C_1  and  C_2
REMARK    2  A    between atoms: C_2  and  C_3
REMARK    3  A    between atoms: C_3  and  C_4
REMARK    4  A    between atoms: C_4  and  N_5
REMARK    5  A    between atoms: N_5  and  C_6
REMARK    6  A    between atoms: C_11  and  C_12
REMARK    7  A    between atoms: C_13  and  C_14
REMARK                            x       y       z     vdW  Elec       q    Type
REMARK                         _______ _______ _______ _____ _____    ______ ____
ROOT
ATOM      1  C   UNL     1       3.819   4.242  17.574  0.00  0.00    +0.000 A 
ATOM      2  N   UNL     1       4.205   2.954  17.598  0.00  0.00    +0.000 NA
ATOM      3  C   UNL     1       3.536   2.116  18.382  0.00  0.00    +0.000 A 
ATOM      4  N   UNL     1       3.930   0.793  18.384  0.00  0.00    +0.000 N 
ATOM      5  N   UNL     1       2.545   2.464  19.199  0.00  0.00    +0.000 NA
ATOM      6  C   UNL     1       2.175   3.760  19.194  0.00  0.00    +0.000 A 
ATOM      7  C   UNL     1       1.061   4.103  20.142  0.00  0.00    +0.000 C 
ATOM      8  C   UNL     1       2.774   4.711  18.371  0.00  0.00    +0.000 A 
ATOM      9  C   UNL     1       2.379   6.157  18.392  0.00  0.00    +0.000 C 
ATOM     10  H   UNL     1       4.901   0.737  18.107  0.00  0.00    +0.000 HD
ATOM     11  H   UNL     1       3.673   0.373  19.265  0.00  0.00    +0.000 HD
ENDROOT
BRANCH   1  12
ATOM     12  N   UNL     1       4.523   5.145  16.739  0.00  0.00    +0.000 N 
ATOM     13  H   UNL     1       3.865   5.551  16.082  0.00  0.00    +0.000 HD
BRANCH  12  14
ATOM     14  C   UNL     1       5.657   4.528  16.044  0.00  0.00    +0.000 C 
BRANCH  14  15
ATOM     15  C   UNL     1       6.956   5.256  16.397  0.00  0.00    +0.000 C 
BRANCH  15  17
ATOM     16  C   UNL     1       7.660   5.710  18.784  0.00  0.00    +0.000 C 
ATOM     17  C   UNL     1       7.566   4.676  17.675  0.00  0.00    +0.000 C 
ENDBRANCH  15  17
ENDBRANCH  14  15
ENDBRANCH  12  14
ENDBRANCH   1  12
TORSDOF 4
ENDMDL
MODEL 9
REMARK VINA RESULT:      -5.9      2.112      3.097
REMARK  Name = 
REMARK  7 active torsions:
REMARK  status: ('A' for Active; 'I' for Inactive)
REMARK    1  A    between atoms: C_1  and  C_2
REMARK    2  A    between atoms: C_2  and  C_3
REMARK    3  A    between atoms: C_3  and  C_4
REMARK    4  A    between atoms: C_4  and  N_5
REMARK    5  A    between atoms: N_5  and  C_6
REMARK    6  A    between atoms: C_11  and  C_12
REMARK    7  A    between atoms: C_13  and  C_14
REMARK                            x       y       z     vdW  Elec       q    Type
REMARK                         _______ _______ _______ _____ _____    ______ ____
ROOT
ATOM      1  C   UNL     1       4.979   3.809  18.745  0.00  0.00    +0.000 A 
ATOM      2  N   UNL     1       6.070   4.188  19.434  0.00  0.00    +0.000 NA
ATOM      3  C   UNL     1       6.676   5.314  19.076  0.00  0.00    +0.000 A 
ATOM      4  N   UNL     1       7.784   5.702  19.803  0.00  0.00    +0.000 N 
ATOM      5  N   UNL     1       6.322   6.073  18.042  0.00  0.00    +0.000 NA
ATOM      6  C   UNL     1       5.244   5.681  17.335  0.00  0.00    +0.000 A 
ATOM      7  C   UNL     1       4.895   6.565  16.172  0.00  0.00    +0.000 C 
ATOM      8  C   UNL     1       4.505   4.545  17.657  0.00  0.00    +0.000 A 
ATOM      9  C   UNL     1       3.325   4.097  16.849  0.00  0.00    +0.000 C 
ATOM     10  H   UNL     1       8.201   4.885  20.228  0.00  0.00    +0.000 HD
ATOM     11  H   UNL     1       8.376   6.277  19.223  0.00  0.00    +0.000 HD
ENDROOT
BRANCH   1  12
ATOM     12  N   UNL     1       4.323   2.611  19.119  0.00  0.00    +0.000 N 
ATOM     13  H   UNL     1       3.772   2.289  18.330  0.00  0.00    +0.000 HD
BRANCH  12  14
ATOM     14  C   UNL     1       3.497   2.752  20.322  0.00  0.00    +0.000 C 
BRANCH  14  15
ATOM     15  C   UNL     1       2.021   2.530  19.982  0.00  0.00    +0.000 C 
BRANCH  15  17
ATOM     16  C   UNL     1       1.732   4.995  20.473  0.00  0.00    +0.000 C 
ATOM     17  C   UNL     1       1.152   3.601  20.645  0.00  0.00    +0.000 C 
ENDBRANCH  15  17
ENDBRANCH  14  15
ENDBRANCH  12  14
ENDBRANCH   1  12
TORSDOF 4
ENDMDL
