MODEL 1
REMARK VINA RESULT:      -4.4      0.000      0.000
REMARK  Name = 
REMARK  3 active torsions:
REMARK  status: ('A' for Active; 'I' for Inactive)
REMARK    1  A    between atoms: O_1  and  C_2
REMARK    2  A    between atoms: C_2  and  C_3
REMARK    3  A    between atoms: C_3  and  N_4
REMARK                            x       y       z     vdW  Elec       q    Type
REMARK                         _______ _______ _______ _____ _____    ______ ____
ROOT
ATOM      1  N   UNL     1       6.180   4.795  17.523  0.00  0.00    +0.000 N 
ATOM      2  C   UNL     1       5.183   4.060  18.223  0.00  0.00    +0.000 C 
ATOM      3  N   UNL     1       3.966   4.027  17.845  0.00  0.00    +0.000 NA
ATOM      4  C   UNL     1       3.182   3.215  18.748  0.00  0.00    +0.000 C 
ATOM      5  C   UNL     1       4.201   2.676  19.772  0.00  0.00    +0.000 C 
ATOM      6  N   UNL     1       5.428   3.309  19.380  0.00  0.00    +0.000 N 
ATOM      7  H   UNL     1       5.900   5.329  16.685  0.00  0.00    +0.000 HD
ATOM      8  H   UNL     1       6.336   3.187  19.850  0.00  0.00    +0.000 HD
ENDROOT
BRANCH   1   9
ATOM      9  C   UNL     1       7.558   4.814  17.969  0.00  0.00    +0.000 C 
BRANCH   9  10
ATOM     10  C   UNL     1       7.797   5.953  18.960  0.00  0.00    +0.000 C 
BRANCH  10  11
ATOM     11  O   UNL     1       7.765   5.444  20.265  0.00  0.00    +0.000 OA
ATOM     12  H   UNL     1       6.872   5.025  20.381  0.00  0.00    +0.000 HD
ENDBRANCH  10  11
ENDBRANCH   9  10
ENDBRANCH   1   9
TORSDOF 3
ENDMDL
MODEL 2
REMARK VINA RESULT:      -4.3      1.081      1.081
REMARK  Name = 
REMARK  3 active torsions:
REMARK  status: ('A' for Active; 'I' for Inactive)
REMARK    1  A    between atoms: O_1  and  C_2
REMARK    2  A    between atoms: C_2  and  C_3
REMARK    3  A    between atoms: C_3  and  N_4
REMARK                            x       y       z     vdW  Elec       q    Type
REMARK                         _______ _______ _______ _____ _____    ______ ____
ROOT
ATOM      1  N   UNL     1       5.589   5.423  18.762  0.00  0.00    +0.000 N 
ATOM      2  C   UNL     1       4.783   4.370  19.277  0.00  0.00    +0.000 C 
ATOM      3  N   UNL     1       3.586   4.558  19.676  0.00  0.00    +0.000 NA
ATOM      4  C   UNL     1       3.018   3.318  20.155  0.00  0.00    +0.000 C 
ATOM      5  C   UNL     1       4.116   2.264  19.910  0.00  0.00    +0.000 C 
ATOM      6  N   UNL     1       5.209   3.041  19.398  0.00  0.00    +0.000 N 
ATOM      7  H   UNL     1       5.191   6.374  18.723  0.00  0.00    +0.000 HD
ATOM      8  H   UNL     1       6.129   2.666  19.126  0.00  0.00    +0.000 HD
ENDROOT
BRANCH   1   9
ATOM      9  C   UNL     1       6.945   5.185  18.310  0.00  0.00    +0.000 C 
BRANCH   9  10
ATOM     10  C   UNL     1       7.950   5.958  19.163  0.00  0.00    +0.000 C 
BRANCH  10  11
ATOM     11  O   UNL     1       7.961   5.427  20.460  0.00  0.00    +0.000 OA
ATOM     12  H   UNL     1       8.898   5.496  20.783  0.00  0.00    +0.000 HD
ENDBRANCH  10  11
ENDBRANCH   9  10
ENDBRANCH   1   9
TORSDOF 3
ENDMDL
MODEL 3
REMARK VINA RESULT:      -4.3      2.350      3.964
REMARK  Name = 
REMARK  3 active torsions:
REMARK  status: ('A' for Active; 'I' for Inactive)
REMARK    1  A    between atoms: O_1  and  C_2
REMARK    2  A    between atoms: C_2  and  C_3
REMARK    3  A    between atoms: C_3  and  N_4
REMARK                            x       y       z     vdW  Elec       q    Type
REMARK                         _______ _______ _______ _____ _____    ______ ____
ROOT
ATOM      1  N   UNL     1       6.254   4.169  18.480  0.00  0.00    +0.000 N 
ATOM      2  C   UNL     1       6.297   4.523  17.103  0.00  0.00    +0.000 C 
ATOM      3  N   UNL     1       7.367   4.452  16.413  0.00  0.00    +0.000 NA
ATOM      4  C   UNL     1       7.116   4.881  15.055  0.00  0.00    +0.000 C 
ATOM      5  C   UNL     1       5.606   5.188  15.015  0.00  0.00    +0.000 C 
ATOM      6  N   UNL     1       5.192   4.977  16.373  0.00  0.00    +0.000 N 
ATOM      7  H   UNL     1       7.126   3.856  18.936  0.00  0.00    +0.000 HD
ATOM      8  H   UNL     1       4.232   5.098  16.728  0.00  0.00    +0.000 HD
ENDROOT
BRANCH   1   9
ATOM      9  C   UNL     1       5.026   4.254  19.244  0.00  0.00    +0.000 C 
BRANCH   9  10
ATOM     10  C   UNL     1       4.318   2.901  19.294  0.00  0.00    +0.000 C 
BRANCH  10  11
ATOM     11  O   UNL     1       5.137   1.974  19.952  0.00  0.00    +0.000 OA
ATOM     12  H   UNL     1       4.550   1.218  20.215  0.00  0.00    +0.000 HD
ENDBRANCH  10  11
ENDBRANCH   9  10
ENDBRANCH   1   9
TORSDOF 3
ENDMDL
MODEL 4
REMARK VINA RESULT:      -4.3      1.821      3.739
REMARK  Name = 
REMARK  3 active torsions:
REMARK  status: ('A' for Active; 'I' for Inactive)
REMARK    1  A    between atoms: O_1  and  C_2
REMARK    2  A    between atoms: C_2  and  C_3
REMARK    3  A    between atoms: C_3  and  N_4
REMARK                            x       y       z     vdW  Elec       q    Type
REMARK                         _______ _______ _______ _____ _____    ______ ____
ROOT
ATOM      1  N   UNL     1       3.993   4.028  17.954  0.00  0.00    +0.000 N 
ATOM      2  C   UNL     1       5.316   4.259  17.484  0.00  0.00    +0.000 C 
ATOM      3  N   UNL     1       5.570   4.524  16.263  0.00  0.00    +0.000 NA
ATOM      4  C   UNL     1       6.993   4.700  16.074  0.00  0.00    +0.000 C 
ATOM      5  C   UNL     1       7.595   4.546  17.485  0.00  0.00    +0.000 C 
ATOM      6  N   UNL     1       6.457   4.221  18.295  0.00  0.00    +0.000 N 
ATOM      7  H   UNL     1       3.216   4.065  17.276  0.00  0.00    +0.000 HD
ATOM      8  H   UNL     1       6.481   4.037  19.309  0.00  0.00    +0.000 HD
ENDROOT
BRANCH   1   9
ATOM      9  C   UNL     1       3.727   3.732  19.347  0.00  0.00    +0.000 C 
BRANCH   9  10
ATOM     10  C   UNL     1       3.829   2.231  19.618  0.00  0.00    +0.000 C 
BRANCH  10  11
ATOM     11  O   UNL     1       5.129   1.924  20.040  0.00  0.00    +0.000 OA
ATOM     12  H   UNL     1       5.719   2.629  19.664  0.00  0.00    +0.000 HD
ENDBRANCH  10  11
ENDBRANCH   9  10
ENDBRANCH   1   9
TORSDOF 3
ENDMDL
MODEL 5
REMARK VINA RESULT:      -4.3      1.537      2.134
REMARK  Name = 
REMARK  3 active torsions:
REMARK  status: ('A' for Active; 'I' for Inactive)
REMARK    1  A    between atoms: O_1  and  C_2
REMARK    2  A    between atoms: C_2  and  C_3
REMARK    3  A    between atoms: C_3  and  N_4
REMARK                            x       y       z     vdW  Elec       q    Type
REMARK                         _______ _______ _______ _____ _____    ______ ____
ROOT
ATOM      1  N   UNL     1       5.706   3.741  18.845  0.00  0.00    +0.000 N 
ATOM      2  C   UNL     1       4.380   3.415  18.447  0.00  0.00    +0.000 C 
ATOM      3  N   UNL     1       3.840   2.293  18.725  0.00  0.00    +0.000 NA
ATOM      4  C   UNL     1       2.498   2.237  18.188  0.00  0.00    +0.000 C 
ATOM      5  C   UNL     1       2.276   3.622  17.548  0.00  0.00    +0.000 C 
ATOM      6  N   UNL     1       3.543   4.273  17.724  0.00  0.00    +0.000 N 
ATOM      7  H   UNL     1       6.252   3.036  19.367  0.00  0.00    +0.000 HD
ATOM      8  H   UNL     1       3.770   5.226  17.407  0.00  0.00    +0.000 HD
ENDROOT
BRANCH   1   9
ATOM      9  C   UNL     1       6.298   5.023  18.522  0.00  0.00    +0.000 C 
BRANCH   9  10
ATOM     10  C   UNL     1       7.295   4.892  17.371  0.00  0.00    +0.000 C 
BRANCH  10  11
ATOM     11  O   UNL     1       8.332   4.030  17.753  0.00  0.00    +0.000 OA
ATOM     12  H   UNL     1       7.930   3.368  18.375  0.00  0.00    +0.000 HD
ENDBRANCH  10  11
ENDBRANCH   9  10
ENDBRANCH   1   9
TORSDOF 3
ENDMDL
MODEL 6
REMARK VINA RESULT:      -4.2      3.371      4.490
REMARK  Name = 
REMARK  3 active torsions:
REMARK  status: ('A' for Active; 'I' for Inactive)
REMARK    1  A    between atoms: O_1  and  C_2
REMARK    2  A    between atoms: C_2  and  C_3
REMARK    3  A    between atoms: C_3  and  N_4
REMARK                            x       y       z     vdW  Elec       q    Type
REMARK                         _______ _______ _______ _____ _____    ______ ____
ROOT
ATOM      1  N   UNL     1       6.382   3.991  16.264  0.00  0.00    +0.000 N 
ATOM      2  C   UNL     1       6.926   4.969  17.142  0.00  0.00    +0.000 C 
ATOM      3  N   UNL     1       7.443   4.664  18.268  0.00  0.00    +0.000 NA
ATOM      4  C   UNL     1       7.903   5.854  18.947  0.00  0.00    +0.000 C 
ATOM      5  C   UNL     1       7.616   7.003  17.959  0.00  0.00    +0.000 C 
ATOM      6  N   UNL     1       6.953   6.342  16.870  0.00  0.00    +0.000 N 
ATOM      7  H   UNL     1       6.396   3.002  16.558  0.00  0.00    +0.000 HD
ATOM      8  H   UNL     1       6.603   6.805  16.019  0.00  0.00    +0.000 HD
ENDROOT
BRANCH   1   9
ATOM      9  C   UNL     1       5.803   4.361  14.988  0.00  0.00    +0.000 C 
BRANCH   9  10
ATOM     10  C   UNL     1       6.856   4.331  13.880  0.00  0.00    +0.000 C 
BRANCH  10  11
ATOM     11  O   UNL     1       7.691   5.449  14.006  0.00  0.00    +0.000 OA
ATOM     12  H   UNL     1       7.093   6.237  14.095  0.00  0.00    +0.000 HD
ENDBRANCH  10  11
ENDBRANCH   9  10
ENDBRANCH   1   9
TORSDOF 3
ENDMDL
MODEL 7
REMARK VINA RESULT:      -4.2      4.113      5.122
REMARK  Name = 
REMARK  3 active torsions:
REMARK  status: ('A' for Active; 'I' for Inactive)
REMARK    1  A    between atoms: O_1  and  C_2
REMARK    2  A    between atoms: C_2  and  C_3
REMARK    3  A    between atoms: C_3  and  N_4
REMARK                            x       y       z     vdW  Elec       q    Type
REMARK                         _______ _______ _______ _____ _____    ______ ____
ROOT
ATOM      1  N   UNL     1       6.709   5.084  14.506  0.00  0.00    +0.000 N 
ATOM      2  C   UNL     1       6.915   5.244  15.904  0.00  0.00    +0.000 C 
ATOM      3  N   UNL     1       7.380   6.320  16.407  0.00  0.00    +0.000 NA
ATOM      4  C   UNL     1       7.492   6.194  17.843  0.00  0.00    +0.000 C 
ATOM      5  C   UNL     1       6.928   4.794  18.157  0.00  0.00    +0.000 C 
ATOM      6  N   UNL     1       6.637   4.258  16.859  0.00  0.00    +0.000 N 
ATOM      7  H   UNL     1       6.956   5.865  13.879  0.00  0.00    +0.000 HD
ATOM      8  H   UNL     1       6.248   3.322  16.675  0.00  0.00    +0.000 HD
ENDROOT
BRANCH   1   9
ATOM      9  C   UNL     1       6.176   3.853  13.957  0.00  0.00    +0.000 C 
BRANCH   9  10
ATOM     10  C   UNL     1       6.527   3.717  12.476  0.00  0.00    +0.000 C 
BRANCH  10  11
ATOM     11  O   UNL     1       6.280   2.401  12.062  0.00  0.00    +0.000 OA
ATOM     12  H   UNL     1       6.694   1.810  12.744  0.00  0.00    +0.000 HD
ENDBRANCH  10  11
ENDBRANCH   9  10
ENDBRANCH   1   9
TORSDOF 3
ENDMDL
MODEL 8
REMARK VINA RESULT:      -4.1      2.456      4.269
REMARK  Name = 
REMARK  3 active torsions:
REMARK  status: ('A' for Active; 'I' for Inactive)
REMARK    1  A    between atoms: O_1  and  C_2
REMARK    2  A    between atoms: C_2  and  C_3
REMARK    3  A    between atoms: C_3  and  N_4
REMARK                            x       y       z     vdW  Elec       q    Type
REMARK                         _______ _______ _______ _____ _____    ______ ____
ROOT
ATOM      1  N   UNL     1       5.272   3.198  19.175  0.00  0.00    +0.000 N 
ATOM      2  C   UNL     1       5.756   4.390  18.568  0.00  0.00    +0.000 C 
ATOM      3  N   UNL     1       7.000   4.659  18.488  0.00  0.00    +0.000 NA
ATOM      4  C   UNL     1       7.195   5.934  17.835  0.00  0.00    +0.000 C 
ATOM      5  C   UNL     1       5.776   6.398  17.453  0.00  0.00    +0.000 C 
ATOM      6  N   UNL     1       4.935   5.375  18.005  0.00  0.00    +0.000 N 
ATOM      7  H   UNL     1       5.955   2.536  19.575  0.00  0.00    +0.000 HD
ATOM      8  H   UNL     1       3.907   5.356  17.950  0.00  0.00    +0.000 HD
ENDROOT
BRANCH   1   9
ATOM      9  C   UNL     1       3.854   2.911  19.252  0.00  0.00    +0.000 C 
BRANCH   9  10
ATOM     10  C   UNL     1       3.432   1.938  18.151  0.00  0.00    +0.000 C 
BRANCH  10  11
ATOM     11  O   UNL     1       4.033   0.693  18.379  0.00  0.00    +0.000 OA
ATOM     12  H   UNL     1       3.665   0.075  17.694  0.00  0.00    +0.000 HD
ENDBRANCH  10  11
ENDBRANCH   9  10
ENDBRANCH   1   9
TORSDOF 3
ENDMDL
MODEL 9
REMARK VINA RESULT:      -4.1      1.894      4.007
REMARK  Name = 
REMARK  3 active torsions:
REMARK  status: ('A' for Active; 'I' for Inactive)
REMARK    1  A    between atoms: O_1  and  C_2
REMARK    2  A    between atoms: C_2  and  C_3
REMARK    3  A    between atoms: C_3  and  N_4
REMARK                            x       y       z     vdW  Elec       q    Type
REMARK                         _______ _______ _______ _____ _____    ______ ____
ROOT
ATOM      1  N   UNL     1       4.469   4.130  19.361  0.00  0.00    +0.000 N 
ATOM      2  C   UNL     1       5.748   4.554  18.906  0.00  0.00    +0.000 C 
ATOM      3  N   UNL     1       6.498   5.321  19.596  0.00  0.00    +0.000 NA
ATOM      4  C   UNL     1       7.727   5.592  18.884  0.00  0.00    +0.000 C 
ATOM      5  C   UNL     1       7.619   4.763  17.589  0.00  0.00    +0.000 C 
ATOM      6  N   UNL     1       6.310   4.183  17.678  0.00  0.00    +0.000 N 
ATOM      7  H   UNL     1       4.134   4.467  20.277  0.00  0.00    +0.000 HD
ATOM      8  H   UNL     1       5.884   3.564  16.973  0.00  0.00    +0.000 HD
ENDROOT
BRANCH   1   9
ATOM      9  C   UNL     1       3.635   3.255  18.561  0.00  0.00    +0.000 C 
BRANCH   9  10
ATOM     10  C   UNL     1       3.782   1.801  19.006  0.00  0.00    +0.000 C 
BRANCH  10  11
ATOM     11  O   UNL     1       4.910   1.681  19.828  0.00  0.00    +0.000 OA
ATOM     12  H   UNL     1       4.621   1.168  20.628  0.00  0.00    +0.000 HD
ENDBRANCH  10  11
ENDBRANCH   9  10
ENDBRANCH   1   9
TORSDOF 3
ENDMDL
