MODEL 1
REMARK VINA RESULT:      -7.0      0.000      0.000
REMARK  Name = 
REMARK  9 active torsions:
REMARK  status: ('A' for Active; 'I' for Inactive)
REMARK    1  A    between atoms: C_1  and  N_2
REMARK    2  A    between atoms: N_2  and  C_3
REMARK    3  A    between atoms: N_2  and  C_4
REMARK    4  A    between atoms: C_4  and  C_5
REMARK    5  A    between atoms: C_5  and  S_6
REMARK    6  A    between atoms: S_6  and  C_7
REMARK    7  A    between atoms: C_9  and  C_10
REMARK    8  A    between atoms: C_21  and  C_22
REMARK    9  A    between atoms: C_21  and  C_23
REMARK                            x       y       z     vdW  Elec       q    Type
REMARK                         _______ _______ _______ _____ _____    ______ ____
ROOT
ATOM      1  C   UNL     1       2.402   6.353  19.590  0.00  0.00    +0.000 A 
ATOM      2  N   UNL     1       3.201   5.672  18.747  0.00  0.00    +0.000 NA
ATOM      3  C   UNL     1       3.684   6.346  17.689  0.00  0.00    +0.000 A 
ATOM      4  N   UNL     1       3.395   7.634  17.422  0.00  0.00    +0.000 NA
ATOM      5  C   UNL     1       2.590   8.280  18.289  0.00  0.00    +0.000 A 
ATOM      6  C   UNL     1       2.087   7.689  19.431  0.00  0.00    +0.000 A 
ATOM      7  C   UNL     1       1.224   8.460  20.383  0.00  0.00    +0.000 C 
ATOM      8  O   UNL     1       1.151   9.863  20.103  0.00  0.00    +0.000 OA
ATOM      9  C   UNL     1       1.004  10.186  18.712  0.00  0.00    +0.000 C 
ATOM     10  C   UNL     1      -0.292   9.599  18.130  0.00  0.00    +0.000 C 
ATOM     11  C   UNL     1       0.916  11.716  18.636  0.00  0.00    +0.000 C 
ATOM     12  C   UNL     1       2.265   9.713  17.969  0.00  0.00    +0.000 C 
ENDROOT
BRANCH   3  13
ATOM     13  C   UNL     1       4.578   5.637  16.751  0.00  0.00    +0.000 A 
ATOM     14  C   UNL     1       4.808   4.251  16.852  0.00  0.00    +0.000 A 
ATOM     15  C   UNL     1       5.652   3.583  15.959  0.00  0.00    +0.000 A 
ATOM     16  C   UNL     1       6.291   4.286  14.941  0.00  0.00    +0.000 A 
ATOM     17  C   UNL     1       6.087   5.657  14.816  0.00  0.00    +0.000 A 
ATOM     18  C   UNL     1       5.241   6.321  15.710  0.00  0.00    +0.000 A 
ENDBRANCH   3  13
BRANCH   1  19
ATOM     19  S   UNL     1       1.690   5.391  20.920  0.00  0.00    +0.000 S 
BRANCH  19  20
ATOM     20  C   UNL     1       0.998   3.990  19.972  0.00  0.00    +0.000 C 
BRANCH  20  21
ATOM     21  C   UNL     1       1.552   2.643  20.465  0.00  0.00    +0.000 C 
BRANCH  21  23
ATOM     22  C   UNL     1       2.037   2.319  18.135  0.00  0.00    +0.000 C 
ATOM     23  N   UNL     1       2.426   1.947  19.500  0.00  0.00    +0.000 NA
ATOM     24  C   UNL     1       3.842   2.250  19.709  0.00  0.00    +0.000 C 
ENDBRANCH  21  23
ENDBRANCH  20  21
ENDBRANCH  19  20
ENDBRANCH   1  19
TORSDOF 5
ENDMDL
MODEL 2
REMARK VINA RESULT:      -6.9      0.435      1.248
REMARK  Name = 
REMARK  9 active torsions:
REMARK  status: ('A' for Active; 'I' for Inactive)
REMARK    1  A    between atoms: C_1  and  N_2
REMARK    2  A    between atoms: N_2  and  C_3
REMARK    3  A    between atoms: N_2  and  C_4
REMARK    4  A    between atoms: C_4  and  C_5
REMARK    5  A    between atoms: C_5  and  S_6
REMARK    6  A    between atoms: S_6  and  C_7
REMARK    7  A    between atoms: C_9  and  C_10
REMARK    8  A    between atoms: C_21  and  C_22
REMARK    9  A    between atoms: C_21  and  C_23
REMARK                            x       y       z     vdW  Elec       q    Type
REMARK                         _______ _______ _______ _____ _____    ______ ____
ROOT
ATOM      1  C   UNL     1       2.455   6.263  19.527  0.00  0.00    +0.000 A 
ATOM      2  N   UNL     1       3.255   5.598  18.672  0.00  0.00    +0.000 NA
ATOM      3  C   UNL     1       3.744   6.293  17.631  0.00  0.00    +0.000 A 
ATOM      4  N   UNL     1       3.460   7.587  17.390  0.00  0.00    +0.000 NA
ATOM      5  C   UNL     1       2.653   8.217  18.267  0.00  0.00    +0.000 A 
ATOM      6  C   UNL     1       2.144   7.604  19.394  0.00  0.00    +0.000 A 
ATOM      7  C   UNL     1       1.279   8.357  20.358  0.00  0.00    +0.000 C 
ATOM      8  O   UNL     1       1.211   9.765  20.108  0.00  0.00    +0.000 OA
ATOM      9  C   UNL     1       1.071  10.118  18.724  0.00  0.00    +0.000 C 
ATOM     10  C   UNL     1      -0.225   9.548  18.124  0.00  0.00    +0.000 C 
ATOM     11  C   UNL     1       0.987  11.649  18.679  0.00  0.00    +0.000 C 
ATOM     12  C   UNL     1       2.333   9.657  17.975  0.00  0.00    +0.000 C 
ENDROOT
BRANCH   3  13
ATOM     13  C   UNL     1       4.639   5.601  16.681  0.00  0.00    +0.000 A 
ATOM     14  C   UNL     1       5.260   6.284  15.617  0.00  0.00    +0.000 A 
ATOM     15  C   UNL     1       6.110   5.626  14.722  0.00  0.00    +0.000 A 
ATOM     16  C   UNL     1       6.360   4.264  14.868  0.00  0.00    +0.000 A 
ATOM     17  C   UNL     1       5.759   3.559  15.907  0.00  0.00    +0.000 A 
ATOM     18  C   UNL     1       4.911   4.222  16.800  0.00  0.00    +0.000 A 
ENDBRANCH   3  13
BRANCH   1  19
ATOM     19  S   UNL     1       1.734   5.276  20.833  0.00  0.00    +0.000 S 
BRANCH  19  20
ATOM     20  C   UNL     1       1.089   3.871  19.859  0.00  0.00    +0.000 C 
BRANCH  20  21
ATOM     21  C   UNL     1       1.886   2.583  20.123  0.00  0.00    +0.000 C 
BRANCH  21  23
ATOM     22  C   UNL     1       4.249   2.325  20.468  0.00  0.00    +0.000 C 
ATOM     23  N   UNL     1       3.203   2.528  19.459  0.00  0.00    +0.000 NA
ATOM     24  C   UNL     1       3.278   1.469  18.452  0.00  0.00    +0.000 C 
ENDBRANCH  21  23
ENDBRANCH  20  21
ENDBRANCH  19  20
ENDBRANCH   1  19
TORSDOF 5
ENDMDL
MODEL 3
REMARK VINA RESULT:      -6.8      2.291      5.867
REMARK  Name = 
REMARK  9 active torsions:
REMARK  status: ('A' for Active; 'I' for Inactive)
REMARK    1  A    between atoms: C_1  and  N_2
REMARK    2  A    between atoms: N_2  and  C_3
REMARK    3  A    between atoms: N_2  and  C_4
REMARK    4  A    between atoms: C_4  and  C_5
REMARK    5  A    between atoms: C_5  and  S_6
REMARK    6  A    between atoms: S_6  and  C_7
REMARK    7  A    between atoms: C_9  and  C_10
REMARK    8  A    between atoms: C_21  and  C_22
REMARK    9  A    between atoms: C_21  and  C_23
REMARK                            x       y       z     vdW  Elec       q    Type
REMARK                         _______ _______ _______ _____ _____    ______ ____
ROOT
ATOM      1  C   UNL     1       4.156   4.434  18.380  0.00  0.00    +0.000 A 
ATOM      2  N   UNL     1       3.412   5.444  18.872  0.00  0.00    +0.000 NA
ATOM      3  C   UNL     1       3.315   6.551  18.117  0.00  0.00    +0.000 A 
ATOM      4  N   UNL     1       3.933   6.710  16.931  0.00  0.00    +0.000 NA
ATOM      5  C   UNL     1       4.671   5.678  16.474  0.00  0.00    +0.000 A 
ATOM      6  C   UNL     1       4.788   4.481  17.152  0.00  0.00    +0.000 A 
ATOM      7  C   UNL     1       5.592   3.350  16.586  0.00  0.00    +0.000 C 
ATOM      8  O   UNL     1       6.033   3.560  15.239  0.00  0.00    +0.000 OA
ATOM      9  C   UNL     1       6.525   4.882  14.973  0.00  0.00    +0.000 C 
ATOM     10  C   UNL     1       7.747   5.215  15.844  0.00  0.00    +0.000 C 
ATOM     11  C   UNL     1       6.966   4.885  13.503  0.00  0.00    +0.000 C 
ATOM     12  C   UNL     1       5.366   5.877  15.156  0.00  0.00    +0.000 C 
ENDROOT
BRANCH   3  13
ATOM     13  C   UNL     1       2.493   7.673  18.615  0.00  0.00    +0.000 A 
ATOM     14  C   UNL     1       2.171   8.775  17.799  0.00  0.00    +0.000 A 
ATOM     15  C   UNL     1       1.390   9.833  18.274  0.00  0.00    +0.000 A 
ATOM     16  C   UNL     1       0.910   9.817  19.581  0.00  0.00    +0.000 A 
ATOM     17  C   UNL     1       1.213   8.744  20.414  0.00  0.00    +0.000 A 
ATOM     18  C   UNL     1       1.994   7.687  19.935  0.00  0.00    +0.000 A 
ENDBRANCH   3  13
BRANCH   1  19
ATOM     19  S   UNL     1       4.353   3.024  19.464  0.00  0.00    +0.000 S 
BRANCH  19  20
ATOM     20  C   UNL     1       3.064   1.917  18.791  0.00  0.00    +0.000 C 
BRANCH  20  21
ATOM     21  C   UNL     1       1.698   2.170  19.449  0.00  0.00    +0.000 C 
BRANCH  21  23
ATOM     22  C   UNL     1       0.757   4.176  20.376  0.00  0.00    +0.000 C 
ATOM     23  N   UNL     1       1.730   3.100  20.595  0.00  0.00    +0.000 NA
ATOM     24  C   UNL     1       1.448   2.431  21.866  0.00  0.00    +0.000 C 
ENDBRANCH  21  23
ENDBRANCH  20  21
ENDBRANCH  19  20
ENDBRANCH   1  19
TORSDOF 5
ENDMDL
MODEL 4
REMARK VINA RESULT:      -6.8      2.315      5.879
REMARK  Name = 
REMARK  9 active torsions:
REMARK  status: ('A' for Active; 'I' for Inactive)
REMARK    1  A    between atoms: C_1  and  N_2
REMARK    2  A    between atoms: N_2  and  C_3
REMARK    3  A    between atoms: N_2  and  C_4
REMARK    4  A    between atoms: C_4  and  C_5
REMARK    5  A    between atoms: C_5  and  S_6
REMARK    6  A    between atoms: S_6  and  C_7
REMARK    7  A    between atoms: C_9  and  C_10
REMARK    8  A    between atoms: C_21  and  C_22
REMARK    9  A    between atoms: C_21  and  C_23
REMARK                            x       y       z     vdW  Elec       q    Type
REMARK                         _______ _______ _______ _____ _____    ______ ____
ROOT
ATOM      1  C   UNL     1       2.959   4.486  17.648  0.00  0.00    +0.000 A 
ATOM      2  N   UNL     1       2.310   5.511  18.233  0.00  0.00    +0.000 NA
ATOM      3  C   UNL     1       2.829   6.739  18.059  0.00  0.00    +0.000 A 
ATOM      4  N   UNL     1       3.955   6.988  17.366  0.00  0.00    +0.000 NA
ATOM      5  C   UNL     1       4.578   5.936  16.797  0.00  0.00    +0.000 A 
ATOM      6  C   UNL     1       4.095   4.645  16.876  0.00  0.00    +0.000 A 
ATOM      7  C   UNL     1       4.805   3.513  16.197  0.00  0.00    +0.000 C 
ATOM      8  O   UNL     1       5.869   3.923  15.331  0.00  0.00    +0.000 OA
ATOM      9  C   UNL     1       6.702   4.965  15.862  0.00  0.00    +0.000 C 
ATOM     10  C   UNL     1       7.398   4.524  17.160  0.00  0.00    +0.000 C 
ATOM     11  C   UNL     1       7.781   5.231  14.805  0.00  0.00    +0.000 C 
ATOM     12  C   UNL     1       5.844   6.229  16.040  0.00  0.00    +0.000 C 
ENDROOT
BRANCH   3  13
ATOM     13  C   UNL     1       2.134   7.890  18.671  0.00  0.00    +0.000 A 
ATOM     14  C   UNL     1       1.776   9.025  17.918  0.00  0.00    +0.000 A 
ATOM     15  C   UNL     1       1.116  10.111  18.501  0.00  0.00    +0.000 A 
ATOM     16  C   UNL     1       0.795  10.090  19.856  0.00  0.00    +0.000 A 
ATOM     17  C   UNL     1       1.138   8.984  20.629  0.00  0.00    +0.000 A 
ATOM     18  C   UNL     1       1.798   7.900  20.042  0.00  0.00    +0.000 A 
ENDBRANCH   3  13
BRANCH   1  19
ATOM     19  S   UNL     1       2.303   2.859  17.997  0.00  0.00    +0.000 S 
BRANCH  19  20
ATOM     20  C   UNL     1       3.634   2.195  19.060  0.00  0.00    +0.000 C 
BRANCH  20  21
ATOM     21  C   UNL     1       3.478   2.655  20.519  0.00  0.00    +0.000 C 
BRANCH  21  23
ATOM     22  C   UNL     1       1.475   2.373  21.813  0.00  0.00    +0.000 C 
ATOM     23  N   UNL     1       2.160   3.235  20.844  0.00  0.00    +0.000 NA
ATOM     24  C   UNL     1       2.263   4.593  21.378  0.00  0.00    +0.000 C 
ENDBRANCH  21  23
ENDBRANCH  20  21
ENDBRANCH  19  20
ENDBRANCH   1  19
TORSDOF 5
ENDMDL
MODEL 5
REMARK VINA RESULT:      -6.7      3.821      6.434
REMARK  Name = 
REMARK  9 active torsions:
REMARK  status: ('A' for Active; 'I' for Inactive)
REMARK    1  A    between atoms: C_1  and  N_2
REMARK    2  A    between atoms: N_2  and  C_3
REMARK    3  A    between atoms: N_2  and  C_4
REMARK    4  A    between atoms: C_4  and  C_5
REMARK    5  A    between atoms: C_5  and  S_6
REMARK    6  A    between atoms: S_6  and  C_7
REMARK    7  A    between atoms: C_9  and  C_10
REMARK    8  A    between atoms: C_21  and  C_22
REMARK    9  A    between atoms: C_21  and  C_23
REMARK                            x       y       z     vdW  Elec       q    Type
REMARK                         _______ _______ _______ _____ _____    ______ ____
ROOT
ATOM      1  C   UNL     1       6.391   5.676  17.574  0.00  0.00    +0.000 A 
ATOM      2  N   UNL     1       6.760   5.425  16.303  0.00  0.00    +0.000 NA
ATOM      3  C   UNL     1       5.914   4.694  15.557  0.00  0.00    +0.000 A 
ATOM      4  N   UNL     1       4.753   4.189  16.014  0.00  0.00    +0.000 NA
ATOM      5  C   UNL     1       4.420   4.460  17.292  0.00  0.00    +0.000 A 
ATOM      6  C   UNL     1       5.197   5.244  18.121  0.00  0.00    +0.000 A 
ATOM      7  C   UNL     1       4.767   5.546  19.524  0.00  0.00    +0.000 C 
ATOM      8  O   UNL     1       3.433   5.127  19.831  0.00  0.00    +0.000 OA
ATOM      9  C   UNL     1       3.086   3.827  19.328  0.00  0.00    +0.000 C 
ATOM     10  C   UNL     1       3.989   2.734  19.921  0.00  0.00    +0.000 C 
ATOM     11  C   UNL     1       1.646   3.562  19.787  0.00  0.00    +0.000 C 
ATOM     12  C   UNL     1       3.128   3.875  17.792  0.00  0.00    +0.000 C 
ENDROOT
BRANCH   3  13
ATOM     13  C   UNL     1       6.276   4.413  14.153  0.00  0.00    +0.000 A 
ATOM     14  C   UNL     1       7.367   5.050  13.528  0.00  0.00    +0.000 A 
ATOM     15  C   UNL     1       7.708   4.779  12.199  0.00  0.00    +0.000 A 
ATOM     16  C   UNL     1       6.967   3.862  11.459  0.00  0.00    +0.000 A 
ATOM     17  C   UNL     1       5.881   3.218  12.046  0.00  0.00    +0.000 A 
ATOM     18  C   UNL     1       5.543   3.492  13.376  0.00  0.00    +0.000 A 
ENDBRANCH   3  13
BRANCH   1  19
ATOM     19  S   UNL     1       7.593   6.554  18.565  0.00  0.00    +0.000 S 
BRANCH  19  20
ATOM     20  C   UNL     1       8.031   7.908  17.420  0.00  0.00    +0.000 C 
BRANCH  20  21
ATOM     21  C   UNL     1       7.762   9.289  18.042  0.00  0.00    +0.000 C 
BRANCH  21  23
ATOM     22  C   UNL     1       8.731  11.468  17.762  0.00  0.00    +0.000 C 
ATOM     23  N   UNL     1       8.969  10.110  18.262  0.00  0.00    +0.000 NA
ATOM     24  C   UNL     1       9.359  10.164  19.671  0.00  0.00    +0.000 C 
ENDBRANCH  21  23
ENDBRANCH  20  21
ENDBRANCH  19  20
ENDBRANCH   1  19
TORSDOF 5
ENDMDL
MODEL 6
REMARK VINA RESULT:      -6.7      2.613      6.338
REMARK  Name = 
REMARK  9 active torsions:
REMARK  status: ('A' for Active; 'I' for Inactive)
REMARK    1  A    between atoms: C_1  and  N_2
REMARK    2  A    between atoms: N_2  and  C_3
REMARK    3  A    between atoms: N_2  and  C_4
REMARK    4  A    between atoms: C_4  and  C_5
REMARK    5  A    between atoms: C_5  and  S_6
REMARK    6  A    between atoms: S_6  and  C_7
REMARK    7  A    between atoms: C_9  and  C_10
REMARK    8  A    between atoms: C_21  and  C_22
REMARK    9  A    between atoms: C_21  and  C_23
REMARK                            x       y       z     vdW  Elec       q    Type
REMARK                         _______ _______ _______ _____ _____    ______ ____
ROOT
ATOM      1  C   UNL     1       3.605   6.603  17.960  0.00  0.00    +0.000 A 
ATOM      2  N   UNL     1       3.081   7.843  17.938  0.00  0.00    +0.000 NA
ATOM      3  C   UNL     1       2.154   8.128  18.868  0.00  0.00    +0.000 A 
ATOM      4  N   UNL     1       1.714   7.246  19.786  0.00  0.00    +0.000 NA
ATOM      5  C   UNL     1       2.261   6.014  19.774  0.00  0.00    +0.000 A 
ATOM      6  C   UNL     1       3.256   5.643  18.892  0.00  0.00    +0.000 A 
ATOM      7  C   UNL     1       3.858   4.272  18.940  0.00  0.00    +0.000 C 
ATOM      8  O   UNL     1       3.458   3.496  20.075  0.00  0.00    +0.000 OA
ATOM      9  C   UNL     1       2.061   3.586  20.396  0.00  0.00    +0.000 C 
ATOM     10  C   UNL     1       1.183   3.077  19.241  0.00  0.00    +0.000 C 
ATOM     11  C   UNL     1       1.840   2.669  21.607  0.00  0.00    +0.000 C 
ATOM     12  C   UNL     1       1.747   5.037  20.795  0.00  0.00    +0.000 C 
ENDROOT
BRANCH   3  13
ATOM     13  C   UNL     1       1.569   9.484  18.886  0.00  0.00    +0.000 A 
ATOM     14  C   UNL     1       0.370   9.764  19.571  0.00  0.00    +0.000 A 
ATOM     15  C   UNL     1      -0.179  11.050  19.588  0.00  0.00    +0.000 A 
ATOM     16  C   UNL     1       0.458  12.091  18.919  0.00  0.00    +0.000 A 
ATOM     17  C   UNL     1       1.642  11.847  18.230  0.00  0.00    +0.000 A 
ATOM     18  C   UNL     1       2.188  10.560  18.216  0.00  0.00    +0.000 A 
ENDBRANCH   3  13
BRANCH   1  19
ATOM     19  S   UNL     1       4.750   6.227  16.637  0.00  0.00    +0.000 S 
BRANCH  19  20
ATOM     20  C   UNL     1       6.050   7.467  16.973  0.00  0.00    +0.000 C 
BRANCH  20  21
ATOM     21  C   UNL     1       7.342   6.810  17.489  0.00  0.00    +0.000 C 
BRANCH  21  23
ATOM     22  C   UNL     1       7.723   4.439  17.528  0.00  0.00    +0.000 C 
ATOM     23  N   UNL     1       7.134   5.567  18.258  0.00  0.00    +0.000 NA
ATOM     24  C   UNL     1       7.710   5.639  19.601  0.00  0.00    +0.000 C 
ENDBRANCH  21  23
ENDBRANCH  20  21
ENDBRANCH  19  20
ENDBRANCH   1  19
TORSDOF 5
ENDMDL
MODEL 7
REMARK VINA RESULT:      -6.7      2.321      5.747
REMARK  Name = 
REMARK  9 active torsions:
REMARK  status: ('A' for Active; 'I' for Inactive)
REMARK    1  A    between atoms: C_1  and  N_2
REMARK    2  A    between atoms: N_2  and  C_3
REMARK    3  A    between atoms: N_2  and  C_4
REMARK    4  A    between atoms: C_4  and  C_5
REMARK    5  A    between atoms: C_5  and  S_6
REMARK    6  A    between atoms: S_6  and  C_7
REMARK    7  A    between atoms: C_9  and  C_10
REMARK    8  A    between atoms: C_21  and  C_22
REMARK    9  A    between atoms: C_21  and  C_23
REMARK                            x       y       z     vdW  Elec       q    Type
REMARK                         _______ _______ _______ _____ _____    ______ ____
ROOT
ATOM      1  C   UNL     1       2.883   4.507  17.678  0.00  0.00    +0.000 A 
ATOM      2  N   UNL     1       2.239   5.522  18.288  0.00  0.00    +0.000 NA
ATOM      3  C   UNL     1       2.774   6.748  18.156  0.00  0.00    +0.000 A 
ATOM      4  N   UNL     1       3.910   7.004  17.481  0.00  0.00    +0.000 NA
ATOM      5  C   UNL     1       4.526   5.962  16.887  0.00  0.00    +0.000 A 
ATOM      6  C   UNL     1       4.027   4.675  16.921  0.00  0.00    +0.000 A 
ATOM      7  C   UNL     1       4.730   3.556  16.216  0.00  0.00    +0.000 C 
ATOM      8  O   UNL     1       5.808   3.980  15.372  0.00  0.00    +0.000 OA
ATOM      9  C   UNL     1       6.647   4.995  15.943  0.00  0.00    +0.000 C 
ATOM     10  C   UNL     1       7.325   4.507  17.233  0.00  0.00    +0.000 C 
ATOM     11  C   UNL     1       7.740   5.280  14.904  0.00  0.00    +0.000 C 
ATOM     12  C   UNL     1       5.803   6.263  16.150  0.00  0.00    +0.000 C 
ENDROOT
BRANCH   3  13
ATOM     13  C   UNL     1       2.087   7.888  18.796  0.00  0.00    +0.000 A 
ATOM     14  C   UNL     1       1.771   7.885  20.169  0.00  0.00    +0.000 A 
ATOM     15  C   UNL     1       1.122   8.968  20.772  0.00  0.00    +0.000 A 
ATOM     16  C   UNL     1       0.772  10.083  20.015  0.00  0.00    +0.000 A 
ATOM     17  C   UNL     1       1.067  10.115  18.655  0.00  0.00    +0.000 A 
ATOM     18  C   UNL     1       1.716   9.031  18.057  0.00  0.00    +0.000 A 
ENDBRANCH   3  13
BRANCH   1  19
ATOM     19  S   UNL     1       2.204   2.878  17.971  0.00  0.00    +0.000 S 
BRANCH  19  20
ATOM     20  C   UNL     1       1.014   3.259  19.305  0.00  0.00    +0.000 C 
BRANCH  20  21
ATOM     21  C   UNL     1       1.272   2.404  20.557  0.00  0.00    +0.000 C 
BRANCH  21  23
ATOM     22  C   UNL     1       3.622   2.425  21.055  0.00  0.00    +0.000 C 
ATOM     23  N   UNL     1       2.309   2.938  21.463  0.00  0.00    +0.000 NA
ATOM     24  C   UNL     1       2.335   4.401  21.482  0.00  0.00    +0.000 C 
ENDBRANCH  21  23
ENDBRANCH  20  21
ENDBRANCH  19  20
ENDBRANCH   1  19
TORSDOF 5
ENDMDL
MODEL 8
REMARK VINA RESULT:      -6.7      2.307      5.677
REMARK  Name = 
REMARK  9 active torsions:
REMARK  status: ('A' for Active; 'I' for Inactive)
REMARK    1  A    between atoms: C_1  and  N_2
REMARK    2  A    between atoms: N_2  and  C_3
REMARK    3  A    between atoms: N_2  and  C_4
REMARK    4  A    between atoms: C_4  and  C_5
REMARK    5  A    between atoms: C_5  and  S_6
REMARK    6  A    between atoms: S_6  and  C_7
REMARK    7  A    between atoms: C_9  and  C_10
REMARK    8  A    between atoms: C_21  and  C_22
REMARK    9  A    between atoms: C_21  and  C_23
REMARK                            x       y       z     vdW  Elec       q    Type
REMARK                         _______ _______ _______ _____ _____    ______ ____
ROOT
ATOM      1  C   UNL     1       2.864   5.169  20.297  0.00  0.00    +0.000 A 
ATOM      2  N   UNL     1       2.063   6.251  20.271  0.00  0.00    +0.000 NA
ATOM      3  C   UNL     1       2.375   7.218  19.391  0.00  0.00    +0.000 A 
ATOM      4  N   UNL     1       3.441   7.171  18.569  0.00  0.00    +0.000 NA
ATOM      5  C   UNL     1       4.220   6.073  18.627  0.00  0.00    +0.000 A 
ATOM      6  C   UNL     1       3.952   5.005  19.460  0.00  0.00    +0.000 A 
ATOM      7  C   UNL     1       4.829   3.790  19.464  0.00  0.00    +0.000 C 
ATOM      8  O   UNL     1       5.805   3.769  18.416  0.00  0.00    +0.000 OA
ATOM      9  C   UNL     1       6.464   5.024  18.190  0.00  0.00    +0.000 C 
ATOM     10  C   UNL     1       7.234   5.490  19.436  0.00  0.00    +0.000 C 
ATOM     11  C   UNL     1       7.477   4.779  17.063  0.00  0.00    +0.000 C 
ATOM     12  C   UNL     1       5.415   6.044  17.715  0.00  0.00    +0.000 C 
ENDROOT
BRANCH   3  13
ATOM     13  C   UNL     1       1.509   8.412  19.321  0.00  0.00    +0.000 A 
ATOM     14  C   UNL     1       1.346   9.140  18.126  0.00  0.00    +0.000 A 
ATOM     15  C   UNL     1       0.523  10.269  18.064  0.00  0.00    +0.000 A 
ATOM     16  C   UNL     1      -0.160  10.700  19.198  0.00  0.00    +0.000 A 
ATOM     17  C   UNL     1      -0.018  10.005  20.395  0.00  0.00    +0.000 A 
ATOM     18  C   UNL     1       0.806   8.876  20.453  0.00  0.00    +0.000 A 
ENDBRANCH   3  13
BRANCH   1  19
ATOM     19  S   UNL     1       2.482   3.959  21.558  0.00  0.00    +0.000 S 
BRANCH  19  20
ATOM     20  C   UNL     1       1.821   2.607  20.520  0.00  0.00    +0.000 C 
BRANCH  20  21
ATOM     21  C   UNL     1       0.762   3.119  19.529  0.00  0.00    +0.000 C 
BRANCH  21  23
ATOM     22  C   UNL     1       1.262   4.156  17.421  0.00  0.00    +0.000 C 
ATOM     23  N   UNL     1       1.081   2.872  18.108  0.00  0.00    +0.000 NA
ATOM     24  C   UNL     1       2.278   2.048  17.938  0.00  0.00    +0.000 C 
ENDBRANCH  21  23
ENDBRANCH  20  21
ENDBRANCH  19  20
ENDBRANCH   1  19
TORSDOF 5
ENDMDL
MODEL 9
REMARK VINA RESULT:      -6.7      2.511      6.626
REMARK  Name = 
REMARK  9 active torsions:
REMARK  status: ('A' for Active; 'I' for Inactive)
REMARK    1  A    between atoms: C_1  and  N_2
REMARK    2  A    between atoms: N_2  and  C_3
REMARK    3  A    between atoms: N_2  and  C_4
REMARK    4  A    between atoms: C_4  and  C_5
REMARK    5  A    between atoms: C_5  and  S_6
REMARK    6  A    between atoms: S_6  and  C_7
REMARK    7  A    between atoms: C_9  and  C_10
REMARK    8  A    between atoms: C_21  and  C_22
REMARK    9  A    between atoms: C_21  and  C_23
REMARK                            x       y       z     vdW  Elec       q    Type
REMARK                         _______ _______ _______ _____ _____    ______ ____
ROOT
ATOM      1  C   UNL     1       3.347   6.708  18.231  0.00  0.00    +0.000 A 
ATOM      2  N   UNL     1       2.758   7.911  18.377  0.00  0.00    +0.000 NA
ATOM      3  C   UNL     1       1.909   8.051  19.409  0.00  0.00    +0.000 A 
ATOM      4  N   UNL     1       1.604   7.063  20.271  0.00  0.00    +0.000 NA
ATOM      5  C   UNL     1       2.213   5.873  20.091  0.00  0.00    +0.000 A 
ATOM      6  C   UNL     1       3.139   5.647  19.092  0.00  0.00    +0.000 A 
ATOM      7  C   UNL     1       3.814   4.317  18.953  0.00  0.00    +0.000 C 
ATOM      8  O   UNL     1       3.563   3.416  20.038  0.00  0.00    +0.000 OA
ATOM      9  C   UNL     1       2.200   3.390  20.488  0.00  0.00    +0.000 C 
ATOM     10  C   UNL     1       1.246   2.937  19.371  0.00  0.00    +0.000 C 
ATOM     11  C   UNL     1       2.143   2.354  21.618  0.00  0.00    +0.000 C 
ATOM     12  C   UNL     1       1.849   4.776  21.053  0.00  0.00    +0.000 C 
ENDROOT
BRANCH   3  13
ATOM     13  C   UNL     1       1.257   9.361  19.611  0.00  0.00    +0.000 A 
ATOM     14  C   UNL     1       1.268  10.354  18.613  0.00  0.00    +0.000 A 
ATOM     15  C   UNL     1       0.647  11.593  18.807  0.00  0.00    +0.000 A 
ATOM     16  C   UNL     1      -0.002  11.869  20.007  0.00  0.00    +0.000 A 
ATOM     17  C   UNL     1      -0.028  10.909  21.015  0.00  0.00    +0.000 A 
ATOM     18  C   UNL     1       0.594   9.673  20.816  0.00  0.00    +0.000 A 
ENDBRANCH   3  13
BRANCH   1  19
ATOM     19  S   UNL     1       4.381   6.528  16.782  0.00  0.00    +0.000 S 
BRANCH  19  20
ATOM     20  C   UNL     1       6.031   6.778  17.528  0.00  0.00    +0.000 C 
BRANCH  20  21
ATOM     21  C   UNL     1       7.159   6.477  16.527  0.00  0.00    +0.000 C 
BRANCH  21  23
ATOM     22  C   UNL     1       7.597   4.568  17.918  0.00  0.00    +0.000 C 
ATOM     23  N   UNL     1       7.640   5.081  16.544  0.00  0.00    +0.000 NA
ATOM     24  C   UNL     1       6.856   4.210  15.668  0.00  0.00    +0.000 C 
ENDBRANCH  21  23
ENDBRANCH  20  21
ENDBRANCH  19  20
ENDBRANCH   1  19
TORSDOF 5
ENDMDL
