MODEL 1
REMARK VINA RESULT:      -8.5      0.000      0.000
REMARK  Name = 
REMARK  10 active torsions:
REMARK  status: ('A' for Active; 'I' for Inactive)
REMARK    1  A    between atoms: C_1  and  C_2
REMARK    2  A    between atoms: C_5  and  N_6
REMARK    3  A    between atoms: C_7  and  C_9
REMARK    4  A    between atoms: C_12  and  C_13
REMARK    5  A    between atoms: C_13  and  N_14
REMARK    6  A    between atoms: N_14  and  S_15
REMARK    7  A    between atoms: S_15  and  C_18
REMARK    8  A    between atoms: C_24  and  C_25
REMARK    9  A    between atoms: C_24  and  C_26
REMARK   10  A    between atoms: N_29  and  C_30
REMARK                            x       y       z     vdW  Elec       q    Type
REMARK                         _______ _______ _______ _____ _____    ______ ____
ROOT
ATOM      1  C   UNL     1       1.445   6.402  20.028  0.00  0.00    +0.000 C 
ENDROOT
BRANCH   1   5
ATOM      2  C   UNL     1      -0.042   9.855  19.739  0.00  0.00    +0.000 C 
ATOM      3  C   UNL     1       0.569   9.084  18.559  0.00  0.00    +0.000 C 
ATOM      4  C   UNL     1       1.999   8.625  18.844  0.00  0.00    +0.000 C 
ATOM      5  C   UNL     1       2.115   7.785  20.127  0.00  0.00    +0.000 C 
ATOM      6  C   UNL     1       1.522   8.565  21.312  0.00  0.00    +0.000 C 
ATOM      7  C   UNL     1       0.090   9.049  21.046  0.00  0.00    +0.000 C 
BRANCH   2   9
ATOM      8  N   UNL     1       0.745  11.932  18.703  0.00  0.00    +0.000 N 
ATOM      9  C   UNL     1       0.574  11.255  19.896  0.00  0.00    +0.000 C 
ATOM     10  O   UNL     1       0.836  11.710  21.005  0.00  0.00    +0.000 OA
ATOM     11  H   UNL     1       0.239  11.594  17.893  0.00  0.00    +0.000 HD
BRANCH   8  16
ATOM     12  C   UNL     1       3.417  16.981  18.247  0.00  0.00    +0.000 C 
ATOM     13  C   UNL     1       2.719  15.657  18.334  0.00  0.00    +0.000 A 
ATOM     14  C   UNL     1       3.411  14.474  18.074  0.00  0.00    +0.000 A 
ATOM     15  C   UNL     1       2.769  13.241  18.185  0.00  0.00    +0.000 A 
ATOM     16  C   UNL     1       1.425  13.161  18.559  0.00  0.00    +0.000 A 
ATOM     17  C   UNL     1       0.718  14.347  18.780  0.00  0.00    +0.000 A 
ATOM     18  C   UNL     1       1.364  15.586  18.680  0.00  0.00    +0.000 A 
ENDBRANCH   8  16
ENDBRANCH   2   9
ENDBRANCH   1   5
BRANCH   1  19
ATOM     19  N   UNL     1       2.135   5.417  20.863  0.00  0.00    +0.000 NA
ATOM     20  H   UNL     1       1.988   5.459  21.874  0.00  0.00    +0.000 HD
BRANCH  19  21
ATOM     21  S   UNL     1       2.163   3.822  20.307  0.00  0.00    +0.000 S 
ATOM     22  O   UNL     1       2.894   3.062  21.290  0.00  0.00    +0.000 OA
ATOM     23  O   UNL     1       0.823   3.463  19.896  0.00  0.00    +0.000 OA
BRANCH  21  24
ATOM     24  C   UNL     1       3.190   3.943  18.863  0.00  0.00    +0.000 A 
ATOM     25  C   UNL     1       2.971   3.129  17.735  0.00  0.00    +0.000 A 
ATOM     26  C   UNL     1       3.821   3.217  16.616  0.00  0.00    +0.000 A 
ATOM     27  C   UNL     1       4.869   4.121  16.662  0.00  0.00    +0.000 A 
ATOM     28  C   UNL     1       5.070   4.924  17.790  0.00  0.00    +0.000 A 
ATOM     29  C   UNL     1       4.247   4.849  18.901  0.00  0.00    +0.000 A 
ATOM     30  C   UNL     1       6.276   5.805  17.592  0.00  0.00    +0.000 C 
ATOM     31  C   UNL     1       5.879   7.279  17.613  0.00  0.00    +0.000 C 
ATOM     32  C   UNL     1       7.370   5.460  18.599  0.00  0.00    +0.000 C 
ATOM     33  C   UNL     1       6.734   5.409  16.178  0.00  0.00    +0.000 C 
ATOM     34  O   UNL     1       7.688   5.878  15.574  0.00  0.00    +0.000 OA
ATOM     35  N   UNL     1       5.859   4.417  15.717  0.00  0.00    +0.000 N 
ATOM     36  C   UNL     1       6.043   3.810  14.429  0.00  0.00    +0.000 C 
ENDBRANCH  21  24
ENDBRANCH  19  21
ENDBRANCH   1  19
TORSDOF 6
ENDMDL
MODEL 2
REMARK VINA RESULT:      -8.3      1.065      1.071
REMARK  Name = 
REMARK  10 active torsions:
REMARK  status: ('A' for Active; 'I' for Inactive)
REMARK    1  A    between atoms: C_1  and  C_2
REMARK    2  A    between atoms: C_5  and  N_6
REMARK    3  A    between atoms: C_7  and  C_9
REMARK    4  A    between atoms: C_12  and  C_13
REMARK    5  A    between atoms: C_13  and  N_14
REMARK    6  A    between atoms: N_14  and  S_15
REMARK    7  A    between atoms: S_15  and  C_18
REMARK    8  A    between atoms: C_24  and  C_25
REMARK    9  A    between atoms: C_24  and  C_26
REMARK   10  A    between atoms: N_29  and  C_30
REMARK                            x       y       z     vdW  Elec       q    Type
REMARK                         _______ _______ _______ _____ _____    ______ ____
ROOT
ATOM      1  C   UNL     1       1.409   6.437  20.252  0.00  0.00    +0.000 C 
ENDROOT
BRANCH   1   5
ATOM      2  C   UNL     1       0.357   9.780  18.863  0.00  0.00    +0.000 C 
ATOM      3  C   UNL     1       1.088   8.705  18.045  0.00  0.00    +0.000 C 
ATOM      4  C   UNL     1       2.390   8.255  18.708  0.00  0.00    +0.000 C 
ATOM      5  C   UNL     1       2.187   7.761  20.152  0.00  0.00    +0.000 C 
ATOM      6  C   UNL     1       1.475   8.846  20.975  0.00  0.00    +0.000 C 
ATOM      7  C   UNL     1       0.170   9.325  20.322  0.00  0.00    +0.000 C 
BRANCH   2   9
ATOM      8  N   UNL     1       0.502  12.114  19.598  0.00  0.00    +0.000 N 
ATOM      9  C   UNL     1       1.074  11.139  18.802  0.00  0.00    +0.000 C 
ATOM     10  O   UNL     1       2.088  11.290  18.127  0.00  0.00    +0.000 OA
ATOM     11  H   UNL     1      -0.141  11.814  20.321  0.00  0.00    +0.000 HD
BRANCH   8  16
ATOM     12  C   UNL     1       1.847  17.685  19.612  0.00  0.00    +0.000 C 
ATOM     13  C   UNL     1       1.521  16.221  19.591  0.00  0.00    +0.000 A 
ATOM     14  C   UNL     1       2.285  15.316  20.329  0.00  0.00    +0.000 A 
ATOM     15  C   UNL     1       1.962  13.959  20.332  0.00  0.00    +0.000 A 
ATOM     16  C   UNL     1       0.873  13.476  19.603  0.00  0.00    +0.000 A 
ATOM     17  C   UNL     1       0.131  14.375  18.830  0.00  0.00    +0.000 A 
ATOM     18  C   UNL     1       0.446  15.740  18.834  0.00  0.00    +0.000 A 
ENDBRANCH   8  16
ENDBRANCH   2   9
ENDBRANCH   1   5
BRANCH   1  19
ATOM     19  N   UNL     1       2.188   5.415  20.953  0.00  0.00    +0.000 NA
ATOM     20  H   UNL     1       2.174   5.418  21.975  0.00  0.00    +0.000 HD
BRANCH  19  21
ATOM     21  S   UNL     1       2.125   3.842  20.337  0.00  0.00    +0.000 S 
ATOM     22  O   UNL     1       2.826   3.008  21.282  0.00  0.00    +0.000 OA
ATOM     23  O   UNL     1       0.763   3.570  19.932  0.00  0.00    +0.000 OA
BRANCH  21  24
ATOM     24  C   UNL     1       3.140   3.964  18.885  0.00  0.00    +0.000 A 
ATOM     25  C   UNL     1       2.894   3.170  17.748  0.00  0.00    +0.000 A 
ATOM     26  C   UNL     1       3.735   3.258  16.622  0.00  0.00    +0.000 A 
ATOM     27  C   UNL     1       4.800   4.141  16.670  0.00  0.00    +0.000 A 
ATOM     28  C   UNL     1       5.028   4.923  17.806  0.00  0.00    +0.000 A 
ATOM     29  C   UNL     1       4.215   4.849  18.925  0.00  0.00    +0.000 A 
ATOM     30  C   UNL     1       6.249   5.784  17.609  0.00  0.00    +0.000 C 
ATOM     31  C   UNL     1       5.881   7.264  17.655  0.00  0.00    +0.000 C 
ATOM     32  C   UNL     1       7.346   5.404  18.600  0.00  0.00    +0.000 C 
ATOM     33  C   UNL     1       6.685   5.399  16.185  0.00  0.00    +0.000 C 
ATOM     34  O   UNL     1       7.642   5.859  15.578  0.00  0.00    +0.000 OA
ATOM     35  N   UNL     1       5.787   4.431  15.719  0.00  0.00    +0.000 N 
ATOM     36  C   UNL     1       5.946   3.839  14.421  0.00  0.00    +0.000 C 
ENDBRANCH  21  24
ENDBRANCH  19  21
ENDBRANCH   1  19
TORSDOF 6
ENDMDL
MODEL 3
REMARK VINA RESULT:      -7.7      2.765      3.556
REMARK  Name = 
REMARK  10 active torsions:
REMARK  status: ('A' for Active; 'I' for Inactive)
REMARK    1  A    between atoms: C_1  and  C_2
REMARK    2  A    between atoms: C_5  and  N_6
REMARK    3  A    between atoms: C_7  and  C_9
REMARK    4  A    between atoms: C_12  and  C_13
REMARK    5  A    between atoms: C_13  and  N_14
REMARK    6  A    between atoms: N_14  and  S_15
REMARK    7  A    between atoms: S_15  and  C_18
REMARK    8  A    between atoms: C_24  and  C_25
REMARK    9  A    between atoms: C_24  and  C_26
REMARK   10  A    between atoms: N_29  and  C_30
REMARK                            x       y       z     vdW  Elec       q    Type
REMARK                         _______ _______ _______ _____ _____    ______ ____
ROOT
ATOM      1  C   UNL     1       3.077   5.542  20.355  0.00  0.00    +0.000 C 
ENDROOT
BRANCH   1   5
ATOM      2  C   UNL     1       2.001   8.946  19.143  0.00  0.00    +0.000 C 
ATOM      3  C   UNL     1       1.688   8.397  20.543  0.00  0.00    +0.000 C 
ATOM      4  C   UNL     1       0.983   7.042  20.492  0.00  0.00    +0.000 C 
ATOM      5  C   UNL     1       1.765   5.990  19.686  0.00  0.00    +0.000 C 
ATOM      6  C   UNL     1       2.059   6.532  18.277  0.00  0.00    +0.000 C 
ATOM      7  C   UNL     1       2.755   7.900  18.301  0.00  0.00    +0.000 C 
BRANCH   2   9
ATOM      8  N   UNL     1      -0.142  10.135  19.212  0.00  0.00    +0.000 N 
ATOM      9  C   UNL     1       0.735   9.424  18.413  0.00  0.00    +0.000 C 
ATOM     10  O   UNL     1       0.575   9.209  17.215  0.00  0.00    +0.000 OA
ATOM     11  H   UNL     1       0.210  10.499  20.089  0.00  0.00    +0.000 HD
BRANCH   8  16
ATOM     12  C   UNL     1      -5.346  11.968  17.665  0.00  0.00    +0.000 C 
ATOM     13  C   UNL     1      -3.998  11.464  18.085  0.00  0.00    +0.000 A 
ATOM     14  C   UNL     1      -3.468  10.306  17.516  0.00  0.00    +0.000 A 
ATOM     15  C   UNL     1      -2.201   9.854  17.885  0.00  0.00    +0.000 A 
ATOM     16  C   UNL     1      -1.436  10.547  18.828  0.00  0.00    +0.000 A 
ATOM     17  C   UNL     1      -1.983  11.685  19.430  0.00  0.00    +0.000 A 
ATOM     18  C   UNL     1      -3.250  12.147  19.052  0.00  0.00    +0.000 A 
ENDBRANCH   8  16
ENDBRANCH   2   9
ENDBRANCH   1   5
BRANCH   1  19
ATOM     19  N   UNL     1       2.868   4.359  21.192  0.00  0.00    +0.000 NA
ATOM     20  H   UNL     1       2.058   4.349  21.815  0.00  0.00    +0.000 HD
BRANCH  19  21
ATOM     21  S   UNL     1       3.110   2.852  20.466  0.00  0.00    +0.000 S 
ATOM     22  O   UNL     1       4.154   2.202  21.219  0.00  0.00    +0.000 OA
ATOM     23  O   UNL     1       1.816   2.239  20.257  0.00  0.00    +0.000 OA
BRANCH  21  24
ATOM     24  C   UNL     1       3.793   3.297  18.889  0.00  0.00    +0.000 A 
ATOM     25  C   UNL     1       3.202   2.869  17.685  0.00  0.00    +0.000 A 
ATOM     26  C   UNL     1       3.783   3.203  16.447  0.00  0.00    +0.000 A 
ATOM     27  C   UNL     1       4.944   3.959  16.453  0.00  0.00    +0.000 A 
ATOM     28  C   UNL     1       5.516   4.377  17.658  0.00  0.00    +0.000 A 
ATOM     29  C   UNL     1       4.961   4.056  18.886  0.00  0.00    +0.000 A 
ATOM     30  C   UNL     1       6.770   5.168  17.392  0.00  0.00    +0.000 C 
ATOM     31  C   UNL     1       6.625   6.601  17.898  0.00  0.00    +0.000 C 
ATOM     32  C   UNL     1       7.994   4.450  17.955  0.00  0.00    +0.000 C 
ATOM     33  C   UNL     1       6.832   5.161  15.855  0.00  0.00    +0.000 C 
ATOM     34  O   UNL     1       7.688   5.701  15.168  0.00  0.00    +0.000 OA
ATOM     35  N   UNL     1       5.731   4.428  15.394  0.00  0.00    +0.000 N 
ATOM     36  C   UNL     1       5.524   4.208  13.991  0.00  0.00    +0.000 C 
ENDBRANCH  21  24
ENDBRANCH  19  21
ENDBRANCH   1  19
TORSDOF 6
ENDMDL
MODEL 4
REMARK VINA RESULT:      -7.5      3.192      6.899
REMARK  Name = 
REMARK  10 active torsions:
REMARK  status: ('A' for Active; 'I' for Inactive)
REMARK    1  A    between atoms: C_1  and  C_2
REMARK    2  A    between atoms: C_5  and  N_6
REMARK    3  A    between atoms: C_7  and  C_9
REMARK    4  A    between atoms: C_12  and  C_13
REMARK    5  A    between atoms: C_13  and  N_14
REMARK    6  A    between atoms: N_14  and  S_15
REMARK    7  A    between atoms: S_15  and  C_18
REMARK    8  A    between atoms: C_24  and  C_25
REMARK    9  A    between atoms: C_24  and  C_26
REMARK   10  A    between atoms: N_29  and  C_30
REMARK                            x       y       z     vdW  Elec       q    Type
REMARK                         _______ _______ _______ _____ _____    ______ ____
ROOT
ATOM      1  C   UNL     1       4.815   4.042  17.480  0.00  0.00    +0.000 C 
ENDROOT
BRANCH   1   5
ATOM      2  C   UNL     1       7.349   6.789  16.984  0.00  0.00    +0.000 C 
ATOM      3  C   UNL     1       7.718   5.328  17.281  0.00  0.00    +0.000 C 
ATOM      4  C   UNL     1       7.037   4.803  18.545  0.00  0.00    +0.000 C 
ATOM      5  C   UNL     1       5.506   4.955  18.509  0.00  0.00    +0.000 C 
ATOM      6  C   UNL     1       5.139   6.422  18.232  0.00  0.00    +0.000 C 
ATOM      7  C   UNL     1       5.820   6.977  16.974  0.00  0.00    +0.000 C 
BRANCH   2   9
ATOM      8  N   UNL     1       7.896   9.095  17.611  0.00  0.00    +0.000 N 
ATOM      9  C   UNL     1       8.013   7.765  17.969  0.00  0.00    +0.000 C 
ATOM     10  O   UNL     1       8.552   7.359  18.995  0.00  0.00    +0.000 OA
ATOM     11  H   UNL     1       7.199   9.336  16.917  0.00  0.00    +0.000 HD
BRANCH   8  16
ATOM     12  C   UNL     1      10.398  13.553  20.200  0.00  0.00    +0.000 C 
ATOM     13  C   UNL     1       9.773  12.376  19.513  0.00  0.00    +0.000 A 
ATOM     14  C   UNL     1       9.912  11.092  20.042  0.00  0.00    +0.000 A 
ATOM     15  C   UNL     1       9.304  10.002  19.419  0.00  0.00    +0.000 A 
ATOM     16  C   UNL     1       8.544  10.169  18.259  0.00  0.00    +0.000 A 
ATOM     17  C   UNL     1       8.437  11.448  17.704  0.00  0.00    +0.000 A 
ATOM     18  C   UNL     1       9.037  12.546  18.333  0.00  0.00    +0.000 A 
ENDBRANCH   8  16
ENDBRANCH   2   9
ENDBRANCH   1   5
BRANCH   1  19
ATOM     19  N   UNL     1       3.504   4.571  17.098  0.00  0.00    +0.000 NA
ATOM     20  H   UNL     1       3.258   4.572  16.106  0.00  0.00    +0.000 HD
BRANCH  19  21
ATOM     21  S   UNL     1       2.188   4.132  18.063  0.00  0.00    +0.000 S 
ATOM     22  O   UNL     1       1.061   3.996  17.174  0.00  0.00    +0.000 OA
ATOM     23  O   UNL     1       2.609   3.064  18.943  0.00  0.00    +0.000 OA
BRANCH  21  24
ATOM     24  C   UNL     1       1.923   5.598  19.031  0.00  0.00    +0.000 A 
ATOM     25  C   UNL     1       1.857   5.548  20.436  0.00  0.00    +0.000 A 
ATOM     26  C   UNL     1       1.609   6.718  21.180  0.00  0.00    +0.000 A 
ATOM     27  C   UNL     1       1.435   7.906  20.489  0.00  0.00    +0.000 A 
ATOM     28  C   UNL     1       1.506   7.937  19.094  0.00  0.00    +0.000 A 
ATOM     29  C   UNL     1       1.746   6.797  18.344  0.00  0.00    +0.000 A 
ATOM     30  C   UNL     1       1.270   9.338  18.592  0.00  0.00    +0.000 C 
ATOM     31  C   UNL     1       2.501   9.866  17.860  0.00  0.00    +0.000 C 
ATOM     32  C   UNL     1      -0.005   9.406  17.755  0.00  0.00    +0.000 C 
ATOM     33  C   UNL     1       1.068  10.117  19.903  0.00  0.00    +0.000 C 
ATOM     34  O   UNL     1       0.855  11.317  19.998  0.00  0.00    +0.000 OA
ATOM     35  N   UNL     1       1.174   9.200  20.956  0.00  0.00    +0.000 N 
ATOM     36  C   UNL     1       0.998   9.617  22.319  0.00  0.00    +0.000 C 
ENDBRANCH  21  24
ENDBRANCH  19  21
ENDBRANCH   1  19
TORSDOF 6
ENDMDL
MODEL 5
REMARK VINA RESULT:      -7.5      2.364      2.869
REMARK  Name = 
REMARK  10 active torsions:
REMARK  status: ('A' for Active; 'I' for Inactive)
REMARK    1  A    between atoms: C_1  and  C_2
REMARK    2  A    between atoms: C_5  and  N_6
REMARK    3  A    between atoms: C_7  and  C_9
REMARK    4  A    between atoms: C_12  and  C_13
REMARK    5  A    between atoms: C_13  and  N_14
REMARK    6  A    between atoms: N_14  and  S_15
REMARK    7  A    between atoms: S_15  and  C_18
REMARK    8  A    between atoms: C_24  and  C_25
REMARK    9  A    between atoms: C_24  and  C_26
REMARK   10  A    between atoms: N_29  and  C_30
REMARK                            x       y       z     vdW  Elec       q    Type
REMARK                         _______ _______ _______ _____ _____    ______ ____
ROOT
ATOM      1  C   UNL     1       1.764   7.422  19.542  0.00  0.00    +0.000 C 
ENDROOT
BRANCH   1   5
ATOM      2  C   UNL     1      -0.824  10.164  19.593  0.00  0.00    +0.000 C 
ATOM      3  C   UNL     1       0.055   9.839  18.376  0.00  0.00    +0.000 C 
ATOM      4  C   UNL     1       1.546   9.855  18.715  0.00  0.00    +0.000 C 
ATOM      5  C   UNL     1       1.906   8.917  19.881  0.00  0.00    +0.000 C 
ATOM      6  C   UNL     1       1.040   9.258  21.105  0.00  0.00    +0.000 C 
ATOM      7  C   UNL     1      -0.461   9.260  20.787  0.00  0.00    +0.000 C 
BRANCH   2   9
ATOM      8  N   UNL     1      -1.349  11.947  21.192  0.00  0.00    +0.000 N 
ATOM      9  C   UNL     1      -0.740  11.648  19.986  0.00  0.00    +0.000 C 
ATOM     10  O   UNL     1      -0.139  12.456  19.285  0.00  0.00    +0.000 OA
ATOM     11  H   UNL     1      -1.556  11.178  21.818  0.00  0.00    +0.000 HD
BRANCH   8  16
ATOM     12  C   UNL     1      -1.988  17.233  23.309  0.00  0.00    +0.000 C 
ATOM     13  C   UNL     1      -1.852  15.844  22.763  0.00  0.00    +0.000 A 
ATOM     14  C   UNL     1      -2.479  15.489  21.568  0.00  0.00    +0.000 A 
ATOM     15  C   UNL     1      -2.327  14.205  21.045  0.00  0.00    +0.000 A 
ATOM     16  C   UNL     1      -1.545  13.250  21.699  0.00  0.00    +0.000 A 
ATOM     17  C   UNL     1      -0.949  13.590  22.918  0.00  0.00    +0.000 A 
ATOM     18  C   UNL     1      -1.091  14.882  23.439  0.00  0.00    +0.000 A 
ENDBRANCH   8  16
ENDBRANCH   2   9
ENDBRANCH   1   5
BRANCH   1  19
ATOM     19  N   UNL     1       2.022   6.586  20.716  0.00  0.00    +0.000 NA
ATOM     20  H   UNL     1       1.547   6.826  21.589  0.00  0.00    +0.000 HD
BRANCH  19  21
ATOM     21  S   UNL     1       2.066   4.914  20.474  0.00  0.00    +0.000 S 
ATOM     22  O   UNL     1       2.847   4.368  21.557  0.00  0.00    +0.000 OA
ATOM     23  O   UNL     1       0.721   4.463  20.192  0.00  0.00    +0.000 OA
BRANCH  21  24
ATOM     24  C   UNL     1       3.039   4.771  18.996  0.00  0.00    +0.000 A 
ATOM     25  C   UNL     1       2.624   3.966  17.918  0.00  0.00    +0.000 A 
ATOM     26  C   UNL     1       3.431   3.839  16.771  0.00  0.00    +0.000 A 
ATOM     27  C   UNL     1       4.633   4.526  16.739  0.00  0.00    +0.000 A 
ATOM     28  C   UNL     1       5.028   5.323  17.817  0.00  0.00    +0.000 A 
ATOM     29  C   UNL     1       4.250   5.458  18.955  0.00  0.00    +0.000 A 
ATOM     30  C   UNL     1       6.371   5.947  17.539  0.00  0.00    +0.000 C 
ATOM     31  C   UNL     1       6.263   7.469  17.497  0.00  0.00    +0.000 C 
ATOM     32  C   UNL     1       7.419   5.443  18.528  0.00  0.00    +0.000 C 
ATOM     33  C   UNL     1       6.688   5.407  16.133  0.00  0.00    +0.000 C 
ATOM     34  O   UNL     1       7.690   5.658  15.478  0.00  0.00    +0.000 OA
ATOM     35  N   UNL     1       5.623   4.583  15.750  0.00  0.00    +0.000 N 
ATOM     36  C   UNL     1       5.637   3.896  14.490  0.00  0.00    +0.000 C 
ENDBRANCH  21  24
ENDBRANCH  19  21
ENDBRANCH   1  19
TORSDOF 6
ENDMDL
MODEL 6
REMARK VINA RESULT:      -7.4      1.957      2.216
REMARK  Name = 
REMARK  10 active torsions:
REMARK  status: ('A' for Active; 'I' for Inactive)
REMARK    1  A    between atoms: C_1  and  C_2
REMARK    2  A    between atoms: C_5  and  N_6
REMARK    3  A    between atoms: C_7  and  C_9
REMARK    4  A    between atoms: C_12  and  C_13
REMARK    5  A    between atoms: C_13  and  N_14
REMARK    6  A    between atoms: N_14  and  S_15
REMARK    7  A    between atoms: S_15  and  C_18
REMARK    8  A    between atoms: C_24  and  C_25
REMARK    9  A    between atoms: C_24  and  C_26
REMARK   10  A    between atoms: N_29  and  C_30
REMARK                            x       y       z     vdW  Elec       q    Type
REMARK                         _______ _______ _______ _____ _____    ______ ____
ROOT
ATOM      1  C   UNL     1       1.075   7.505  21.437  0.00  0.00    +0.000 C 
ENDROOT
BRANCH   1   5
ATOM      2  C   UNL     1      -1.064  10.599  21.688  0.00  0.00    +0.000 C 
ATOM      3  C   UNL     1      -0.367  10.143  20.398  0.00  0.00    +0.000 C 
ATOM      4  C   UNL     1       1.136   9.940  20.590  0.00  0.00    +0.000 C 
ATOM      5  C   UNL     1       1.468   8.964  21.732  0.00  0.00    +0.000 C 
ATOM      6  C   UNL     1       0.787   9.434  23.028  0.00  0.00    +0.000 C 
ATOM      7  C   UNL     1      -0.722   9.657  22.858  0.00  0.00    +0.000 C 
BRANCH   2   9
ATOM      8  N   UNL     1      -0.545  12.877  20.945  0.00  0.00    +0.000 N 
ATOM      9  C   UNL     1      -0.726  12.056  22.044  0.00  0.00    +0.000 C 
ATOM     10  O   UNL     1      -0.673  12.427  23.213  0.00  0.00    +0.000 OA
ATOM     11  H   UNL     1      -0.890  12.549  20.051  0.00  0.00    +0.000 HD
BRANCH   8  16
ATOM     12  C   UNL     1       1.497  18.228  21.122  0.00  0.00    +0.000 C 
ATOM     13  C   UNL     1       0.942  16.836  21.100  0.00  0.00    +0.000 A 
ATOM     14  C   UNL     1      -0.332  16.591  20.587  0.00  0.00    +0.000 A 
ATOM     15  C   UNL     1      -0.835  15.291  20.537  0.00  0.00    +0.000 A 
ATOM     16  C   UNL     1      -0.080  14.209  20.997  0.00  0.00    +0.000 A 
ATOM     17  C   UNL     1       1.181  14.457  21.549  0.00  0.00    +0.000 A 
ATOM     18  C   UNL     1       1.693  15.759  21.589  0.00  0.00    +0.000 A 
ENDBRANCH   8  16
ENDBRANCH   2   9
ENDBRANCH   1   5
BRANCH   1  19
ATOM     19  N   UNL     1       1.983   6.899  20.460  0.00  0.00    +0.000 NA
ATOM     20  H   UNL     1       2.920   7.295  20.367  0.00  0.00    +0.000 HD
BRANCH  19  21
ATOM     21  S   UNL     1       2.012   5.211  20.382  0.00  0.00    +0.000 S 
ATOM     22  O   UNL     1       2.751   4.765  21.537  0.00  0.00    +0.000 OA
ATOM     23  O   UNL     1       0.670   4.749  20.100  0.00  0.00    +0.000 OA
BRANCH  21  24
ATOM     24  C   UNL     1       3.029   4.916  18.957  0.00  0.00    +0.000 A 
ATOM     25  C   UNL     1       2.658   3.984  17.969  0.00  0.00    +0.000 A 
ATOM     26  C   UNL     1       3.500   3.740  16.867  0.00  0.00    +0.000 A 
ATOM     27  C   UNL     1       4.692   4.440  16.788  0.00  0.00    +0.000 A 
ATOM     28  C   UNL     1       5.043   5.364  17.777  0.00  0.00    +0.000 A 
ATOM     29  C   UNL     1       4.231   5.616  18.870  0.00  0.00    +0.000 A 
ATOM     30  C   UNL     1       6.384   5.975  17.464  0.00  0.00    +0.000 C 
ATOM     31  C   UNL     1       6.256   7.480  17.243  0.00  0.00    +0.000 C 
ATOM     32  C   UNL     1       7.411   5.608  18.534  0.00  0.00    +0.000 C 
ATOM     33  C   UNL     1       6.751   5.283  16.140  0.00  0.00    +0.000 C 
ATOM     34  O   UNL     1       7.767   5.473  15.488  0.00  0.00    +0.000 OA
ATOM     35  N   UNL     1       5.709   4.400  15.827  0.00  0.00    +0.000 N 
ATOM     36  C   UNL     1       5.770   3.572  14.656  0.00  0.00    +0.000 C 
ENDBRANCH  21  24
ENDBRANCH  19  21
ENDBRANCH   1  19
TORSDOF 6
ENDMDL
MODEL 7
REMARK VINA RESULT:      -7.2      2.877      3.775
REMARK  Name = 
REMARK  10 active torsions:
REMARK  status: ('A' for Active; 'I' for Inactive)
REMARK    1  A    between atoms: C_1  and  C_2
REMARK    2  A    between atoms: C_5  and  N_6
REMARK    3  A    between atoms: C_7  and  C_9
REMARK    4  A    between atoms: C_12  and  C_13
REMARK    5  A    between atoms: C_13  and  N_14
REMARK    6  A    between atoms: N_14  and  S_15
REMARK    7  A    between atoms: S_15  and  C_18
REMARK    8  A    between atoms: C_24  and  C_25
REMARK    9  A    between atoms: C_24  and  C_26
REMARK   10  A    between atoms: N_29  and  C_30
REMARK                            x       y       z     vdW  Elec       q    Type
REMARK                         _______ _______ _______ _____ _____    ______ ____
ROOT
ATOM      1  C   UNL     1       1.623   7.721  19.831  0.00  0.00    +0.000 C 
ENDROOT
BRANCH   1   5
ATOM      2  C   UNL     1       0.790  10.809  21.827  0.00  0.00    +0.000 C 
ATOM      3  C   UNL     1       1.123   9.448  22.456  0.00  0.00    +0.000 C 
ATOM      4  C   UNL     1       0.234   8.326  21.918  0.00  0.00    +0.000 C 
ATOM      5  C   UNL     1       0.273   8.213  20.384  0.00  0.00    +0.000 C 
ATOM      6  C   UNL     1      -0.082   9.571  19.757  0.00  0.00    +0.000 C 
ATOM      7  C   UNL     1       0.789  10.717  20.290  0.00  0.00    +0.000 C 
BRANCH   2   9
ATOM      8  N   UNL     1      -1.088  12.359  21.539  0.00  0.00    +0.000 N 
ATOM      9  C   UNL     1      -0.546  11.371  22.341  0.00  0.00    +0.000 C 
ATOM     10  O   UNL     1      -1.072  10.924  23.356  0.00  0.00    +0.000 OA
ATOM     11  H   UNL     1      -0.731  12.447  20.596  0.00  0.00    +0.000 HD
BRANCH   8  16
ATOM     12  C   UNL     1      -5.773  15.382  22.860  0.00  0.00    +0.000 C 
ATOM     13  C   UNL     1      -4.537  14.616  22.497  0.00  0.00    +0.000 A 
ATOM     14  C   UNL     1      -3.302  14.965  23.046  0.00  0.00    +0.000 A 
ATOM     15  C   UNL     1      -2.157  14.233  22.732  0.00  0.00    +0.000 A 
ATOM     16  C   UNL     1      -2.219  13.138  21.866  0.00  0.00    +0.000 A 
ATOM     17  C   UNL     1      -3.448  12.811  21.282  0.00  0.00    +0.000 A 
ATOM     18  C   UNL     1      -4.600  13.538  21.605  0.00  0.00    +0.000 A 
ENDBRANCH   8  16
ENDBRANCH   2   9
ENDBRANCH   1   5
BRANCH   1  19
ATOM     19  N   UNL     1       2.271   6.795  20.762  0.00  0.00    +0.000 NA
ATOM     20  H   UNL     1       2.208   6.998  21.762  0.00  0.00    +0.000 HD
BRANCH  19  21
ATOM     21  S   UNL     1       2.093   5.143  20.452  0.00  0.00    +0.000 S 
ATOM     22  O   UNL     1       2.788   4.455  21.511  0.00  0.00    +0.000 OA
ATOM     23  O   UNL     1       0.701   4.888  20.151  0.00  0.00    +0.000 OA
BRANCH  21  24
ATOM     24  C   UNL     1       3.046   4.932  18.969  0.00  0.00    +0.000 A 
ATOM     25  C   UNL     1       2.588   4.126  17.909  0.00  0.00    +0.000 A 
ATOM     26  C   UNL     1       3.379   3.944  16.759  0.00  0.00    +0.000 A 
ATOM     27  C   UNL     1       4.609   4.577  16.705  0.00  0.00    +0.000 A 
ATOM     28  C   UNL     1       5.047   5.376  17.765  0.00  0.00    +0.000 A 
ATOM     29  C   UNL     1       4.286   5.565  18.907  0.00  0.00    +0.000 A 
ATOM     30  C   UNL     1       6.414   5.935  17.466  0.00  0.00    +0.000 C 
ATOM     31  C   UNL     1       6.372   7.459  17.397  0.00  0.00    +0.000 C 
ATOM     32  C   UNL     1       7.447   5.403  18.456  0.00  0.00    +0.000 C 
ATOM     33  C   UNL     1       6.696   5.357  16.068  0.00  0.00    +0.000 C 
ATOM     34  O   UNL     1       7.702   5.551  15.401  0.00  0.00    +0.000 OA
ATOM     35  N   UNL     1       5.593   4.573  15.708  0.00  0.00    +0.000 N 
ATOM     36  C   UNL     1       5.566   3.863  14.460  0.00  0.00    +0.000 C 
ENDBRANCH  21  24
ENDBRANCH  19  21
ENDBRANCH   1  19
TORSDOF 6
ENDMDL
MODEL 8
REMARK VINA RESULT:      -7.2      3.160      7.126
REMARK  Name = 
REMARK  10 active torsions:
REMARK  status: ('A' for Active; 'I' for Inactive)
REMARK    1  A    between atoms: C_1  and  C_2
REMARK    2  A    between atoms: C_5  and  N_6
REMARK    3  A    between atoms: C_7  and  C_9
REMARK    4  A    between atoms: C_12  and  C_13
REMARK    5  A    between atoms: C_13  and  N_14
REMARK    6  A    between atoms: N_14  and  S_15
REMARK    7  A    between atoms: S_15  and  C_18
REMARK    8  A    between atoms: C_24  and  C_25
REMARK    9  A    between atoms: C_24  and  C_26
REMARK   10  A    between atoms: N_29  and  C_30
REMARK                            x       y       z     vdW  Elec       q    Type
REMARK                         _______ _______ _______ _____ _____    ______ ____
ROOT
ATOM      1  C   UNL     1       4.673   4.361  18.045  0.00  0.00    +0.000 C 
ENDROOT
BRANCH   1   5
ATOM      2  C   UNL     1       7.473   6.771  17.293  0.00  0.00    +0.000 C 
ATOM      3  C   UNL     1       7.686   5.363  17.869  0.00  0.00    +0.000 C 
ATOM      4  C   UNL     1       6.876   5.128  19.144  0.00  0.00    +0.000 C 
ATOM      5  C   UNL     1       5.371   5.388  18.954  0.00  0.00    +0.000 C 
ATOM      6  C   UNL     1       5.158   6.805  18.397  0.00  0.00    +0.000 C 
ATOM      7  C   UNL     1       5.972   7.071  17.123  0.00  0.00    +0.000 C 
BRANCH   2   9
ATOM      8  N   UNL     1       7.937   9.144  17.697  0.00  0.00    +0.000 N 
ATOM      9  C   UNL     1       8.153   7.854  18.146  0.00  0.00    +0.000 C 
ATOM     10  O   UNL     1       8.787   7.560  19.155  0.00  0.00    +0.000 OA
ATOM     11  H   UNL     1       7.178   9.294  17.043  0.00  0.00    +0.000 HD
BRANCH   8  16
ATOM     12  C   UNL     1      10.641  13.730  19.818  0.00  0.00    +0.000 C 
ATOM     13  C   UNL     1       9.905  12.543  19.273  0.00  0.00    +0.000 A 
ATOM     14  C   UNL     1       9.123  12.662  18.124  0.00  0.00    +0.000 A 
ATOM     15  C   UNL     1       8.464  11.550  17.599  0.00  0.00    +0.000 A 
ATOM     16  C   UNL     1       8.571  10.297  18.208  0.00  0.00    +0.000 A 
ATOM     17  C   UNL     1       9.322  10.183  19.383  0.00  0.00    +0.000 A 
ATOM     18  C   UNL     1       9.993  11.296  19.904  0.00  0.00    +0.000 A 
ENDBRANCH   8  16
ENDBRANCH   2   9
ENDBRANCH   1   5
BRANCH   1  19
ATOM     19  N   UNL     1       3.274   4.726  17.809  0.00  0.00    +0.000 NA
ATOM     20  H   UNL     1       2.795   4.300  17.013  0.00  0.00    +0.000 HD
BRANCH  19  21
ATOM     21  S   UNL     1       2.266   4.818  19.162  0.00  0.00    +0.000 S 
ATOM     22  O   UNL     1       1.052   4.124  18.811  0.00  0.00    +0.000 OA
ATOM     23  O   UNL     1       3.044   4.465  20.330  0.00  0.00    +0.000 OA
BRANCH  21  24
ATOM     24  C   UNL     1       1.884   6.550  19.232  0.00  0.00    +0.000 A 
ATOM     25  C   UNL     1       1.999   7.375  18.097  0.00  0.00    +0.000 A 
ATOM     26  C   UNL     1       1.727   8.754  18.187  0.00  0.00    +0.000 A 
ATOM     27  C   UNL     1       1.345   9.265  19.415  0.00  0.00    +0.000 A 
ATOM     28  C   UNL     1       1.233   8.431  20.532  0.00  0.00    +0.000 A 
ATOM     29  C   UNL     1       1.500   7.074  20.465  0.00  0.00    +0.000 A 
ATOM     30  C   UNL     1       0.818   9.231  21.739  0.00  0.00    +0.000 C 
ATOM     31  C   UNL     1      -0.537   8.761  22.261  0.00  0.00    +0.000 C 
ATOM     32  C   UNL     1       1.913   9.215  22.803  0.00  0.00    +0.000 C 
ATOM     33  C   UNL     1       0.689  10.649  21.155  0.00  0.00    +0.000 C 
ATOM     34  O   UNL     1       0.357  11.651  21.771  0.00  0.00    +0.000 OA
ATOM     35  N   UNL     1       1.022  10.573  19.797  0.00  0.00    +0.000 N 
ATOM     36  C   UNL     1       1.031  11.749  18.972  0.00  0.00    +0.000 C 
ENDBRANCH  21  24
ENDBRANCH  19  21
ENDBRANCH   1  19
TORSDOF 6
ENDMDL
MODEL 9
REMARK VINA RESULT:      -7.1      3.372      9.858
REMARK  Name = 
REMARK  10 active torsions:
REMARK  status: ('A' for Active; 'I' for Inactive)
REMARK    1  A    between atoms: C_1  and  C_2
REMARK    2  A    between atoms: C_5  and  N_6
REMARK    3  A    between atoms: C_7  and  C_9
REMARK    4  A    between atoms: C_12  and  C_13
REMARK    5  A    between atoms: C_13  and  N_14
REMARK    6  A    between atoms: N_14  and  S_15
REMARK    7  A    between atoms: S_15  and  C_18
REMARK    8  A    between atoms: C_24  and  C_25
REMARK    9  A    between atoms: C_24  and  C_26
REMARK   10  A    between atoms: N_29  and  C_30
REMARK                            x       y       z     vdW  Elec       q    Type
REMARK                         _______ _______ _______ _____ _____    ______ ____
ROOT
ATOM      1  C   UNL     1      -1.323  11.778  19.639  0.00  0.00    +0.000 C 
ENDROOT
BRANCH   1   5
ATOM      2  C   UNL     1       1.759   9.643  19.236  0.00  0.00    +0.000 C 
ATOM      3  C   UNL     1       1.093  10.411  18.085  0.00  0.00    +0.000 C 
ATOM      4  C   UNL     1      -0.391  10.073  17.942  0.00  0.00    +0.000 C 
ATOM      5  C   UNL     1      -1.184  10.297  19.242  0.00  0.00    +0.000 C 
ATOM      6  C   UNL     1      -0.529   9.511  20.389  0.00  0.00    +0.000 C 
ATOM      7  C   UNL     1       0.966   9.823  20.544  0.00  0.00    +0.000 C 
BRANCH   2   9
ATOM      8  N   UNL     1       2.329   7.380  19.987  0.00  0.00    +0.000 N 
ATOM      9  C   UNL     1       1.940   8.153  18.907  0.00  0.00    +0.000 C 
ATOM     10  O   UNL     1       1.708   7.719  17.783  0.00  0.00    +0.000 OA
ATOM     11  H   UNL     1       2.212   7.774  20.913  0.00  0.00    +0.000 HD
BRANCH   8  16
ATOM     12  C   UNL     1       4.026   1.913  19.738  0.00  0.00    +0.000 C 
ATOM     13  C   UNL     1       3.561   3.338  19.779  0.00  0.00    +0.000 A 
ATOM     14  C   UNL     1       2.304   3.656  20.294  0.00  0.00    +0.000 A 
ATOM     15  C   UNL     1       1.884   4.985  20.361  0.00  0.00    +0.000 A 
ATOM     16  C   UNL     1       2.708   6.022  19.917  0.00  0.00    +0.000 A 
ATOM     17  C   UNL     1       3.952   5.703  19.363  0.00  0.00    +0.000 A 
ATOM     18  C   UNL     1       4.380   4.370  19.306  0.00  0.00    +0.000 A 
ENDBRANCH   8  16
ENDBRANCH   2   9
ENDBRANCH   1   5
BRANCH   1  19
ATOM     19  N   UNL     1      -1.797  11.915  21.017  0.00  0.00    +0.000 NA
ATOM     20  H   UNL     1      -1.985  11.061  21.547  0.00  0.00    +0.000 HD
BRANCH  19  21
ATOM     21  S   UNL     1      -1.047  13.087  21.976  0.00  0.00    +0.000 S 
ATOM     22  O   UNL     1      -2.057  14.068  22.284  0.00  0.00    +0.000 OA
ATOM     23  O   UNL     1      -0.290  12.410  23.007  0.00  0.00    +0.000 OA
BRANCH  21  24
ATOM     24  C   UNL     1       0.089  13.838  20.836  0.00  0.00    +0.000 A 
ATOM     25  C   UNL     1       1.280  13.192  20.451  0.00  0.00    +0.000 A 
ATOM     26  C   UNL     1       2.182  13.825  19.575  0.00  0.00    +0.000 A 
ATOM     27  C   UNL     1       1.863  15.089  19.109  0.00  0.00    +0.000 A 
ATOM     28  C   UNL     1       0.674  15.714  19.499  0.00  0.00    +0.000 A 
ATOM     29  C   UNL     1      -0.224  15.111  20.363  0.00  0.00    +0.000 A 
ATOM     30  C   UNL     1       0.572  17.078  18.866  0.00  0.00    +0.000 C 
ATOM     31  C   UNL     1      -0.639  17.156  17.941  0.00  0.00    +0.000 C 
ATOM     32  C   UNL     1       0.590  18.172  19.931  0.00  0.00    +0.000 C 
ATOM     33  C   UNL     1       1.867  17.144  18.038  0.00  0.00    +0.000 C 
ATOM     34  O   UNL     1       2.220  18.078  17.332  0.00  0.00    +0.000 OA
ATOM     35  N   UNL     1       2.559  15.945  18.246  0.00  0.00    +0.000 N 
ATOM     36  C   UNL     1       3.836  15.712  17.631  0.00  0.00    +0.000 C 
ENDBRANCH  21  24
ENDBRANCH  19  21
ENDBRANCH   1  19
TORSDOF 6
ENDMDL
