MODEL 1
REMARK VINA RESULT:      -6.3      0.000      0.000
REMARK  Name = 
REMARK  7 active torsions:
REMARK  status: ('A' for Active; 'I' for Inactive)
REMARK    1  A    between atoms: C_1  and  C_2
REMARK    2  A    between atoms: C_2  and  O_3
REMARK    3  A    between atoms: O_3  and  C_4
REMARK    4  A    between atoms: C_4  and  C_5
REMARK    5  A    between atoms: N_7  and  C_8
REMARK    6  A    between atoms: C_11  and  C_12
REMARK    7  A    between atoms: C_12  and  C_13
REMARK                            x       y       z     vdW  Elec       q    Type
REMARK                         _______ _______ _______ _____ _____    ______ ____
ROOT
ATOM      1  C   UNL     1       4.355   5.403  18.128  0.00  0.00    +0.000 A 
ATOM      2  C   UNL     1       3.287   5.962  18.827  0.00  0.00    +0.000 A 
ATOM      3  C   UNL     1       2.263   5.158  19.333  0.00  0.00    +0.000 A 
ATOM      4  C   UNL     1       2.299   3.768  19.177  0.00  0.00    +0.000 A 
ATOM      5  C   UNL     1       3.354   3.203  18.443  0.00  0.00    +0.000 A 
ATOM      6 CL   UNL     1       3.545   1.501  18.204  0.00  0.00    +0.000 Cl
ATOM      7  C   UNL     1       4.362   4.023  17.902  0.00  0.00    +0.000 A 
ENDROOT
BRANCH   1  10
ATOM      8  C   UNL     1       6.676   6.301  18.228  0.00  0.00    +0.000 C 
ATOM      9  O   UNL     1       7.065   5.687  19.220  0.00  0.00    +0.000 OA
ATOM     10  N   UNL     1       5.426   6.177  17.638  0.00  0.00    +0.000 N 
ATOM     11  H   UNL     1       5.311   6.625  16.735  0.00  0.00    +0.000 HD
BRANCH   8  12
ATOM     12  C   UNL     1       7.617   7.230  17.467  0.00  0.00    +0.000 C 
BRANCH  12  13
ATOM     13  O   UNL     1       8.368   8.032  18.368  0.00  0.00    +0.000 OA
BRANCH  13  15
ATOM     14  C   UNL     1       9.193  10.191  18.957  0.00  0.00    +0.000 C 
ATOM     15  C   UNL     1       8.257   9.418  18.051  0.00  0.00    +0.000 C 
ENDBRANCH  13  15
ENDBRANCH  12  13
ENDBRANCH   8  12
ENDBRANCH   1  10
BRANCH   4  16
ATOM     16  C   UNL     1       1.198   2.953  19.773  0.00  0.00    +0.000 C 
ATOM     17  C   UNL     1       1.177   2.720  21.266  0.00  0.00    +0.000 C 
ATOM     18  O   UNL     1       0.305   2.496  19.065  0.00  0.00    +0.000 OA
ENDBRANCH   4  16
TORSDOF 5
ENDMDL
MODEL 2
REMARK VINA RESULT:      -6.3      3.431      4.546
REMARK  Name = 
REMARK  7 active torsions:
REMARK  status: ('A' for Active; 'I' for Inactive)
REMARK    1  A    between atoms: C_1  and  C_2
REMARK    2  A    between atoms: C_2  and  O_3
REMARK    3  A    between atoms: O_3  and  C_4
REMARK    4  A    between atoms: C_4  and  C_5
REMARK    5  A    between atoms: N_7  and  C_8
REMARK    6  A    between atoms: C_11  and  C_12
REMARK    7  A    between atoms: C_12  and  C_13
REMARK                            x       y       z     vdW  Elec       q    Type
REMARK                         _______ _______ _______ _____ _____    ______ ____
ROOT
ATOM      1  C   UNL     1       4.631   4.462  17.199  0.00  0.00    +0.000 A 
ATOM      2  C   UNL     1       5.024   5.269  18.265  0.00  0.00    +0.000 A 
ATOM      3  C   UNL     1       4.214   5.408  19.395  0.00  0.00    +0.000 A 
ATOM      4  C   UNL     1       3.002   4.716  19.498  0.00  0.00    +0.000 A 
ATOM      5  C   UNL     1       2.585   3.930  18.412  0.00  0.00    +0.000 A 
ATOM      6 CL   UNL     1       1.132   2.992  18.416  0.00  0.00    +0.000 Cl
ATOM      7  C   UNL     1       3.388   3.826  17.260  0.00  0.00    +0.000 A 
ENDROOT
BRANCH   1  10
ATOM      8  C   UNL     1       5.783   5.239  15.132  0.00  0.00    +0.000 C 
ATOM      9  O   UNL     1       5.504   6.434  15.207  0.00  0.00    +0.000 OA
ATOM     10  N   UNL     1       5.440   4.267  16.061  0.00  0.00    +0.000 N 
ATOM     11  H   UNL     1       5.879   3.360  15.943  0.00  0.00    +0.000 HD
BRANCH   8  12
ATOM     12  C   UNL     1       6.656   4.712  13.997  0.00  0.00    +0.000 C 
BRANCH  12  13
ATOM     13  O   UNL     1       6.260   3.399  13.627  0.00  0.00    +0.000 OA
BRANCH  13  15
ATOM     14  C   UNL     1       4.793   3.255  11.751  0.00  0.00    +0.000 C 
ATOM     15  C   UNL     1       6.237   3.239  12.210  0.00  0.00    +0.000 C 
ENDBRANCH  13  15
ENDBRANCH  12  13
ENDBRANCH   8  12
ENDBRANCH   1  10
BRANCH   4  16
ATOM     16  C   UNL     1       2.195   4.870  20.745  0.00  0.00    +0.000 C 
ATOM     17  C   UNL     1       1.375   6.124  20.944  0.00  0.00    +0.000 C 
ATOM     18  O   UNL     1       2.176   3.980  21.591  0.00  0.00    +0.000 OA
ENDBRANCH   4  16
TORSDOF 5
ENDMDL
MODEL 3
REMARK VINA RESULT:      -6.1      3.571      4.624
REMARK  Name = 
REMARK  7 active torsions:
REMARK  status: ('A' for Active; 'I' for Inactive)
REMARK    1  A    between atoms: C_1  and  C_2
REMARK    2  A    between atoms: C_2  and  O_3
REMARK    3  A    between atoms: O_3  and  C_4
REMARK    4  A    between atoms: C_4  and  C_5
REMARK    5  A    between atoms: N_7  and  C_8
REMARK    6  A    between atoms: C_11  and  C_12
REMARK    7  A    between atoms: C_12  and  C_13
REMARK                            x       y       z     vdW  Elec       q    Type
REMARK                         _______ _______ _______ _____ _____    ______ ____
ROOT
ATOM      1  C   UNL     1       4.757   4.017  17.276  0.00  0.00    +0.000 A 
ATOM      2  C   UNL     1       5.267   4.511  18.474  0.00  0.00    +0.000 A 
ATOM      3  C   UNL     1       4.476   4.558  19.625  0.00  0.00    +0.000 A 
ATOM      4  C   UNL     1       3.160   4.080  19.610  0.00  0.00    +0.000 A 
ATOM      5  C   UNL     1       2.630   3.614  18.396  0.00  0.00    +0.000 A 
ATOM      6 CL   UNL     1       1.036   2.961  18.241  0.00  0.00    +0.000 Cl
ATOM      7  C   UNL     1       3.421   3.607  17.232  0.00  0.00    +0.000 A 
ENDROOT
BRANCH   1  10
ATOM      8  C   UNL     1       5.809   4.952  15.221  0.00  0.00    +0.000 C 
ATOM      9  O   UNL     1       5.482   6.128  15.369  0.00  0.00    +0.000 OA
ATOM     10  N   UNL     1       5.537   3.918  16.106  0.00  0.00    +0.000 N 
ATOM     11  H   UNL     1       6.011   3.039  15.927  0.00  0.00    +0.000 HD
BRANCH   8  12
ATOM     12  C   UNL     1       6.668   4.526  14.035  0.00  0.00    +0.000 C 
BRANCH  12  13
ATOM     13  O   UNL     1       6.156   3.339  13.445  0.00  0.00    +0.000 OA
BRANCH  13  15
ATOM     14  C   UNL     1       6.037   1.964  11.500  0.00  0.00    +0.000 C 
ATOM     15  C   UNL     1       6.283   3.363  12.025  0.00  0.00    +0.000 C 
ENDBRANCH  13  15
ENDBRANCH  12  13
ENDBRANCH   8  12
ENDBRANCH   1  10
BRANCH   4  16
ATOM     16  C   UNL     1       2.373   4.116  20.878  0.00  0.00    +0.000 C 
ATOM     17  C   UNL     1       2.237   2.855  21.700  0.00  0.00    +0.000 C 
ATOM     18  O   UNL     1       1.859   5.162  21.266  0.00  0.00    +0.000 OA
ENDBRANCH   4  16
TORSDOF 5
ENDMDL
MODEL 4
REMARK VINA RESULT:      -6.1      3.571      4.628
REMARK  Name = 
REMARK  7 active torsions:
REMARK  status: ('A' for Active; 'I' for Inactive)
REMARK    1  A    between atoms: C_1  and  C_2
REMARK    2  A    between atoms: C_2  and  O_3
REMARK    3  A    between atoms: O_3  and  C_4
REMARK    4  A    between atoms: C_4  and  C_5
REMARK    5  A    between atoms: N_7  and  C_8
REMARK    6  A    between atoms: C_11  and  C_12
REMARK    7  A    between atoms: C_12  and  C_13
REMARK                            x       y       z     vdW  Elec       q    Type
REMARK                         _______ _______ _______ _____ _____    ______ ____
ROOT
ATOM      1  C   UNL     1       4.507   4.392  16.849  0.00  0.00    +0.000 A 
ATOM      2  C   UNL     1       4.249   3.175  17.476  0.00  0.00    +0.000 A 
ATOM      3  C   UNL     1       3.469   3.117  18.634  0.00  0.00    +0.000 A 
ATOM      4  C   UNL     1       2.903   4.276  19.176  0.00  0.00    +0.000 A 
ATOM      5  C   UNL     1       3.190   5.509  18.568  0.00  0.00    +0.000 A 
ATOM      6 CL   UNL     1       2.529   7.014  19.108  0.00  0.00    +0.000 Cl
ATOM      7  C   UNL     1       4.009   5.564  17.425  0.00  0.00    +0.000 A 
ENDROOT
BRANCH   1  10
ATOM      8  C   UNL     1       6.636   4.602  15.574  0.00  0.00    +0.000 C 
ATOM      9  O   UNL     1       7.420   4.556  16.520  0.00  0.00    +0.000 OA
ATOM     10  N   UNL     1       5.256   4.485  15.658  0.00  0.00    +0.000 N 
ATOM     11  H   UNL     1       4.761   4.379  14.779  0.00  0.00    +0.000 HD
BRANCH   8  12
ATOM     12  C   UNL     1       7.150   4.703  14.141  0.00  0.00    +0.000 C 
BRANCH  12  13
ATOM     13  O   UNL     1       6.162   4.259  13.221  0.00  0.00    +0.000 OA
BRANCH  13  15
ATOM     14  C   UNL     1       5.709   2.491  11.685  0.00  0.00    +0.000 C 
ATOM     15  C   UNL     1       6.738   3.495  12.163  0.00  0.00    +0.000 C 
ENDBRANCH  13  15
ENDBRANCH  12  13
ENDBRANCH   8  12
ENDBRANCH   1  10
BRANCH   4  16
ATOM     16  C   UNL     1       2.045   4.151  20.391  0.00  0.00    +0.000 C 
ATOM     17  C   UNL     1       0.754   3.369  20.308  0.00  0.00    +0.000 C 
ATOM     18  O   UNL     1       2.391   4.656  21.456  0.00  0.00    +0.000 OA
ENDBRANCH   4  16
TORSDOF 5
ENDMDL
MODEL 5
REMARK VINA RESULT:      -6.0      1.109      1.109
REMARK  Name = 
REMARK  7 active torsions:
REMARK  status: ('A' for Active; 'I' for Inactive)
REMARK    1  A    between atoms: C_1  and  C_2
REMARK    2  A    between atoms: C_2  and  O_3
REMARK    3  A    between atoms: O_3  and  C_4
REMARK    4  A    between atoms: C_4  and  C_5
REMARK    5  A    between atoms: N_7  and  C_8
REMARK    6  A    between atoms: C_11  and  C_12
REMARK    7  A    between atoms: C_12  and  C_13
REMARK                            x       y       z     vdW  Elec       q    Type
REMARK                         _______ _______ _______ _____ _____    ______ ____
ROOT
ATOM      1  C   UNL     1       4.852   5.218  18.717  0.00  0.00    +0.000 A 
ATOM      2  C   UNL     1       3.822   5.814  19.442  0.00  0.00    +0.000 A 
ATOM      3  C   UNL     1       2.698   5.079  19.826  0.00  0.00    +0.000 A 
ATOM      4  C   UNL     1       2.591   3.718  19.517  0.00  0.00    +0.000 A 
ATOM      5  C   UNL     1       3.609   3.122  18.756  0.00  0.00    +0.000 A 
ATOM      6 CL   UNL     1       3.626   1.445  18.335  0.00  0.00    +0.000 Cl
ATOM      7  C   UNL     1       4.720   3.879  18.339  0.00  0.00    +0.000 A 
ENDROOT
BRANCH   1  10
ATOM      8  C   UNL     1       6.216   6.591  17.150  0.00  0.00    +0.000 C 
ATOM      9  O   UNL     1       5.374   6.753  16.269  0.00  0.00    +0.000 OA
ATOM     10  N   UNL     1       6.019   5.917  18.346  0.00  0.00    +0.000 N 
ATOM     11  H   UNL     1       6.754   6.008  19.039  0.00  0.00    +0.000 HD
BRANCH   8  12
ATOM     12  C   UNL     1       7.596   7.234  17.036  0.00  0.00    +0.000 C 
BRANCH  12  13
ATOM     13  O   UNL     1       7.544   8.603  17.411  0.00  0.00    +0.000 OA
BRANCH  13  15
ATOM     14  C   UNL     1       8.935  10.341  18.269  0.00  0.00    +0.000 C 
ATOM     15  C   UNL     1       8.491   8.902  18.435  0.00  0.00    +0.000 C 
ENDBRANCH  13  15
ENDBRANCH  12  13
ENDBRANCH   8  12
ENDBRANCH   1  10
BRANCH   4  16
ATOM     16  C   UNL     1       1.386   2.972  19.987  0.00  0.00    +0.000 C 
ATOM     17  C   UNL     1       1.224   2.684  21.462  0.00  0.00    +0.000 C 
ATOM     18  O   UNL     1       0.522   2.615  19.191  0.00  0.00    +0.000 OA
ENDBRANCH   4  16
TORSDOF 5
ENDMDL
MODEL 6
REMARK VINA RESULT:      -6.0      4.307      5.783
REMARK  Name = 
REMARK  7 active torsions:
REMARK  status: ('A' for Active; 'I' for Inactive)
REMARK    1  A    between atoms: C_1  and  C_2
REMARK    2  A    between atoms: C_2  and  O_3
REMARK    3  A    between atoms: O_3  and  C_4
REMARK    4  A    between atoms: C_4  and  C_5
REMARK    5  A    between atoms: N_7  and  C_8
REMARK    6  A    between atoms: C_11  and  C_12
REMARK    7  A    between atoms: C_12  and  C_13
REMARK                            x       y       z     vdW  Elec       q    Type
REMARK                         _______ _______ _______ _____ _____    ______ ____
ROOT
ATOM      1  C   UNL     1       2.012   6.791  20.130  0.00  0.00    +0.000 A 
ATOM      2  C   UNL     1       2.742   6.814  18.944  0.00  0.00    +0.000 A 
ATOM      3  C   UNL     1       2.973   5.640  18.222  0.00  0.00    +0.000 A 
ATOM      4  C   UNL     1       2.452   4.416  18.657  0.00  0.00    +0.000 A 
ATOM      5  C   UNL     1       1.746   4.383  19.871  0.00  0.00    +0.000 A 
ATOM      6 CL   UNL     1       1.016   2.951  20.509  0.00  0.00    +0.000 Cl
ATOM      7  C   UNL     1       1.551   5.563  20.612  0.00  0.00    +0.000 A 
ENDROOT
BRANCH   1  10
ATOM      8  C   UNL     1       1.141   9.113  20.359  0.00  0.00    +0.000 C 
ATOM      9  O   UNL     1       0.708   9.258  19.217  0.00  0.00    +0.000 OA
ATOM     10  N   UNL     1       1.726   7.961  20.864  0.00  0.00    +0.000 N 
ATOM     11  H   UNL     1       1.884   7.940  21.866  0.00  0.00    +0.000 HD
BRANCH   8  12
ATOM     12  C   UNL     1       0.979  10.217  21.400  0.00  0.00    +0.000 C 
BRANCH  12  13
ATOM     13  O   UNL     1       1.100   9.690  22.714  0.00  0.00    +0.000 OA
BRANCH  13  15
ATOM     14  C   UNL     1      -1.007  10.779  22.966  0.00  0.00    +0.000 C 
ATOM     15  C   UNL     1      -0.170   9.575  23.351  0.00  0.00    +0.000 C 
ENDBRANCH  13  15
ENDBRANCH  12  13
ENDBRANCH   8  12
ENDBRANCH   1  10
BRANCH   4  16
ATOM     16  C   UNL     1       2.695   3.200  17.826  0.00  0.00    +0.000 C 
ATOM     17  C   UNL     1       3.586   2.103  18.365  0.00  0.00    +0.000 C 
ATOM     18  O   UNL     1       2.161   3.076  16.727  0.00  0.00    +0.000 OA
ENDBRANCH   4  16
TORSDOF 5
ENDMDL
MODEL 7
REMARK VINA RESULT:      -5.9      2.704      3.657
REMARK  Name = 
REMARK  7 active torsions:
REMARK  status: ('A' for Active; 'I' for Inactive)
REMARK    1  A    between atoms: C_1  and  C_2
REMARK    2  A    between atoms: C_2  and  O_3
REMARK    3  A    between atoms: O_3  and  C_4
REMARK    4  A    between atoms: C_4  and  C_5
REMARK    5  A    between atoms: N_7  and  C_8
REMARK    6  A    between atoms: C_11  and  C_12
REMARK    7  A    between atoms: C_12  and  C_13
REMARK                            x       y       z     vdW  Elec       q    Type
REMARK                         _______ _______ _______ _____ _____    ______ ____
ROOT
ATOM      1  C   UNL     1       4.323   4.128  17.523  0.00  0.00    +0.000 A 
ATOM      2  C   UNL     1       3.892   2.804  17.546  0.00  0.00    +0.000 A 
ATOM      3  C   UNL     1       2.877   2.396  18.415  0.00  0.00    +0.000 A 
ATOM      4  C   UNL     1       2.246   3.314  19.262  0.00  0.00    +0.000 A 
ATOM      5  C   UNL     1       2.700   4.642  19.267  0.00  0.00    +0.000 A 
ATOM      6 CL   UNL     1       1.990   5.889  20.233  0.00  0.00    +0.000 Cl
ATOM      7  C   UNL     1       3.750   5.037  18.418  0.00  0.00    +0.000 A 
ENDROOT
BRANCH   1  10
ATOM      8  C   UNL     1       6.670   4.701  16.917  0.00  0.00    +0.000 C 
ATOM      9  O   UNL     1       7.218   4.344  17.957  0.00  0.00    +0.000 OA
ATOM     10  N   UNL     1       5.316   4.585  16.632  0.00  0.00    +0.000 N 
ATOM     11  H   UNL     1       5.041   4.772  15.674  0.00  0.00    +0.000 HD
BRANCH   8  12
ATOM     12  C   UNL     1       7.489   5.246  15.751  0.00  0.00    +0.000 C 
BRANCH  12  13
ATOM     13  O   UNL     1       6.667   5.446  14.609  0.00  0.00    +0.000 OA
BRANCH  13  15
ATOM     14  C   UNL     1       5.988   3.688  13.147  0.00  0.00    +0.000 C 
ATOM     15  C   UNL     1       7.100   4.651  13.507  0.00  0.00    +0.000 C 
ENDBRANCH  13  15
ENDBRANCH  12  13
ENDBRANCH   8  12
ENDBRANCH   1  10
BRANCH   4  16
ATOM     16  C   UNL     1       1.139   2.831  20.141  0.00  0.00    +0.000 C 
ATOM     17  C   UNL     1       1.388   2.676  21.624  0.00  0.00    +0.000 C 
ATOM     18  O   UNL     1       0.031   2.585  19.673  0.00  0.00    +0.000 OA
ENDBRANCH   4  16
TORSDOF 5
ENDMDL
MODEL 8
REMARK VINA RESULT:      -5.9      3.280      3.900
REMARK  Name = 
REMARK  7 active torsions:
REMARK  status: ('A' for Active; 'I' for Inactive)
REMARK    1  A    between atoms: C_1  and  C_2
REMARK    2  A    between atoms: C_2  and  O_3
REMARK    3  A    between atoms: O_3  and  C_4
REMARK    4  A    between atoms: C_4  and  C_5
REMARK    5  A    between atoms: N_7  and  C_8
REMARK    6  A    between atoms: C_11  and  C_12
REMARK    7  A    between atoms: C_12  and  C_13
REMARK                            x       y       z     vdW  Elec       q    Type
REMARK                         _______ _______ _______ _____ _____    ______ ____
ROOT
ATOM      1  C   UNL     1       4.992   4.168  17.450  0.00  0.00    +0.000 A 
ATOM      2  C   UNL     1       5.426   4.439  18.746  0.00  0.00    +0.000 A 
ATOM      3  C   UNL     1       4.516   4.536  19.801  0.00  0.00    +0.000 A 
ATOM      4  C   UNL     1       3.148   4.332  19.589  0.00  0.00    +0.000 A 
ATOM      5  C   UNL     1       2.702   4.093  18.280  0.00  0.00    +0.000 A 
ATOM      6 CL   UNL     1       1.047   3.787  17.878  0.00  0.00    +0.000 Cl
ATOM      7  C   UNL     1       3.620   4.037  17.215  0.00  0.00    +0.000 A 
ENDROOT
BRANCH   1  10
ATOM      8  C   UNL     1       6.104   4.960  15.367  0.00  0.00    +0.000 C 
ATOM      9  O   UNL     1       5.619   6.089  15.320  0.00  0.00    +0.000 OA
ATOM     10  N   UNL     1       5.884   4.024  16.368  0.00  0.00    +0.000 N 
ATOM     11  H   UNL     1       6.479   3.203  16.353  0.00  0.00    +0.000 HD
BRANCH   8  12
ATOM     12  C   UNL     1       7.117   4.503  14.322  0.00  0.00    +0.000 C 
BRANCH  12  13
ATOM     13  O   UNL     1       7.942   5.587  13.915  0.00  0.00    +0.000 OA
BRANCH  13  15
ATOM     14  C   UNL     1       7.304   4.486  11.898  0.00  0.00    +0.000 C 
ATOM     15  C   UNL     1       8.160   5.579  12.506  0.00  0.00    +0.000 C 
ENDBRANCH  13  15
ENDBRANCH  12  13
ENDBRANCH   8  12
ENDBRANCH   1  10
BRANCH   4  16
ATOM     16  C   UNL     1       2.225   4.407  20.760  0.00  0.00    +0.000 C 
ATOM     17  C   UNL     1       2.129   3.229  21.703  0.00  0.00    +0.000 C 
ATOM     18  O   UNL     1       1.566   5.422  20.973  0.00  0.00    +0.000 OA
ENDBRANCH   4  16
TORSDOF 5
ENDMDL
MODEL 9
REMARK VINA RESULT:      -5.9      3.317      3.893
REMARK  Name = 
REMARK  7 active torsions:
REMARK  status: ('A' for Active; 'I' for Inactive)
REMARK    1  A    between atoms: C_1  and  C_2
REMARK    2  A    between atoms: C_2  and  O_3
REMARK    3  A    between atoms: O_3  and  C_4
REMARK    4  A    between atoms: C_4  and  C_5
REMARK    5  A    between atoms: N_7  and  C_8
REMARK    6  A    between atoms: C_11  and  C_12
REMARK    7  A    between atoms: C_12  and  C_13
REMARK                            x       y       z     vdW  Elec       q    Type
REMARK                         _______ _______ _______ _____ _____    ______ ____
ROOT
ATOM      1  C   UNL     1       4.181   4.159  16.998  0.00  0.00    +0.000 A 
ATOM      2  C   UNL     1       3.824   2.936  17.562  0.00  0.00    +0.000 A 
ATOM      3  C   UNL     1       3.038   2.880  18.716  0.00  0.00    +0.000 A 
ATOM      4  C   UNL     1       2.566   4.052  19.319  0.00  0.00    +0.000 A 
ATOM      5  C   UNL     1       2.953   5.288  18.775  0.00  0.00    +0.000 A 
ATOM      6 CL   UNL     1       2.415   6.811  19.393  0.00  0.00    +0.000 Cl
ATOM      7  C   UNL     1       3.777   5.336  17.635  0.00  0.00    +0.000 A 
ENDROOT
BRANCH   1  10
ATOM      8  C   UNL     1       6.319   4.368  15.738  0.00  0.00    +0.000 C 
ATOM      9  O   UNL     1       7.096   4.320  16.690  0.00  0.00    +0.000 OA
ATOM     10  N   UNL     1       4.938   4.253  15.813  0.00  0.00    +0.000 N 
ATOM     11  H   UNL     1       4.449   4.149  14.930  0.00  0.00    +0.000 HD
BRANCH   8  12
ATOM     12  C   UNL     1       6.843   4.470  14.309  0.00  0.00    +0.000 C 
BRANCH  12  13
ATOM     13  O   UNL     1       7.840   5.478  14.210  0.00  0.00    +0.000 OA
BRANCH  13  15
ATOM     14  C   UNL     1       7.443   4.750  11.973  0.00  0.00    +0.000 C 
ATOM     15  C   UNL     1       8.258   5.670  12.860  0.00  0.00    +0.000 C 
ENDBRANCH  13  15
ENDBRANCH  12  13
ENDBRANCH   8  12
ENDBRANCH   1  10
BRANCH   4  16
ATOM     16  C   UNL     1       1.698   3.934  20.527  0.00  0.00    +0.000 C 
ATOM     17  C   UNL     1       2.210   3.180  21.734  0.00  0.00    +0.000 C 
ATOM     18  O   UNL     1       0.589   4.461  20.555  0.00  0.00    +0.000 OA
ENDBRANCH   4  16
TORSDOF 5
ENDMDL
