MODEL 1
REMARK VINA RESULT:      -8.2      0.000      0.000
REMARK  Name = 
REMARK  6 active torsions:
REMARK  status: ('A' for Active; 'I' for Inactive)
REMARK    1  A    between atoms: C_1  and  O_2
REMARK    2  A    between atoms: O_2  and  C_3
REMARK    3  A    between atoms: C_8  and  N_9
REMARK    4  A    between atoms: C_13  and  C_15
REMARK    5  A    between atoms: C_17  and  C_18
REMARK    6  A    between atoms: C_26  and  C_27
REMARK                            x       y       z     vdW  Elec       q    Type
REMARK                         _______ _______ _______ _____ _____    ______ ____
ROOT
ATOM      1  N   UNL     1       3.905   4.091  18.494  0.00  0.00    +0.000 N 
ATOM      2  C   UNL     1       4.726   3.539  17.403  0.00  0.00    +0.000 C 
ATOM      3  C   UNL     1       5.290   4.682  16.532  0.00  0.00    +0.000 C 
ATOM      4  N   UNL     1       5.938   5.729  17.331  0.00  0.00    +0.000 N 
ATOM      5  C   UNL     1       6.994   6.432  16.745  0.00  0.00    +0.000 C 
ATOM      6  O   UNL     1       7.350   6.215  15.587  0.00  0.00    +0.000 OA
ATOM      7  C   UNL     1       5.089   6.234  18.430  0.00  0.00    +0.000 C 
ATOM      8  C   UNL     1       4.608   5.079  19.328  0.00  0.00    +0.000 C 
ENDROOT
BRANCH   5   9
ATOM      9  C   UNL     1       7.695   7.425  17.564  0.00  0.00    +0.000 A 
ATOM     10  C   UNL     1       7.822   8.832  17.343  0.00  0.00    +0.000 A 
ATOM     11  C   UNL     1       8.630   9.373  18.325  0.00  0.00    +0.000 A 
ATOM     12  N   UNL     1       8.865   8.359  19.225  0.00  0.00    +0.000 N 
ATOM     13  C   UNL     1       8.303   7.184  18.790  0.00  0.00    +0.000 A 
ATOM     14  C   UNL     1       8.409   5.937  19.593  0.00  0.00    +0.000 C 
ATOM     15  H   UNL     1       9.373   8.467  20.092  0.00  0.00    +0.000 HD
BRANCH  11  16
ATOM     16  C   UNL     1       9.157  10.729  18.469  0.00  0.00    +0.000 A 
ATOM     17  C   UNL     1       8.608  11.780  17.719  0.00  0.00    +0.000 A 
ATOM     18  C   UNL     1       9.131  13.072  17.813  0.00  0.00    +0.000 A 
ATOM     19  C   UNL     1      10.208  13.322  18.658  0.00  0.00    +0.000 A 
ATOM     20 CL   UNL     1      10.859  14.909  18.769  0.00  0.00    +0.000 Cl
ATOM     21  C   UNL     1      10.768  12.290  19.409  0.00  0.00    +0.000 A 
ATOM     22  C   UNL     1      10.244  10.997  19.312  0.00  0.00    +0.000 A 
ENDBRANCH  11  16
ENDBRANCH   5   9
BRANCH   1  28
ATOM     23  C   UNL     1       1.890   4.036  19.927  0.00  0.00    +0.000 A 
ATOM     24  C   UNL     1       0.658   3.434  20.239  0.00  0.00    +0.000 A 
ATOM     25  C   UNL     1       0.198   2.335  19.519  0.00  0.00    +0.000 A 
ATOM     26  C   UNL     1       0.971   1.814  18.496  0.00  0.00    +0.000 A 
ATOM     27  C   UNL     1       2.206   2.394  18.193  0.00  0.00    +0.000 A 
ATOM     28  C   UNL     1       2.704   3.515  18.885  0.00  0.00    +0.000 A 
BRANCH  23  30
ATOM     29  C   UNL     1       1.423   6.208  20.814  0.00  0.00    +0.000 C 
ATOM     30  O   UNL     1       2.348   5.150  20.598  0.00  0.00    +0.000 OA
ENDBRANCH  23  30
ENDBRANCH   1  28
TORSDOF 4
ENDMDL
MODEL 2
REMARK VINA RESULT:      -8.2      1.010      1.578
REMARK  Name = 
REMARK  6 active torsions:
REMARK  status: ('A' for Active; 'I' for Inactive)
REMARK    1  A    between atoms: C_1  and  O_2
REMARK    2  A    between atoms: O_2  and  C_3
REMARK    3  A    between atoms: C_8  and  N_9
REMARK    4  A    between atoms: C_13  and  C_15
REMARK    5  A    between atoms: C_17  and  C_18
REMARK    6  A    between atoms: C_26  and  C_27
REMARK                            x       y       z     vdW  Elec       q    Type
REMARK                         _______ _______ _______ _____ _____    ______ ____
ROOT
ATOM      1  N   UNL     1       3.978   4.060  18.497  0.00  0.00    +0.000 N 
ATOM      2  C   UNL     1       4.821   3.507  17.423  0.00  0.00    +0.000 C 
ATOM      3  C   UNL     1       5.374   4.648  16.542  0.00  0.00    +0.000 C 
ATOM      4  N   UNL     1       5.994   5.717  17.333  0.00  0.00    +0.000 N 
ATOM      5  C   UNL     1       7.044   6.431  16.749  0.00  0.00    +0.000 C 
ATOM      6  O   UNL     1       7.417   6.203  15.598  0.00  0.00    +0.000 OA
ATOM      7  C   UNL     1       5.124   6.222  18.416  0.00  0.00    +0.000 C 
ATOM      8  C   UNL     1       4.654   5.072  19.325  0.00  0.00    +0.000 C 
ENDROOT
BRANCH   5   9
ATOM      9  C   UNL     1       7.718   7.447  17.561  0.00  0.00    +0.000 A 
ATOM     10  C   UNL     1       7.822   8.853  17.322  0.00  0.00    +0.000 A 
ATOM     11  C   UNL     1       8.610   9.422  18.305  0.00  0.00    +0.000 A 
ATOM     12  N   UNL     1       8.855   8.425  19.221  0.00  0.00    +0.000 N 
ATOM     13  C   UNL     1       8.319   7.234  18.796  0.00  0.00    +0.000 A 
ATOM     14  C   UNL     1       8.440   5.999  19.617  0.00  0.00    +0.000 C 
ATOM     15  H   UNL     1       9.352   8.554  20.091  0.00  0.00    +0.000 HD
BRANCH  11  16
ATOM     16  C   UNL     1       9.110  10.789  18.435  0.00  0.00    +0.000 A 
ATOM     17  C   UNL     1      10.120  11.084  19.363  0.00  0.00    +0.000 A 
ATOM     18  C   UNL     1      10.577  12.394  19.530  0.00  0.00    +0.000 A 
ATOM     19  C   UNL     1      10.024  13.419  18.769  0.00  0.00    +0.000 A 
ATOM     20 CL   UNL     1      10.578  15.034  18.978  0.00  0.00    +0.000 Cl
ATOM     21  C   UNL     1       9.019  13.146  17.843  0.00  0.00    +0.000 A 
ATOM     22  C   UNL     1       8.562  11.835  17.680  0.00  0.00    +0.000 A 
ENDBRANCH  11  16
ENDBRANCH   5   9
BRANCH   1  28
ATOM     23  C   UNL     1       2.623   2.749  20.099  0.00  0.00    +0.000 A 
ATOM     24  C   UNL     1       1.370   2.220  20.454  0.00  0.00    +0.000 A 
ATOM     25  C   UNL     1       0.256   2.410  19.640  0.00  0.00    +0.000 A 
ATOM     26  C   UNL     1       0.387   3.111  18.454  0.00  0.00    +0.000 A 
ATOM     27  C   UNL     1       1.633   3.624  18.083  0.00  0.00    +0.000 A 
ATOM     28  C   UNL     1       2.783   3.469  18.883  0.00  0.00    +0.000 A 
BRANCH  23  30
ATOM     29  C   UNL     1       4.643   1.567  20.592  0.00  0.00    +0.000 C 
ATOM     30  O   UNL     1       3.730   2.611  20.908  0.00  0.00    +0.000 OA
ENDBRANCH  23  30
ENDBRANCH   1  28
TORSDOF 4
ENDMDL
MODEL 3
REMARK VINA RESULT:      -8.2      1.200      1.511
REMARK  Name = 
REMARK  6 active torsions:
REMARK  status: ('A' for Active; 'I' for Inactive)
REMARK    1  A    between atoms: C_1  and  O_2
REMARK    2  A    between atoms: O_2  and  C_3
REMARK    3  A    between atoms: C_8  and  N_9
REMARK    4  A    between atoms: C_13  and  C_15
REMARK    5  A    between atoms: C_17  and  C_18
REMARK    6  A    between atoms: C_26  and  C_27
REMARK                            x       y       z     vdW  Elec       q    Type
REMARK                         _______ _______ _______ _____ _____    ______ ____
ROOT
ATOM      1  N   UNL     1       4.073   3.958  18.056  0.00  0.00    +0.000 N 
ATOM      2  C   UNL     1       4.990   3.465  17.015  0.00  0.00    +0.000 C 
ATOM      3  C   UNL     1       5.576   4.652  16.219  0.00  0.00    +0.000 C 
ATOM      4  N   UNL     1       6.126   5.696  17.091  0.00  0.00    +0.000 N 
ATOM      5  C   UNL     1       7.196   6.450  16.604  0.00  0.00    +0.000 C 
ATOM      6  O   UNL     1       7.644   6.278  15.470  0.00  0.00    +0.000 OA
ATOM      7  C   UNL     1       5.181   6.139  18.137  0.00  0.00    +0.000 C 
ATOM      8  C   UNL     1       4.677   4.944  18.966  0.00  0.00    +0.000 C 
ENDROOT
BRANCH   5   9
ATOM      9  C   UNL     1       7.800   7.441  17.498  0.00  0.00    +0.000 A 
ATOM     10  C   UNL     1       7.917   8.854  17.313  0.00  0.00    +0.000 A 
ATOM     11  C   UNL     1       8.622   9.393  18.373  0.00  0.00    +0.000 A 
ATOM     12  N   UNL     1       8.797   8.368  19.273  0.00  0.00    +0.000 N 
ATOM     13  C   UNL     1       8.301   7.190  18.770  0.00  0.00    +0.000 A 
ATOM     14  C   UNL     1       8.361   5.931  19.559  0.00  0.00    +0.000 C 
ATOM     15  H   UNL     1       9.223   8.470  20.184  0.00  0.00    +0.000 HD
BRANCH  11  16
ATOM     16  C   UNL     1       9.105  10.756  18.585  0.00  0.00    +0.000 A 
ATOM     17  C   UNL     1       8.656  11.798  17.761  0.00  0.00    +0.000 A 
ATOM     18  C   UNL     1       9.142  13.098  17.924  0.00  0.00    +0.000 A 
ATOM     19  C   UNL     1      10.085  13.363  18.913  0.00  0.00    +0.000 A 
ATOM     20 CL   UNL     1      10.692  14.960  19.110  0.00  0.00    +0.000 Cl
ATOM     21  C   UNL     1      10.545  12.340  19.740  0.00  0.00    +0.000 A 
ATOM     22  C   UNL     1      10.057  11.040  19.574  0.00  0.00    +0.000 A 
ENDBRANCH  11  16
ENDBRANCH   5   9
BRANCH   1  28
ATOM     23  C   UNL     1       2.774   2.074  18.996  0.00  0.00    +0.000 A 
ATOM     24  C   UNL     1       1.520   1.519  19.302  0.00  0.00    +0.000 A 
ATOM     25  C   UNL     1       0.344   2.199  18.996  0.00  0.00    +0.000 A 
ATOM     26  C   UNL     1       0.409   3.428  18.362  0.00  0.00    +0.000 A 
ATOM     27  C   UNL     1       1.652   3.977  18.036  0.00  0.00    +0.000 A 
ATOM     28  C   UNL     1       2.867   3.331  18.341  0.00  0.00    +0.000 A 
BRANCH  23  30
ATOM     29  C   UNL     1       4.583   1.825  20.542  0.00  0.00    +0.000 C 
ATOM     30  O   UNL     1       3.953   1.439  19.327  0.00  0.00    +0.000 OA
ENDBRANCH  23  30
ENDBRANCH   1  28
TORSDOF 4
ENDMDL
MODEL 4
REMARK VINA RESULT:      -8.1      6.843     10.200
REMARK  Name = 
REMARK  6 active torsions:
REMARK  status: ('A' for Active; 'I' for Inactive)
REMARK    1  A    between atoms: C_1  and  O_2
REMARK    2  A    between atoms: O_2  and  C_3
REMARK    3  A    between atoms: C_8  and  N_9
REMARK    4  A    between atoms: C_13  and  C_15
REMARK    5  A    between atoms: C_17  and  C_18
REMARK    6  A    between atoms: C_26  and  C_27
REMARK                            x       y       z     vdW  Elec       q    Type
REMARK                         _______ _______ _______ _____ _____    ______ ____
ROOT
ATOM      1  N   UNL     1       0.861  14.195  19.979  0.00  0.00    +0.000 N 
ATOM      2  C   UNL     1      -0.532  13.723  19.911  0.00  0.00    +0.000 C 
ATOM      3  C   UNL     1      -0.676  12.647  18.813  0.00  0.00    +0.000 C 
ATOM      4  N   UNL     1       0.335  11.590  18.928  0.00  0.00    +0.000 N 
ATOM      5  C   UNL     1      -0.012  10.310  18.488  0.00  0.00    +0.000 C 
ATOM      6  O   UNL     1      -1.111  10.077  17.986  0.00  0.00    +0.000 OA
ATOM      7  C   UNL     1       1.716  12.110  19.021  0.00  0.00    +0.000 C 
ATOM      8  C   UNL     1       1.846  13.119  20.177  0.00  0.00    +0.000 C 
ENDROOT
BRANCH   5   9
ATOM      9  C   UNL     1       0.964   9.233  18.671  0.00  0.00    +0.000 A 
ATOM     10  C   UNL     1       1.836   8.647  17.702  0.00  0.00    +0.000 A 
ATOM     11  C   UNL     1       2.537   7.612  18.291  0.00  0.00    +0.000 A 
ATOM     12  N   UNL     1       2.230   7.658  19.631  0.00  0.00    +0.000 N 
ATOM     13  C   UNL     1       1.294   8.632  19.880  0.00  0.00    +0.000 A 
ATOM     14  C   UNL     1       0.800   8.889  21.259  0.00  0.00    +0.000 C 
ATOM     15  H   UNL     1       2.643   7.064  20.336  0.00  0.00    +0.000 HD
BRANCH  11  16
ATOM     16  C   UNL     1       3.449   6.636  17.697  0.00  0.00    +0.000 A 
ATOM     17  C   UNL     1       4.576   7.069  16.982  0.00  0.00    +0.000 A 
ATOM     18  C   UNL     1       5.431   6.148  16.372  0.00  0.00    +0.000 A 
ATOM     19  C   UNL     1       5.164   4.786  16.471  0.00  0.00    +0.000 A 
ATOM     20 CL   UNL     1       6.211   3.652  15.714  0.00  0.00    +0.000 Cl
ATOM     21  C   UNL     1       4.048   4.337  17.175  0.00  0.00    +0.000 A 
ATOM     22  C   UNL     1       3.193   5.260  17.783  0.00  0.00    +0.000 A 
ENDBRANCH  11  16
ENDBRANCH   5   9
BRANCH   1  28
ATOM     23  C   UNL     1       1.316  16.149  21.426  0.00  0.00    +0.000 A 
ATOM     24  C   UNL     1       1.699  17.498  21.531  0.00  0.00    +0.000 A 
ATOM     25  C   UNL     1       1.983  18.251  20.395  0.00  0.00    +0.000 A 
ATOM     26  C   UNL     1       1.867  17.671  19.143  0.00  0.00    +0.000 A 
ATOM     27  C   UNL     1       1.468  16.337  19.029  0.00  0.00    +0.000 A 
ATOM     28  C   UNL     1       1.186  15.534  20.152  0.00  0.00    +0.000 A 
BRANCH  23  30
ATOM     29  C   UNL     1      -0.131  15.619  23.255  0.00  0.00    +0.000 C 
ATOM     30  O   UNL     1       1.071  15.372  22.538  0.00  0.00    +0.000 OA
ENDBRANCH  23  30
ENDBRANCH   1  28
TORSDOF 4
ENDMDL
MODEL 5
REMARK VINA RESULT:      -8.1      6.819     10.309
REMARK  Name = 
REMARK  6 active torsions:
REMARK  status: ('A' for Active; 'I' for Inactive)
REMARK    1  A    between atoms: C_1  and  O_2
REMARK    2  A    between atoms: O_2  and  C_3
REMARK    3  A    between atoms: C_8  and  N_9
REMARK    4  A    between atoms: C_13  and  C_15
REMARK    5  A    between atoms: C_17  and  C_18
REMARK    6  A    between atoms: C_26  and  C_27
REMARK                            x       y       z     vdW  Elec       q    Type
REMARK                         _______ _______ _______ _____ _____    ______ ____
ROOT
ATOM      1  N   UNL     1       0.896  14.199  20.345  0.00  0.00    +0.000 N 
ATOM      2  C   UNL     1      -0.502  13.771  20.176  0.00  0.00    +0.000 C 
ATOM      3  C   UNL     1      -0.613  12.767  19.008  0.00  0.00    +0.000 C 
ATOM      4  N   UNL     1       0.364  11.677  19.111  0.00  0.00    +0.000 N 
ATOM      5  C   UNL     1       0.010  10.436  18.577  0.00  0.00    +0.000 C 
ATOM      6  O   UNL     1      -1.066  10.263  18.004  0.00  0.00    +0.000 OA
ATOM      7  C   UNL     1       1.750  12.152  19.308  0.00  0.00    +0.000 C 
ATOM      8  C   UNL     1       1.843  13.087  20.528  0.00  0.00    +0.000 C 
ENDROOT
BRANCH   5   9
ATOM      9  C   UNL     1       0.949   9.323  18.745  0.00  0.00    +0.000 A 
ATOM     10  C   UNL     1       1.828   8.745  17.776  0.00  0.00    +0.000 A 
ATOM     11  C   UNL     1       2.482   7.669  18.345  0.00  0.00    +0.000 A 
ATOM     12  N   UNL     1       2.142   7.677  19.677  0.00  0.00    +0.000 N 
ATOM     13  C   UNL     1       1.229   8.670  19.939  0.00  0.00    +0.000 A 
ATOM     14  C   UNL     1       0.708   8.893  21.314  0.00  0.00    +0.000 C 
ATOM     15  H   UNL     1       2.519   7.045  20.370  0.00  0.00    +0.000 HD
BRANCH  11  16
ATOM     16  C   UNL     1       3.379   6.687  17.738  0.00  0.00    +0.000 A 
ATOM     17  C   UNL     1       4.442   7.111  16.927  0.00  0.00    +0.000 A 
ATOM     18  C   UNL     1       5.280   6.182  16.305  0.00  0.00    +0.000 A 
ATOM     19  C   UNL     1       5.060   4.820  16.490  0.00  0.00    +0.000 A 
ATOM     20 CL   UNL     1       6.085   3.675  15.719  0.00  0.00    +0.000 Cl
ATOM     21  C   UNL     1       4.008   4.380  17.291  0.00  0.00    +0.000 A 
ATOM     22  C   UNL     1       3.169   5.311  17.910  0.00  0.00    +0.000 A 
ENDBRANCH  11  16
ENDBRANCH   5   9
BRANCH   1  28
ATOM     23  C   UNL     1       1.795  16.395  19.644  0.00  0.00    +0.000 A 
ATOM     24  C   UNL     1       2.076  17.733  19.971  0.00  0.00    +0.000 A 
ATOM     25  C   UNL     1       1.797  18.233  21.240  0.00  0.00    +0.000 A 
ATOM     26  C   UNL     1       1.256  17.397  22.201  0.00  0.00    +0.000 A 
ATOM     27  C   UNL     1       0.992  16.060  21.891  0.00  0.00    +0.000 A 
ATOM     28  C   UNL     1       1.244  15.516  20.616  0.00  0.00    +0.000 A 
BRANCH  23  30
ATOM     29  C   UNL     1       3.251  16.231  17.754  0.00  0.00    +0.000 C 
ATOM     30  O   UNL     1       2.023  15.889  18.382  0.00  0.00    +0.000 OA
ENDBRANCH  23  30
ENDBRANCH   1  28
TORSDOF 4
ENDMDL
MODEL 6
REMARK VINA RESULT:      -8.0      7.033      9.848
REMARK  Name = 
REMARK  6 active torsions:
REMARK  status: ('A' for Active; 'I' for Inactive)
REMARK    1  A    between atoms: C_1  and  O_2
REMARK    2  A    between atoms: O_2  and  C_3
REMARK    3  A    between atoms: C_8  and  N_9
REMARK    4  A    between atoms: C_13  and  C_15
REMARK    5  A    between atoms: C_17  and  C_18
REMARK    6  A    between atoms: C_26  and  C_27
REMARK                            x       y       z     vdW  Elec       q    Type
REMARK                         _______ _______ _______ _____ _____    ______ ____
ROOT
ATOM      1  N   UNL     1      -2.922  11.344  18.216  0.00  0.00    +0.000 N 
ATOM      2  C   UNL     1      -1.882  12.046  17.447  0.00  0.00    +0.000 C 
ATOM      3  C   UNL     1      -0.559  12.071  18.242  0.00  0.00    +0.000 C 
ATOM      4  N   UNL     1      -0.177  10.744  18.739  0.00  0.00    +0.000 N 
ATOM      5  C   UNL     1       1.186  10.472  18.881  0.00  0.00    +0.000 C 
ATOM      6  O   UNL     1       2.042  11.321  18.637  0.00  0.00    +0.000 OA
ATOM      7  C   UNL     1      -1.261  10.065  19.481  0.00  0.00    +0.000 C 
ATOM      8  C   UNL     1      -2.542   9.984  18.631  0.00  0.00    +0.000 C 
ENDROOT
BRANCH   5   9
ATOM      9  C   UNL     1       1.575   9.124  19.302  0.00  0.00    +0.000 A 
ATOM     10  C   UNL     1       2.125   8.067  18.512  0.00  0.00    +0.000 A 
ATOM     11  C   UNL     1       2.274   6.942  19.300  0.00  0.00    +0.000 A 
ATOM     12  N   UNL     1       1.979   7.335  20.585  0.00  0.00    +0.000 N 
ATOM     13  C   UNL     1       1.566   8.645  20.607  0.00  0.00    +0.000 A 
ATOM     14  C   UNL     1       1.197   9.314  21.884  0.00  0.00    +0.000 C 
ATOM     15  H   UNL     1       2.063   6.745  21.400  0.00  0.00    +0.000 HD
BRANCH  11  16
ATOM     16  C   UNL     1       2.674   5.584  18.936  0.00  0.00    +0.000 A 
ATOM     17  C   UNL     1       1.880   4.826  18.063  0.00  0.00    +0.000 A 
ATOM     18  C   UNL     1       2.227   3.512  17.741  0.00  0.00    +0.000 A 
ATOM     19  C   UNL     1       3.372   2.945  18.291  0.00  0.00    +0.000 A 
ATOM     20 CL   UNL     1       3.797   1.325  17.903  0.00  0.00    +0.000 Cl
ATOM     21  C   UNL     1       4.173   3.682  19.162  0.00  0.00    +0.000 A 
ATOM     22  C   UNL     1       3.823   4.996  19.484  0.00  0.00    +0.000 A 
ENDBRANCH  11  16
ENDBRANCH   5   9
BRANCH   1  28
ATOM     23  C   UNL     1      -4.805  12.387  19.436  0.00  0.00    +0.000 A 
ATOM     24  C   UNL     1      -6.125  12.870  19.413  0.00  0.00    +0.000 A 
ATOM     25  C   UNL     1      -6.891  12.802  18.253  0.00  0.00    +0.000 A 
ATOM     26  C   UNL     1      -6.355  12.233  17.110  0.00  0.00    +0.000 A 
ATOM     27  C   UNL     1      -5.050  11.733  17.130  0.00  0.00    +0.000 A 
ATOM     28  C   UNL     1      -4.234  11.794  18.277  0.00  0.00    +0.000 A 
BRANCH  23  30
ATOM     29  C   UNL     1      -3.521  13.768  20.907  0.00  0.00    +0.000 C 
ATOM     30  O   UNL     1      -4.013  12.480  20.560  0.00  0.00    +0.000 OA
ENDBRANCH  23  30
ENDBRANCH   1  28
TORSDOF 4
ENDMDL
MODEL 7
REMARK VINA RESULT:      -7.9      7.544     10.109
REMARK  Name = 
REMARK  6 active torsions:
REMARK  status: ('A' for Active; 'I' for Inactive)
REMARK    1  A    between atoms: C_1  and  O_2
REMARK    2  A    between atoms: O_2  and  C_3
REMARK    3  A    between atoms: C_8  and  N_9
REMARK    4  A    between atoms: C_13  and  C_15
REMARK    5  A    between atoms: C_17  and  C_18
REMARK    6  A    between atoms: C_26  and  C_27
REMARK                            x       y       z     vdW  Elec       q    Type
REMARK                         _______ _______ _______ _____ _____    ______ ____
ROOT
ATOM      1  N   UNL     1      -3.629  12.168  19.257  0.00  0.00    +0.000 N 
ATOM      2  C   UNL     1      -2.866  12.990  20.211  0.00  0.00    +0.000 C 
ATOM      3  C   UNL     1      -1.838  12.115  20.962  0.00  0.00    +0.000 C 
ATOM      4  N   UNL     1      -1.025  11.299  20.052  0.00  0.00    +0.000 N 
ATOM      5  C   UNL     1       0.278  10.988  20.449  0.00  0.00    +0.000 C 
ATOM      6  O   UNL     1       0.723  11.348  21.539  0.00  0.00    +0.000 OA
ATOM      7  C   UNL     1      -1.832  10.514  19.095  0.00  0.00    +0.000 C 
ATOM      8  C   UNL     1      -2.789  11.424  18.304  0.00  0.00    +0.000 C 
ENDROOT
BRANCH   5   9
ATOM      9  C   UNL     1       1.120  10.239  19.513  0.00  0.00    +0.000 A 
ATOM     10  C   UNL     1       1.309   8.825  19.418  0.00  0.00    +0.000 A 
ATOM     11  C   UNL     1       2.247   8.558  18.439  0.00  0.00    +0.000 A 
ATOM     12  N   UNL     1       2.514   9.762  17.830  0.00  0.00    +0.000 N 
ATOM     13  C   UNL     1       1.839  10.782  18.454  0.00  0.00    +0.000 A 
ATOM     14  C   UNL     1       1.954  12.186  17.977  0.00  0.00    +0.000 C 
ATOM     15  H   UNL     1       3.117   9.878  17.027  0.00  0.00    +0.000 HD
BRANCH  11  16
ATOM     16  C   UNL     1       2.867   7.293  18.051  0.00  0.00    +0.000 A 
ATOM     17  C   UNL     1       4.102   7.289  17.386  0.00  0.00    +0.000 A 
ATOM     18  C   UNL     1       4.685   6.089  16.970  0.00  0.00    +0.000 A 
ATOM     19  C   UNL     1       4.035   4.884  17.216  0.00  0.00    +0.000 A 
ATOM     20 CL   UNL     1       4.746   3.407  16.697  0.00  0.00    +0.000 Cl
ATOM     21  C   UNL     1       2.806   4.868  17.873  0.00  0.00    +0.000 A 
ATOM     22  C   UNL     1       2.224   6.070  18.287  0.00  0.00    +0.000 A 
ENDBRANCH  11  16
ENDBRANCH   5   9
BRANCH   1  28
ATOM     23  C   UNL     1      -5.936  12.308  20.140  0.00  0.00    +0.000 A 
ATOM     24  C   UNL     1      -7.303  12.519  19.890  0.00  0.00    +0.000 A 
ATOM     25  C   UNL     1      -7.763  12.770  18.600  0.00  0.00    +0.000 A 
ATOM     26  C   UNL     1      -6.866  12.791  17.545  0.00  0.00    +0.000 A 
ATOM     27  C   UNL     1      -5.508  12.562  17.783  0.00  0.00    +0.000 A 
ATOM     28  C   UNL     1      -4.997  12.320  19.073  0.00  0.00    +0.000 A 
BRANCH  23  30
ATOM     29  C   UNL     1      -5.794  13.056  22.408  0.00  0.00    +0.000 C 
ATOM     30  O   UNL     1      -5.451  12.099  21.414  0.00  0.00    +0.000 OA
ENDBRANCH  23  30
ENDBRANCH   1  28
TORSDOF 4
ENDMDL
MODEL 8
REMARK VINA RESULT:      -7.9      4.885      7.675
REMARK  Name = 
REMARK  6 active torsions:
REMARK  status: ('A' for Active; 'I' for Inactive)
REMARK    1  A    between atoms: C_1  and  O_2
REMARK    2  A    between atoms: O_2  and  C_3
REMARK    3  A    between atoms: C_8  and  N_9
REMARK    4  A    between atoms: C_13  and  C_15
REMARK    5  A    between atoms: C_17  and  C_18
REMARK    6  A    between atoms: C_26  and  C_27
REMARK                            x       y       z     vdW  Elec       q    Type
REMARK                         _______ _______ _______ _____ _____    ______ ____
ROOT
ATOM      1  N   UNL     1       1.063   9.273  19.357  0.00  0.00    +0.000 N 
ATOM      2  C   UNL     1       1.333   8.873  20.748  0.00  0.00    +0.000 C 
ATOM      3  C   UNL     1       1.303   7.335  20.873  0.00  0.00    +0.000 C 
ATOM      4  N   UNL     1       2.134   6.672  19.862  0.00  0.00    +0.000 N 
ATOM      5  C   UNL     1       2.715   5.447  20.200  0.00  0.00    +0.000 C 
ATOM      6  O   UNL     1       2.511   4.916  21.292  0.00  0.00    +0.000 OA
ATOM      7  C   UNL     1       1.849   7.125  18.484  0.00  0.00    +0.000 C 
ATOM      8  C   UNL     1       1.966   8.656  18.372  0.00  0.00    +0.000 C 
ENDROOT
BRANCH   5   9
ATOM      9  C   UNL     1       3.609   4.819  19.224  0.00  0.00    +0.000 A 
ATOM     10  C   UNL     1       4.247   5.411  18.090  0.00  0.00    +0.000 A 
ATOM     11  C   UNL     1       4.943   4.436  17.402  0.00  0.00    +0.000 A 
ATOM     12  N   UNL     1       4.874   3.301  18.176  0.00  0.00    +0.000 N 
ATOM     13  C   UNL     1       4.085   3.514  19.280  0.00  0.00    +0.000 A 
ATOM     14  C   UNL     1       3.859   2.440  20.283  0.00  0.00    +0.000 C 
ATOM     15  H   UNL     1       5.347   2.433  17.966  0.00  0.00    +0.000 HD
BRANCH  11  16
ATOM     16  C   UNL     1       5.650   4.509  16.124  0.00  0.00    +0.000 A 
ATOM     17  C   UNL     1       6.800   5.303  16.000  0.00  0.00    +0.000 A 
ATOM     18  C   UNL     1       7.460   5.417  14.774  0.00  0.00    +0.000 A 
ATOM     19  C   UNL     1       6.972   4.738  13.662  0.00  0.00    +0.000 A 
ATOM     20 CL   UNL     1       7.777   4.884  12.149  0.00  0.00    +0.000 Cl
ATOM     21  C   UNL     1       5.830   3.947  13.765  0.00  0.00    +0.000 A 
ATOM     22  C   UNL     1       5.170   3.835  14.992  0.00  0.00    +0.000 A 
ENDBRANCH  11  16
ENDBRANCH   5   9
BRANCH   1  28
ATOM     23  C   UNL     1       0.741  11.674  18.856  0.00  0.00    +0.000 A 
ATOM     24  C   UNL     1      -0.129  12.713  18.482  0.00  0.00    +0.000 A 
ATOM     25  C   UNL     1      -1.481  12.467  18.256  0.00  0.00    +0.000 A 
ATOM     26  C   UNL     1      -1.981  11.186  18.422  0.00  0.00    +0.000 A 
ATOM     27  C   UNL     1      -1.126  10.152  18.813  0.00  0.00    +0.000 A 
ATOM     28  C   UNL     1       0.250  10.353  19.037  0.00  0.00    +0.000 A 
BRANCH  23  30
ATOM     29  C   UNL     1       2.692  12.950  18.320  0.00  0.00    +0.000 C 
ATOM     30  O   UNL     1       2.090  11.885  19.045  0.00  0.00    +0.000 OA
ENDBRANCH  23  30
ENDBRANCH   1  28
TORSDOF 4
ENDMDL
MODEL 9
REMARK VINA RESULT:      -7.9      5.165      7.879
REMARK  Name = 
REMARK  6 active torsions:
REMARK  status: ('A' for Active; 'I' for Inactive)
REMARK    1  A    between atoms: C_1  and  O_2
REMARK    2  A    between atoms: O_2  and  C_3
REMARK    3  A    between atoms: C_8  and  N_9
REMARK    4  A    between atoms: C_13  and  C_15
REMARK    5  A    between atoms: C_17  and  C_18
REMARK    6  A    between atoms: C_26  and  C_27
REMARK                            x       y       z     vdW  Elec       q    Type
REMARK                         _______ _______ _______ _____ _____    ______ ____
ROOT
ATOM      1  N   UNL     1       1.396   9.755  19.189  0.00  0.00    +0.000 N 
ATOM      2  C   UNL     1       1.511   9.281  20.578  0.00  0.00    +0.000 C 
ATOM      3  C   UNL     1       1.288   7.755  20.639  0.00  0.00    +0.000 C 
ATOM      4  N   UNL     1       2.108   7.028  19.663  0.00  0.00    +0.000 N 
ATOM      5  C   UNL     1       2.512   5.732  19.992  0.00  0.00    +0.000 C 
ATOM      6  O   UNL     1       2.164   5.195  21.044  0.00  0.00    +0.000 OA
ATOM      7  C   UNL     1       1.983   7.555  18.288  0.00  0.00    +0.000 C 
ATOM      8  C   UNL     1       2.290   9.063  18.246  0.00  0.00    +0.000 C 
ENDROOT
BRANCH   5   9
ATOM      9  C   UNL     1       3.394   5.030  19.056  0.00  0.00    +0.000 A 
ATOM     10  C   UNL     1       4.073   5.550  17.911  0.00  0.00    +0.000 A 
ATOM     11  C   UNL     1       4.740   4.522  17.274  0.00  0.00    +0.000 A 
ATOM     12  N   UNL     1       4.614   3.422  18.090  0.00  0.00    +0.000 N 
ATOM     13  C   UNL     1       3.817   3.711  19.171  0.00  0.00    +0.000 A 
ATOM     14  C   UNL     1       3.532   2.687  20.212  0.00  0.00    +0.000 C 
ATOM     15  H   UNL     1       5.054   2.528  17.923  0.00  0.00    +0.000 HD
BRANCH  11  16
ATOM     16  C   UNL     1       5.469   4.516  16.006  0.00  0.00    +0.000 A 
ATOM     17  C   UNL     1       6.700   5.180  15.899  0.00  0.00    +0.000 A 
ATOM     18  C   UNL     1       7.386   5.220  14.683  0.00  0.00    +0.000 A 
ATOM     19  C   UNL     1       6.844   4.597  13.563  0.00  0.00    +0.000 A 
ATOM     20 CL   UNL     1       7.682   4.652  12.063  0.00  0.00    +0.000 Cl
ATOM     21  C   UNL     1       5.621   3.934  13.650  0.00  0.00    +0.000 A 
ATOM     22  C   UNL     1       4.935   3.897  14.868  0.00  0.00    +0.000 A 
ENDBRANCH  11  16
ENDBRANCH   5   9
BRANCH   1  28
ATOM     23  C   UNL     1      -0.626  10.994  18.485  0.00  0.00    +0.000 A 
ATOM     24  C   UNL     1      -1.239  12.229  18.212  0.00  0.00    +0.000 A 
ATOM     25  C   UNL     1      -0.527  13.421  18.324  0.00  0.00    +0.000 A 
ATOM     26  C   UNL     1       0.809  13.389  18.689  0.00  0.00    +0.000 A 
ATOM     27  C   UNL     1       1.430  12.163  18.943  0.00  0.00    +0.000 A 
ATOM     28  C   UNL     1       0.744  10.935  18.857  0.00  0.00    +0.000 A 
BRANCH  23  30
ATOM     29  C   UNL     1      -2.575   9.817  17.752  0.00  0.00    +0.000 C 
ATOM     30  O   UNL     1      -1.321   9.805  18.422  0.00  0.00    +0.000 OA
ENDBRANCH  23  30
ENDBRANCH   1  28
TORSDOF 4
ENDMDL
