MODEL 1
REMARK VINA RESULT:      -7.6      0.000      0.000
REMARK  Name = 
REMARK  3 active torsions:
REMARK  status: ('A' for Active; 'I' for Inactive)
REMARK    1  A    between atoms: C_2  and  O_3
REMARK    2  A    between atoms: C_2  and  C_4
REMARK    3  A    between atoms: C_9  and  N_10
REMARK                            x       y       z     vdW  Elec       q    Type
REMARK                         _______ _______ _______ _____ _____    ______ ____
ROOT
ATOM      1  C   UNL     1       3.851   3.782  19.074  0.00  0.00    +0.000 A 
ATOM      2  C   UNL     1       4.275   4.473  18.000  0.00  0.00    +0.000 A 
ATOM      3  N   UNL     1       3.991   5.710  17.720  0.00  0.00    +0.000 N 
ATOM      4  C   UNL     1       3.138   6.515  18.479  0.00  0.00    +0.000 A 
ATOM      5  C   UNL     1       2.745   7.794  18.088  0.00  0.00    +0.000 A 
ATOM      6  C   UNL     1       1.876   8.570  18.872  0.00  0.00    +0.000 A 
ATOM      7  C   UNL     1       1.468   8.020  20.108  0.00  0.00    +0.000 A 
ATOM      8  F   UNL     1       0.626   8.697  20.904  0.00  0.00    +0.000 F 
ATOM      9  C   UNL     1       1.839   6.738  20.516  0.00  0.00    +0.000 A 
ATOM     10  C   UNL     1       2.650   5.980  19.682  0.00  0.00    +0.000 A 
ATOM     11  C   UNL     1       2.978   4.558  20.006  0.00  0.00    +0.000 A 
ATOM     12  O   UNL     1       2.500   4.011  20.995  0.00  0.00    +0.000 OA
ATOM     13  C   UNL     1       4.634   5.845  16.466  0.00  0.00    +0.000 C 
ATOM     14  S   UNL     1       5.230   4.147  16.606  0.00  0.00    +0.000 S 
ENDROOT
BRANCH   6  15
ATOM     15  N   UNL     1       1.422   9.788  18.410  0.00  0.00    +0.000 N 
ATOM     16  C   UNL     1       0.004  10.047  18.118  0.00  0.00    +0.000 C 
ATOM     17  C   UNL     1      -0.420  11.395  18.747  0.00  0.00    +0.000 C 
ATOM     18  N   UNL     1       0.441  12.530  18.361  0.00  0.00    +0.000 NA
ATOM     19  C   UNL     1       1.853  12.208  18.659  0.00  0.00    +0.000 C 
ATOM     20  C   UNL     1       2.329  10.880  18.029  0.00  0.00    +0.000 C 
ATOM     21  H   UNL     1       0.170  13.348  18.905  0.00  0.00    +0.000 HD
ENDBRANCH   6  15
BRANCH   1  23
ATOM     22  O   UNL     1       3.710   1.434  18.643  0.00  0.00    +0.000 OA
ATOM     23  C   UNL     1       4.198   2.365  19.261  0.00  0.00    +0.000 C 
BRANCH  23  24
ATOM     24  O   UNL     1       5.127   2.157  20.226  0.00  0.00    +0.000 OA
ATOM     25  H   UNL     1       5.558   1.268  20.199  0.00  0.00    +0.000 HD
ENDBRANCH  23  24
ENDBRANCH   1  23
TORSDOF 3
ENDMDL
MODEL 2
REMARK VINA RESULT:      -7.3      0.933      1.045
REMARK  Name = 
REMARK  3 active torsions:
REMARK  status: ('A' for Active; 'I' for Inactive)
REMARK    1  A    between atoms: C_2  and  O_3
REMARK    2  A    between atoms: C_2  and  C_4
REMARK    3  A    between atoms: C_9  and  N_10
REMARK                            x       y       z     vdW  Elec       q    Type
REMARK                         _______ _______ _______ _____ _____    ______ ____
ROOT
ATOM      1  C   UNL     1       3.687   3.725  19.129  0.00  0.00    +0.000 A 
ATOM      2  C   UNL     1       4.085   4.594  18.182  0.00  0.00    +0.000 A 
ATOM      3  N   UNL     1       3.747   5.846  18.095  0.00  0.00    +0.000 N 
ATOM      4  C   UNL     1       2.853   6.483  18.958  0.00  0.00    +0.000 A 
ATOM      5  C   UNL     1       2.403   7.789  18.766  0.00  0.00    +0.000 A 
ATOM      6  C   UNL     1       1.494   8.394  19.650  0.00  0.00    +0.000 A 
ATOM      7  C   UNL     1       1.104   7.640  20.779  0.00  0.00    +0.000 A 
ATOM      8  F   UNL     1       0.226   8.145  21.660  0.00  0.00    +0.000 F 
ATOM      9  C   UNL     1       1.531   6.328  20.988  0.00  0.00    +0.000 A 
ATOM     10  C   UNL     1       2.382   5.745  20.057  0.00  0.00    +0.000 A 
ATOM     11  C   UNL     1       2.773   4.306  20.159  0.00  0.00    +0.000 A 
ATOM     12  O   UNL     1       2.314   3.591  21.045  0.00  0.00    +0.000 OA
ATOM     13  C   UNL     1       4.390   6.204  16.886  0.00  0.00    +0.000 C 
ATOM     14  S   UNL     1       5.063   4.533  16.767  0.00  0.00    +0.000 S 
ENDROOT
BRANCH   6  15
ATOM     15  N   UNL     1       0.987   9.647  19.377  0.00  0.00    +0.000 N 
ATOM     16  C   UNL     1       0.369   9.989  18.087  0.00  0.00    +0.000 C 
ATOM     17  C   UNL     1      -0.965  10.733  18.329  0.00  0.00    +0.000 C 
ATOM     18  N   UNL     1      -0.840  11.909  19.212  0.00  0.00    +0.000 NA
ATOM     19  C   UNL     1      -0.198  11.511  20.483  0.00  0.00    +0.000 C 
ATOM     20  C   UNL     1       1.153  10.786  20.291  0.00  0.00    +0.000 C 
ATOM     21  H   UNL     1      -1.772  12.269  19.415  0.00  0.00    +0.000 HD
ENDBRANCH   6  15
BRANCH   1  23
ATOM     22  O   UNL     1       3.658   1.470  18.335  0.00  0.00    +0.000 OA
ATOM     23  C   UNL     1       4.097   2.314  19.098  0.00  0.00    +0.000 C 
BRANCH  23  24
ATOM     24  O   UNL     1       5.027   1.999  20.033  0.00  0.00    +0.000 OA
ATOM     25  H   UNL     1       5.819   2.592  20.044  0.00  0.00    +0.000 HD
ENDBRANCH  23  24
ENDBRANCH   1  23
TORSDOF 3
ENDMDL
MODEL 3
REMARK VINA RESULT:      -7.2      4.284      7.493
REMARK  Name = 
REMARK  3 active torsions:
REMARK  status: ('A' for Active; 'I' for Inactive)
REMARK    1  A    between atoms: C_2  and  O_3
REMARK    2  A    between atoms: C_2  and  C_4
REMARK    3  A    between atoms: C_9  and  N_10
REMARK                            x       y       z     vdW  Elec       q    Type
REMARK                         _______ _______ _______ _____ _____    ______ ____
ROOT
ATOM      1  C   UNL     1       1.078  10.765  19.406  0.00  0.00    +0.000 A 
ATOM      2  C   UNL     1       0.717  10.095  20.515  0.00  0.00    +0.000 A 
ATOM      3  N   UNL     1       0.967   8.846  20.776  0.00  0.00    +0.000 N 
ATOM      4  C   UNL     1       1.616   7.973  19.900  0.00  0.00    +0.000 A 
ATOM      5  C   UNL     1       1.756   6.608  20.146  0.00  0.00    +0.000 A 
ATOM      6  C   UNL     1       2.405   5.757  19.236  0.00  0.00    +0.000 A 
ATOM      7  C   UNL     1       2.967   6.359  18.088  0.00  0.00    +0.000 A 
ATOM      8  F   UNL     1       3.589   5.609  17.166  0.00  0.00    +0.000 F 
ATOM      9  C   UNL     1       2.831   7.721  17.814  0.00  0.00    +0.000 A 
ATOM     10  C   UNL     1       2.128   8.516  18.710  0.00  0.00    +0.000 A 
ATOM     11  C   UNL     1       1.843   9.953  18.411  0.00  0.00    +0.000 A 
ATOM     12  O   UNL     1       2.184  10.453  17.344  0.00  0.00    +0.000 OA
ATOM     13  C   UNL     1       0.287   8.698  22.008  0.00  0.00    +0.000 C 
ATOM     14  S   UNL     1      -0.171  10.444  21.948  0.00  0.00    +0.000 S 
ENDROOT
BRANCH   6  15
ATOM     15  N   UNL     1       2.435   4.396  19.456  0.00  0.00    +0.000 N 
ATOM     16  C   UNL     1       1.222   3.608  19.722  0.00  0.00    +0.000 C 
ATOM     17  C   UNL     1       1.225   2.333  18.847  0.00  0.00    +0.000 C 
ATOM     18  N   UNL     1       2.451   1.522  18.978  0.00  0.00    +0.000 NA
ATOM     19  C   UNL     1       3.636   2.367  18.717  0.00  0.00    +0.000 C 
ATOM     20  C   UNL     1       3.690   3.641  19.589  0.00  0.00    +0.000 C 
ATOM     21  H   UNL     1       2.425   0.773  18.288  0.00  0.00    +0.000 HD
ENDBRANCH   6  15
BRANCH   1  23
ATOM     22  O   UNL     1       0.997  13.097  19.928  0.00  0.00    +0.000 OA
ATOM     23  C   UNL     1       0.694  12.169  19.198  0.00  0.00    +0.000 C 
BRANCH  23  24
ATOM     24  O   UNL     1      -0.071  12.364  18.095  0.00  0.00    +0.000 OA
ATOM     25  H   UNL     1       0.320  12.018  17.255  0.00  0.00    +0.000 HD
ENDBRANCH  23  24
ENDBRANCH   1  23
TORSDOF 3
ENDMDL
MODEL 4
REMARK VINA RESULT:      -7.2      2.622      3.335
REMARK  Name = 
REMARK  3 active torsions:
REMARK  status: ('A' for Active; 'I' for Inactive)
REMARK    1  A    between atoms: C_2  and  O_3
REMARK    2  A    between atoms: C_2  and  C_4
REMARK    3  A    between atoms: C_9  and  N_10
REMARK                            x       y       z     vdW  Elec       q    Type
REMARK                         _______ _______ _______ _____ _____    ______ ____
ROOT
ATOM      1  C   UNL     1       4.359   4.976  18.038  0.00  0.00    +0.000 A 
ATOM      2  C   UNL     1       3.664   4.533  19.101  0.00  0.00    +0.000 A 
ATOM      3  N   UNL     1       2.745   5.187  19.747  0.00  0.00    +0.000 N 
ATOM      4  C   UNL     1       2.367   6.502  19.465  0.00  0.00    +0.000 A 
ATOM      5  C   UNL     1       1.474   7.227  20.253  0.00  0.00    +0.000 A 
ATOM      6  C   UNL     1       1.127   8.552  19.944  0.00  0.00    +0.000 A 
ATOM      7  C   UNL     1       1.674   9.097  18.762  0.00  0.00    +0.000 A 
ATOM      8  F   UNL     1       1.400  10.363  18.410  0.00  0.00    +0.000 F 
ATOM      9  C   UNL     1       2.578   8.396  17.962  0.00  0.00    +0.000 A 
ATOM     10  C   UNL     1       2.943   7.109  18.337  0.00  0.00    +0.000 A 
ATOM     11  C   UNL     1       3.999   6.356  17.592  0.00  0.00    +0.000 A 
ATOM     12  O   UNL     1       4.601   6.876  16.659  0.00  0.00    +0.000 OA
ATOM     13  C   UNL     1       2.451   4.266  20.781  0.00  0.00    +0.000 C 
ATOM     14  S   UNL     1       3.640   3.109  20.069  0.00  0.00    +0.000 S 
ENDROOT
BRANCH   6  15
ATOM     15  N   UNL     1       0.324   9.278  20.800  0.00  0.00    +0.000 N 
ATOM     16  C   UNL     1      -0.236   8.710  22.035  0.00  0.00    +0.000 C 
ATOM     17  C   UNL     1      -0.018   9.695  23.208  0.00  0.00    +0.000 C 
ATOM     18  N   UNL     1      -0.525  11.057  22.945  0.00  0.00    +0.000 NA
ATOM     19  C   UNL     1       0.056  11.569  21.685  0.00  0.00    +0.000 C 
ATOM     20  C   UNL     1      -0.160  10.628  20.479  0.00  0.00    +0.000 C 
ATOM     21  H   UNL     1      -0.239  11.667  23.709  0.00  0.00    +0.000 HD
ENDBRANCH   6  15
BRANCH   1  23
ATOM     22  O   UNL     1       5.338   3.624  16.326  0.00  0.00    +0.000 OA
ATOM     23  C   UNL     1       5.415   4.163  17.417  0.00  0.00    +0.000 C 
BRANCH  23  24
ATOM     24  O   UNL     1       6.523   4.033  18.188  0.00  0.00    +0.000 OA
ATOM     25  H   UNL     1       6.343   3.819  19.137  0.00  0.00    +0.000 HD
ENDBRANCH  23  24
ENDBRANCH   1  23
TORSDOF 3
ENDMDL
MODEL 5
REMARK VINA RESULT:      -7.2      2.625      3.436
REMARK  Name = 
REMARK  3 active torsions:
REMARK  status: ('A' for Active; 'I' for Inactive)
REMARK    1  A    between atoms: C_2  and  O_3
REMARK    2  A    between atoms: C_2  and  C_4
REMARK    3  A    between atoms: C_9  and  N_10
REMARK                            x       y       z     vdW  Elec       q    Type
REMARK                         _______ _______ _______ _____ _____    ______ ____
ROOT
ATOM      1  C   UNL     1       5.191   4.983  17.345  0.00  0.00    +0.000 A 
ATOM      2  C   UNL     1       4.531   4.481  18.405  0.00  0.00    +0.000 A 
ATOM      3  N   UNL     1       3.582   5.068  19.070  0.00  0.00    +0.000 N 
ATOM      4  C   UNL     1       3.128   6.365  18.817  0.00  0.00    +0.000 A 
ATOM      5  C   UNL     1       2.202   7.022  19.626  0.00  0.00    +0.000 A 
ATOM      6  C   UNL     1       1.776   8.331  19.346  0.00  0.00    +0.000 A 
ATOM      7  C   UNL     1       2.281   8.929  18.170  0.00  0.00    +0.000 A 
ATOM      8  F   UNL     1       1.932  10.184  17.845  0.00  0.00    +0.000 F 
ATOM      9  C   UNL     1       3.217   8.297  17.351  0.00  0.00    +0.000 A 
ATOM     10  C   UNL     1       3.658   7.026  17.697  0.00  0.00    +0.000 A 
ATOM     11  C   UNL     1       4.748   6.349  16.930  0.00  0.00    +0.000 A 
ATOM     12  O   UNL     1       5.312   6.920  16.002  0.00  0.00    +0.000 OA
ATOM     13  C   UNL     1       3.350   4.113  20.088  0.00  0.00    +0.000 C 
ATOM     14  S   UNL     1       4.597   3.040  19.345  0.00  0.00    +0.000 S 
ENDROOT
BRANCH   6  15
ATOM     15  N   UNL     1       0.941   8.993  20.222  0.00  0.00    +0.000 N 
ATOM     16  C   UNL     1       0.517   8.414  21.505  0.00  0.00    +0.000 C 
ATOM     17  C   UNL     1       0.681   9.462  22.631  0.00  0.00    +0.000 C 
ATOM     18  N   UNL     1       0.006  10.746  22.353  0.00  0.00    +0.000 NA
ATOM     19  C   UNL     1       0.456  11.271  21.046  0.00  0.00    +0.000 C 
ATOM     20  C   UNL     1       0.287  10.266  19.885  0.00  0.00    +0.000 C 
ATOM     21  H   UNL     1       0.259  11.414  23.079  0.00  0.00    +0.000 HD
ENDBRANCH   6  15
BRANCH   1  23
ATOM     22  O   UNL     1       7.473   4.489  16.831  0.00  0.00    +0.000 OA
ATOM     23  C   UNL     1       6.285   4.243  16.701  0.00  0.00    +0.000 C 
BRANCH  23  24
ATOM     24  O   UNL     1       5.861   3.235  15.900  0.00  0.00    +0.000 OA
ATOM     25  H   UNL     1       5.993   2.329  16.273  0.00  0.00    +0.000 HD
ENDBRANCH  23  24
ENDBRANCH   1  23
TORSDOF 3
ENDMDL
MODEL 6
REMARK VINA RESULT:      -7.2      4.197      7.409
REMARK  Name = 
REMARK  3 active torsions:
REMARK  status: ('A' for Active; 'I' for Inactive)
REMARK    1  A    between atoms: C_2  and  O_3
REMARK    2  A    between atoms: C_2  and  C_4
REMARK    3  A    between atoms: C_9  and  N_10
REMARK                            x       y       z     vdW  Elec       q    Type
REMARK                         _______ _______ _______ _____ _____    ______ ____
ROOT
ATOM      1  C   UNL     1       1.054  10.083  19.313  0.00  0.00    +0.000 A 
ATOM      2  C   UNL     1       0.888   9.168  20.285  0.00  0.00    +0.000 A 
ATOM      3  N   UNL     1       1.440   7.992  20.338  0.00  0.00    +0.000 N 
ATOM      4  C   UNL     1       2.266   7.464  19.343  0.00  0.00    +0.000 A 
ATOM      5  C   UNL     1       2.738   6.152  19.359  0.00  0.00    +0.000 A 
ATOM      6  C   UNL     1       3.558   5.651  18.334  0.00  0.00    +0.000 A 
ATOM      7  C   UNL     1       3.935   6.557  17.317  0.00  0.00    +0.000 A 
ATOM      8  F   UNL     1       4.704   6.147  16.297  0.00  0.00    +0.000 F 
ATOM      9  C   UNL     1       3.466   7.871  17.273  0.00  0.00    +0.000 A 
ATOM     10  C   UNL     1       2.607   8.308  18.274  0.00  0.00    +0.000 A 
ATOM     11  C   UNL     1       1.975   9.661  18.215  0.00  0.00    +0.000 A 
ATOM     12  O   UNL     1       2.164  10.402  17.255  0.00  0.00    +0.000 OA
ATOM     13  C   UNL     1       0.840   7.477  21.512  0.00  0.00    +0.000 C 
ATOM     14  S   UNL     1      -0.031   9.043  21.736  0.00  0.00    +0.000 S 
ENDROOT
BRANCH   6  15
ATOM     15  N   UNL     1       3.923   4.321  18.323  0.00  0.00    +0.000 N 
ATOM     16  C   UNL     1       4.917   3.763  19.252  0.00  0.00    +0.000 C 
ATOM     17  C   UNL     1       4.378   2.450  19.865  0.00  0.00    +0.000 C 
ATOM     18  N   UNL     1       3.940   1.459  18.863  0.00  0.00    +0.000 NA
ATOM     19  C   UNL     1       2.958   2.078  17.947  0.00  0.00    +0.000 C 
ATOM     20  C   UNL     1       3.464   3.382  17.290  0.00  0.00    +0.000 C 
ATOM     21  H   UNL     1       3.493   0.680  19.344  0.00  0.00    +0.000 HD
ENDBRANCH   6  15
BRANCH   1  23
ATOM     22  O   UNL     1       0.328  12.152  20.268  0.00  0.00    +0.000 OA
ATOM     23  C   UNL     1       0.336  11.366  19.336  0.00  0.00    +0.000 C 
BRANCH  23  24
ATOM     24  O   UNL     1      -0.364  11.615  18.201  0.00  0.00    +0.000 OA
ATOM     25  H   UNL     1       0.170  11.575  17.370  0.00  0.00    +0.000 HD
ENDBRANCH  23  24
ENDBRANCH   1  23
TORSDOF 3
ENDMDL
MODEL 7
REMARK VINA RESULT:      -7.1      1.106      1.532
REMARK  Name = 
REMARK  3 active torsions:
REMARK  status: ('A' for Active; 'I' for Inactive)
REMARK    1  A    between atoms: C_2  and  O_3
REMARK    2  A    between atoms: C_2  and  C_4
REMARK    3  A    between atoms: C_9  and  N_10
REMARK                            x       y       z     vdW  Elec       q    Type
REMARK                         _______ _______ _______ _____ _____    ______ ____
ROOT
ATOM      1  C   UNL     1       3.545   4.492  19.242  0.00  0.00    +0.000 A 
ATOM      2  C   UNL     1       3.862   5.391  18.292  0.00  0.00    +0.000 A 
ATOM      3  N   UNL     1       3.442   6.619  18.224  0.00  0.00    +0.000 N 
ATOM      4  C   UNL     1       2.533   7.192  19.117  0.00  0.00    +0.000 A 
ATOM      5  C   UNL     1       1.996   8.468  18.948  0.00  0.00    +0.000 A 
ATOM      6  C   UNL     1       1.075   9.007  19.861  0.00  0.00    +0.000 A 
ATOM      7  C   UNL     1       0.764   8.222  20.993  0.00  0.00    +0.000 A 
ATOM      8  F   UNL     1      -0.120   8.664  21.901  0.00  0.00    +0.000 F 
ATOM      9  C   UNL     1       1.279   6.938  21.179  0.00  0.00    +0.000 A 
ATOM     10  C   UNL     1       2.139   6.418  20.221  0.00  0.00    +0.000 A 
ATOM     11  C   UNL     1       2.624   5.006  20.301  0.00  0.00    +0.000 A 
ATOM     12  O   UNL     1       2.236   4.257  21.192  0.00  0.00    +0.000 OA
ATOM     13  C   UNL     1       4.029   7.026  17.002  0.00  0.00    +0.000 C 
ATOM     14  S   UNL     1       4.803   5.402  16.851  0.00  0.00    +0.000 S 
ENDROOT
BRANCH   6  15
ATOM     15  N   UNL     1       0.482  10.227  19.612  0.00  0.00    +0.000 N 
ATOM     16  C   UNL     1       1.165  11.506  19.855  0.00  0.00    +0.000 C 
ATOM     17  C   UNL     1       0.988  12.435  18.631  0.00  0.00    +0.000 C 
ATOM     18  N   UNL     1      -0.419  12.627  18.228  0.00  0.00    +0.000 NA
ATOM     19  C   UNL     1      -1.060  11.312  18.015  0.00  0.00    +0.000 C 
ATOM     20  C   UNL     1      -0.930  10.358  19.223  0.00  0.00    +0.000 C 
ATOM     21  H   UNL     1      -0.442  13.148  17.353  0.00  0.00    +0.000 HD
ENDBRANCH   6  15
BRANCH   1  23
ATOM     22  O   UNL     1       3.388   2.138  18.851  0.00  0.00    +0.000 OA
ATOM     23  C   UNL     1       4.044   3.110  19.188  0.00  0.00    +0.000 C 
BRANCH  23  24
ATOM     24  O   UNL     1       5.337   2.985  19.574  0.00  0.00    +0.000 OA
ATOM     25  H   UNL     1       5.464   2.787  20.534  0.00  0.00    +0.000 HD
ENDBRANCH  23  24
ENDBRANCH   1  23
TORSDOF 3
ENDMDL
MODEL 8
REMARK VINA RESULT:      -6.9      4.801      7.904
REMARK  Name = 
REMARK  3 active torsions:
REMARK  status: ('A' for Active; 'I' for Inactive)
REMARK    1  A    between atoms: C_2  and  O_3
REMARK    2  A    between atoms: C_2  and  C_4
REMARK    3  A    between atoms: C_9  and  N_10
REMARK                            x       y       z     vdW  Elec       q    Type
REMARK                         _______ _______ _______ _____ _____    ______ ____
ROOT
ATOM      1  C   UNL     1      -0.565  11.713  20.376  0.00  0.00    +0.000 A 
ATOM      2  C   UNL     1      -0.516  10.970  21.497  0.00  0.00    +0.000 A 
ATOM      3  N   UNL     1       0.124   9.849  21.649  0.00  0.00    +0.000 N 
ATOM      4  C   UNL     1       0.830   9.200  20.634  0.00  0.00    +0.000 A 
ATOM      5  C   UNL     1       1.397   7.935  20.785  0.00  0.00    +0.000 A 
ATOM      6  C   UNL     1       2.090   7.307  19.737  0.00  0.00    +0.000 A 
ATOM      7  C   UNL     1       2.242   8.043  18.541  0.00  0.00    +0.000 A 
ATOM      8  F   UNL     1       2.879   7.504  17.491  0.00  0.00    +0.000 F 
ATOM      9  C   UNL     1       1.675   9.306  18.361  0.00  0.00    +0.000 A 
ATOM     10  C   UNL     1       0.944   9.865  19.402  0.00  0.00    +0.000 A 
ATOM     11  C   UNL     1       0.211  11.155  19.227  0.00  0.00    +0.000 A 
ATOM     12  O   UNL     1       0.199  11.730  18.143  0.00  0.00    +0.000 OA
ATOM     13  C   UNL     1      -0.255   9.513  22.971  0.00  0.00    +0.000 C 
ATOM     14  S   UNL     1      -1.197  11.050  23.076  0.00  0.00    +0.000 S 
ENDROOT
BRANCH   6  15
ATOM     15  N   UNL     1       2.548   6.014  19.882  0.00  0.00    +0.000 N 
ATOM     16  C   UNL     1       1.761   4.963  20.544  0.00  0.00    +0.000 C 
ATOM     17  C   UNL     1       1.776   3.679  19.683  0.00  0.00    +0.000 C 
ATOM     18  N   UNL     1       3.132   3.214  19.329  0.00  0.00    +0.000 NA
ATOM     19  C   UNL     1       3.882   4.314  18.685  0.00  0.00    +0.000 C 
ATOM     20  C   UNL     1       3.915   5.612  19.522  0.00  0.00    +0.000 C 
ATOM     21  H   UNL     1       3.053   2.442  18.669  0.00  0.00    +0.000 HD
ENDBRANCH   6  15
BRANCH   1  23
ATOM     22  O   UNL     1      -1.216  13.923  21.017  0.00  0.00    +0.000 OA
ATOM     23  C   UNL     1      -1.366  12.944  20.306  0.00  0.00    +0.000 C 
BRANCH  23  24
ATOM     24  O   UNL     1      -2.340  12.904  19.363  0.00  0.00    +0.000 OA
ATOM     25  H   UNL     1      -3.250  12.749  19.716  0.00  0.00    +0.000 HD
ENDBRANCH  23  24
ENDBRANCH   1  23
TORSDOF 3
ENDMDL
MODEL 9
REMARK VINA RESULT:      -6.9      2.585      3.344
REMARK  Name = 
REMARK  3 active torsions:
REMARK  status: ('A' for Active; 'I' for Inactive)
REMARK    1  A    between atoms: C_2  and  O_3
REMARK    2  A    between atoms: C_2  and  C_4
REMARK    3  A    between atoms: C_9  and  N_10
REMARK                            x       y       z     vdW  Elec       q    Type
REMARK                         _______ _______ _______ _____ _____    ______ ____
ROOT
ATOM      1  C   UNL     1       3.429   3.959  18.427  0.00  0.00    +0.000 A 
ATOM      2  C   UNL     1       2.892   3.815  19.652  0.00  0.00    +0.000 A 
ATOM      3  N   UNL     1       2.297   4.740  20.345  0.00  0.00    +0.000 N 
ATOM      4  C   UNL     1       2.170   6.070  19.940  0.00  0.00    +0.000 A 
ATOM      5  C   UNL     1       1.645   7.071  20.757  0.00  0.00    +0.000 A 
ATOM      6  C   UNL     1       1.543   8.402  20.319  0.00  0.00    +0.000 A 
ATOM      7  C   UNL     1       1.937   8.669  18.989  0.00  0.00    +0.000 A 
ATOM      8  F   UNL     1       1.883   9.919  18.504  0.00  0.00    +0.000 F 
ATOM      9  C   UNL     1       2.475   7.687  18.156  0.00  0.00    +0.000 A 
ATOM     10  C   UNL     1       2.616   6.396  18.649  0.00  0.00    +0.000 A 
ATOM     11  C   UNL     1       3.298   5.332  17.850  0.00  0.00    +0.000 A 
ATOM     12  O   UNL     1       3.791   5.586  16.756  0.00  0.00    +0.000 OA
ATOM     13  C   UNL     1       2.030   4.033  21.543  0.00  0.00    +0.000 C 
ATOM     14  S   UNL     1       2.756   2.551  20.812  0.00  0.00    +0.000 S 
ENDROOT
BRANCH   6  15
ATOM     15  N   UNL     1       1.119   9.389  21.184  0.00  0.00    +0.000 N 
ATOM     16  C   UNL     1       0.696  10.719  20.724  0.00  0.00    +0.000 C 
ATOM     17  C   UNL     1      -0.634  11.110  21.411  0.00  0.00    +0.000 C 
ATOM     18  N   UNL     1      -0.594  11.021  22.884  0.00  0.00    +0.000 NA
ATOM     19  C   UNL     1      -0.145   9.671  23.288  0.00  0.00    +0.000 C 
ATOM     20  C   UNL     1       1.195   9.248  22.646  0.00  0.00    +0.000 C 
ATOM     21  H   UNL     1      -1.532  11.177  23.249  0.00  0.00    +0.000 HD
ENDBRANCH   6  15
BRANCH   1  23
ATOM     22  O   UNL     1       3.749   1.690  17.746  0.00  0.00    +0.000 OA
ATOM     23  C   UNL     1       4.124   2.850  17.758  0.00  0.00    +0.000 C 
BRANCH  23  24
ATOM     24  O   UNL     1       5.272   3.223  17.142  0.00  0.00    +0.000 OA
ATOM     25  H   UNL     1       5.145   3.744  16.311  0.00  0.00    +0.000 HD
ENDBRANCH  23  24
ENDBRANCH   1  23
TORSDOF 3
ENDMDL
