MODEL 1
REMARK VINA RESULT:      -7.3      0.000      0.000
REMARK  Name = 
REMARK  18 active torsions:
REMARK  status: ('A' for Active; 'I' for Inactive)
REMARK    1  A    between atoms: C_1  and  C_2
REMARK    2  A    between atoms: C_2  and  O_3
REMARK    3  A    between atoms: O_3  and  C_4
REMARK    4  A    between atoms: C_9  and  C_10
REMARK    5  A    between atoms: N_12  and  C_13
REMARK    6  A    between atoms: C_13  and  C_14
REMARK    7  A    between atoms: C_14  and  O_16
REMARK    8  A    between atoms: O_16  and  C_17
REMARK    9  A    between atoms: C_17  and  C_18
REMARK   10  A    between atoms: C_18  and  C_19
REMARK   11  A    between atoms: C_19  and  O_20
REMARK   12  A    between atoms: O_20  and  C_21
REMARK   13  A    between atoms: C_21  and  C_23
REMARK   14  A    between atoms: C_23  and  N_24
REMARK   15  A    between atoms: C_25  and  C_27
REMARK   16  A    between atoms: C_32  and  O_33
REMARK   17  A    between atoms: O_33  and  C_34
REMARK   18  A    between atoms: C_34  and  C_35
REMARK                            x       y       z     vdW  Elec       q    Type
REMARK                         _______ _______ _______ _____ _____    ______ ____
ROOT
ATOM      1  C   UNL     1       2.561   5.278  20.259  0.00  0.00    +0.000 C 
ENDROOT
BRANCH   1   2
ATOM      2  C   UNL     1       2.168   6.748  20.307  0.00  0.00    +0.000 C 
BRANCH   2   3
ATOM      3  O   UNL     1       1.660   7.165  19.026  0.00  0.00    +0.000 OA
BRANCH   3   4
ATOM      4  C   UNL     1       2.556   7.754  18.185  0.00  0.00    +0.000 C 
ATOM      5  O   UNL     1       3.454   7.172  17.585  0.00  0.00    +0.000 OA
BRANCH   4   6
ATOM      6  C   UNL     1       2.329   9.255  18.123  0.00  0.00    +0.000 C 
BRANCH   6   7
ATOM      7  N   UNL     1       0.950   9.583  17.808  0.00  0.00    +0.000 N 
ATOM      8  C   UNL     1       0.125  10.142  18.766  0.00  0.00    +0.000 C 
ATOM      9  O   UNL     1       0.502  10.338  19.916  0.00  0.00    +0.000 OA
ATOM     10  H   UNL     1       0.572   9.250  16.933  0.00  0.00    +0.000 HD
BRANCH   8  11
ATOM     11  C   UNL     1      -1.259  10.493  18.324  0.00  0.00    +0.000 A 
ATOM     12  C   UNL     1      -1.750   9.810  17.196  0.00  0.00    +0.000 A 
ATOM     13  C   UNL     1      -3.040  10.042  16.715  0.00  0.00    +0.000 A 
ATOM     14  C   UNL     1      -3.872  10.929  17.384  0.00  0.00    +0.000 A 
ATOM     15  C   UNL     1      -3.405  11.592  18.520  0.00  0.00    +0.000 A 
ATOM     16  C   UNL     1      -2.093  11.406  18.996  0.00  0.00    +0.000 A 
BRANCH  16  17
ATOM     17  O   UNL     1      -1.844  12.177  20.102  0.00  0.00    +0.000 OA
BRANCH  17  18
ATOM     18  C   UNL     1      -1.765  13.590  19.943  0.00  0.00    +0.000 C 
ATOM     19  C   UNL     1      -0.480  13.943  19.212  0.00  0.00    +0.000 C 
ENDBRANCH  17  18
ENDBRANCH  16  17
ENDBRANCH   8  11
ENDBRANCH   6   7
ENDBRANCH   4   6
ENDBRANCH   3   4
ENDBRANCH   2   3
ENDBRANCH   1   2
BRANCH   1  20
ATOM     20  C   UNL     1       1.354   4.363  20.431  0.00  0.00    +0.000 C 
BRANCH  20  21
ATOM     21  O   UNL     1       1.755   2.983  20.328  0.00  0.00    +0.000 OA
BRANCH  21  22
ATOM     22  C   UNL     1       1.626   2.406  19.104  0.00  0.00    +0.000 C 
ATOM     23  O   UNL     1       0.593   2.395  18.437  0.00  0.00    +0.000 OA
BRANCH  22  24
ATOM     24  C   UNL     1       2.898   1.688  18.701  0.00  0.00    +0.000 C 
BRANCH  24  27
ATOM     25  C   UNL     1       4.144   3.591  17.749  0.00  0.00    +0.000 C 
ATOM     26  O   UNL     1       3.290   3.750  16.876  0.00  0.00    +0.000 OA
ATOM     27  N   UNL     1       4.038   2.588  18.680  0.00  0.00    +0.000 N 
ATOM     28  H   UNL     1       4.742   2.517  19.410  0.00  0.00    +0.000 HD
BRANCH  25  34
ATOM     29  C   UNL     1       5.995   5.032  16.659  0.00  0.00    +0.000 A 
ATOM     30  C   UNL     1       7.064   5.928  16.853  0.00  0.00    +0.000 A 
ATOM     31  C   UNL     1       7.546   6.208  18.133  0.00  0.00    +0.000 A 
ATOM     32  C   UNL     1       6.945   5.625  19.238  0.00  0.00    +0.000 A 
ATOM     33  C   UNL     1       5.842   4.790  19.064  0.00  0.00    +0.000 A 
ATOM     34  C   UNL     1       5.343   4.491  17.781  0.00  0.00    +0.000 A 
BRANCH  29  35
ATOM     35  O   UNL     1       5.573   4.668  15.404  0.00  0.00    +0.000 OA
BRANCH  35  37
ATOM     36  C   UNL     1       5.946   3.678  13.252  0.00  0.00    +0.000 C 
ATOM     37  C   UNL     1       6.589   4.125  14.550  0.00  0.00    +0.000 C 
ENDBRANCH  35  37
ENDBRANCH  29  35
ENDBRANCH  25  34
ENDBRANCH  24  27
ENDBRANCH  22  24
ENDBRANCH  21  22
ENDBRANCH  20  21
ENDBRANCH   1  20
TORSDOF 16
ENDMDL
MODEL 2
REMARK VINA RESULT:      -7.3      6.009      9.760
REMARK  Name = 
REMARK  18 active torsions:
REMARK  status: ('A' for Active; 'I' for Inactive)
REMARK    1  A    between atoms: C_1  and  C_2
REMARK    2  A    between atoms: C_2  and  O_3
REMARK    3  A    between atoms: O_3  and  C_4
REMARK    4  A    between atoms: C_9  and  C_10
REMARK    5  A    between atoms: N_12  and  C_13
REMARK    6  A    between atoms: C_13  and  C_14
REMARK    7  A    between atoms: C_14  and  O_16
REMARK    8  A    between atoms: O_16  and  C_17
REMARK    9  A    between atoms: C_17  and  C_18
REMARK   10  A    between atoms: C_18  and  C_19
REMARK   11  A    between atoms: C_19  and  O_20
REMARK   12  A    between atoms: O_20  and  C_21
REMARK   13  A    between atoms: C_21  and  C_23
REMARK   14  A    between atoms: C_23  and  N_24
REMARK   15  A    between atoms: C_25  and  C_27
REMARK   16  A    between atoms: C_32  and  O_33
REMARK   17  A    between atoms: O_33  and  C_34
REMARK   18  A    between atoms: C_34  and  C_35
REMARK                            x       y       z     vdW  Elec       q    Type
REMARK                         _______ _______ _______ _____ _____    ______ ____
ROOT
ATOM      1  C   UNL     1       7.453   8.846  17.730  0.00  0.00    +0.000 C 
ENDROOT
BRANCH   1   2
ATOM      2  C   UNL     1       7.869   7.388  17.875  0.00  0.00    +0.000 C 
BRANCH   2   3
ATOM      3  O   UNL     1       7.759   6.715  16.607  0.00  0.00    +0.000 OA
BRANCH   3   4
ATOM      4  C   UNL     1       7.490   5.381  16.655  0.00  0.00    +0.000 C 
ATOM      5  O   UNL     1       7.377   4.643  15.681  0.00  0.00    +0.000 OA
BRANCH   4   6
ATOM      6  C   UNL     1       7.297   4.924  18.091  0.00  0.00    +0.000 C 
BRANCH   6   7
ATOM      7  N   UNL     1       6.051   4.199  18.268  0.00  0.00    +0.000 N 
ATOM      8  C   UNL     1       4.844   4.871  18.280  0.00  0.00    +0.000 C 
ATOM      9  O   UNL     1       4.777   6.091  18.189  0.00  0.00    +0.000 OA
ATOM     10  H   UNL     1       6.104   3.227  18.538  0.00  0.00    +0.000 HD
BRANCH   8  11
ATOM     11  C   UNL     1       3.618   4.027  18.413  0.00  0.00    +0.000 A 
ATOM     12  C   UNL     1       3.759   2.662  18.100  0.00  0.00    +0.000 A 
ATOM     13  C   UNL     1       2.684   1.778  18.218  0.00  0.00    +0.000 A 
ATOM     14  C   UNL     1       1.463   2.241  18.689  0.00  0.00    +0.000 A 
ATOM     15  C   UNL     1       1.320   3.588  19.028  0.00  0.00    +0.000 A 
ATOM     16  C   UNL     1       2.378   4.504  18.876  0.00  0.00    +0.000 A 
BRANCH  16  17
ATOM     17  O   UNL     1       2.004   5.771  19.241  0.00  0.00    +0.000 OA
BRANCH  17  18
ATOM     18  C   UNL     1       1.825   6.057  20.625  0.00  0.00    +0.000 C 
ATOM     19  C   UNL     1       1.538   7.540  20.799  0.00  0.00    +0.000 C 
ENDBRANCH  17  18
ENDBRANCH  16  17
ENDBRANCH   8  11
ENDBRANCH   6   7
ENDBRANCH   4   6
ENDBRANCH   3   4
ENDBRANCH   2   3
ENDBRANCH   1   2
BRANCH   1  20
ATOM     20  C   UNL     1       8.627   9.794  17.941  0.00  0.00    +0.000 C 
BRANCH  20  21
ATOM     21  O   UNL     1       9.198   9.600  19.249  0.00  0.00    +0.000 OA
BRANCH  21  22
ATOM     22  C   UNL     1       9.563  10.725  19.922  0.00  0.00    +0.000 C 
ATOM     23  O   UNL     1       9.050  11.116  20.968  0.00  0.00    +0.000 OA
BRANCH  22  24
ATOM     24  C   UNL     1      10.625  11.494  19.163  0.00  0.00    +0.000 C 
BRANCH  24  27
ATOM     25  C   UNL     1      10.396  13.602  17.904  0.00  0.00    +0.000 C 
ATOM     26  O   UNL     1      10.769  13.055  16.866  0.00  0.00    +0.000 OA
ATOM     27  N   UNL     1      10.311  12.910  19.087  0.00  0.00    +0.000 N 
ATOM     28  H   UNL     1       9.959  13.387  19.913  0.00  0.00    +0.000 HD
BRANCH  25  34
ATOM     29  C   UNL     1       8.827  15.623  18.283  0.00  0.00    +0.000 A 
ATOM     30  C   UNL     1       8.683  17.023  18.287  0.00  0.00    +0.000 A 
ATOM     31  C   UNL     1       9.700  17.854  17.815  0.00  0.00    +0.000 A 
ATOM     32  C   UNL     1      10.889  17.299  17.365  0.00  0.00    +0.000 A 
ATOM     33  C   UNL     1      11.070  15.918  17.420  0.00  0.00    +0.000 A 
ATOM     34  C   UNL     1      10.055  15.062  17.889  0.00  0.00    +0.000 A 
BRANCH  29  35
ATOM     35  O   UNL     1       7.800  14.787  18.650  0.00  0.00    +0.000 OA
BRANCH  35  37
ATOM     36  C   UNL     1       5.503  14.961  17.987  0.00  0.00    +0.000 C 
ATOM     37  C   UNL     1       6.879  14.454  17.603  0.00  0.00    +0.000 C 
ENDBRANCH  35  37
ENDBRANCH  29  35
ENDBRANCH  25  34
ENDBRANCH  24  27
ENDBRANCH  22  24
ENDBRANCH  21  22
ENDBRANCH  20  21
ENDBRANCH   1  20
TORSDOF 16
ENDMDL
MODEL 3
REMARK VINA RESULT:      -7.2      1.949      9.040
REMARK  Name = 
REMARK  18 active torsions:
REMARK  status: ('A' for Active; 'I' for Inactive)
REMARK    1  A    between atoms: C_1  and  C_2
REMARK    2  A    between atoms: C_2  and  O_3
REMARK    3  A    between atoms: O_3  and  C_4
REMARK    4  A    between atoms: C_9  and  C_10
REMARK    5  A    between atoms: N_12  and  C_13
REMARK    6  A    between atoms: C_13  and  C_14
REMARK    7  A    between atoms: C_14  and  O_16
REMARK    8  A    between atoms: O_16  and  C_17
REMARK    9  A    between atoms: C_17  and  C_18
REMARK   10  A    between atoms: C_18  and  C_19
REMARK   11  A    between atoms: C_19  and  O_20
REMARK   12  A    between atoms: O_20  and  C_21
REMARK   13  A    between atoms: C_21  and  C_23
REMARK   14  A    between atoms: C_23  and  N_24
REMARK   15  A    between atoms: C_25  and  C_27
REMARK   16  A    between atoms: C_32  and  O_33
REMARK   17  A    between atoms: O_33  and  C_34
REMARK   18  A    between atoms: C_34  and  C_35
REMARK                            x       y       z     vdW  Elec       q    Type
REMARK                         _______ _______ _______ _____ _____    ______ ____
ROOT
ATOM      1  C   UNL     1       1.806   5.272  19.311  0.00  0.00    +0.000 C 
ENDROOT
BRANCH   1   2
ATOM      2  C   UNL     1       1.206   4.535  20.501  0.00  0.00    +0.000 C 
BRANCH   2   3
ATOM      3  O   UNL     1       2.098   3.492  20.937  0.00  0.00    +0.000 OA
BRANCH   3   4
ATOM      4  C   UNL     1       2.575   2.664  19.966  0.00  0.00    +0.000 C 
ATOM      5  O   UNL     1       1.897   1.888  19.298  0.00  0.00    +0.000 OA
BRANCH   4   6
ATOM      6  C   UNL     1       4.084   2.788  19.847  0.00  0.00    +0.000 C 
BRANCH   6   7
ATOM      7  N   UNL     1       4.489   3.265  18.537  0.00  0.00    +0.000 N 
ATOM      8  C   UNL     1       5.541   4.151  18.406  0.00  0.00    +0.000 C 
ATOM      9  O   UNL     1       6.138   4.601  19.378  0.00  0.00    +0.000 OA
ATOM     10  H   UNL     1       3.888   3.058  17.752  0.00  0.00    +0.000 HD
BRANCH   8  11
ATOM     11  C   UNL     1       5.913   4.536  17.011  0.00  0.00    +0.000 A 
ATOM     12  C   UNL     1       5.787   3.536  16.029  0.00  0.00    +0.000 A 
ATOM     13  C   UNL     1       6.080   3.796  14.689  0.00  0.00    +0.000 A 
ATOM     14  C   UNL     1       6.464   5.075  14.307  0.00  0.00    +0.000 A 
ATOM     15  C   UNL     1       6.566   6.082  15.268  0.00  0.00    +0.000 A 
ATOM     16  C   UNL     1       6.317   5.829  16.631  0.00  0.00    +0.000 A 
BRANCH  16  17
ATOM     17  O   UNL     1       6.505   6.952  17.394  0.00  0.00    +0.000 OA
BRANCH  17  18
ATOM     18  C   UNL     1       7.813   7.229  17.886  0.00  0.00    +0.000 C 
ATOM     19  C   UNL     1       8.053   8.730  17.859  0.00  0.00    +0.000 C 
ENDBRANCH  17  18
ENDBRANCH  16  17
ENDBRANCH   8  11
ENDBRANCH   6   7
ENDBRANCH   4   6
ENDBRANCH   3   4
ENDBRANCH   2   3
ENDBRANCH   1   2
BRANCH   1  20
ATOM     20  C   UNL     1       2.627   6.479  19.746  0.00  0.00    +0.000 C 
BRANCH  20  21
ATOM     21  O   UNL     1       1.972   7.699  19.348  0.00  0.00    +0.000 OA
BRANCH  21  22
ATOM     22  C   UNL     1       2.447   8.301  18.225  0.00  0.00    +0.000 C 
ATOM     23  O   UNL     1       3.304   7.828  17.482  0.00  0.00    +0.000 OA
BRANCH  22  24
ATOM     24  C   UNL     1       1.853   9.685  18.055  0.00  0.00    +0.000 C 
BRANCH  24  27
ATOM     25  C   UNL     1       0.401  11.278  19.252  0.00  0.00    +0.000 C 
ATOM     26  O   UNL     1       0.568  12.129  18.378  0.00  0.00    +0.000 OA
ATOM     27  N   UNL     1       1.010  10.049  19.179  0.00  0.00    +0.000 N 
ATOM     28  H   UNL     1       0.813   9.358  19.899  0.00  0.00    +0.000 HD
BRANCH  25  34
ATOM     29  C   UNL     1      -0.212  11.201  21.764  0.00  0.00    +0.000 A 
ATOM     30  C   UNL     1      -1.075  11.642  22.784  0.00  0.00    +0.000 A 
ATOM     31  C   UNL     1      -2.224  12.377  22.487  0.00  0.00    +0.000 A 
ATOM     32  C   UNL     1      -2.508  12.712  21.171  0.00  0.00    +0.000 A 
ATOM     33  C   UNL     1      -1.624  12.339  20.159  0.00  0.00    +0.000 A 
ATOM     34  C   UNL     1      -0.462  11.593  20.437  0.00  0.00    +0.000 A 
BRANCH  29  35
ATOM     35  O   UNL     1       0.868  10.393  22.027  0.00  0.00    +0.000 OA
BRANCH  35  37
ATOM     36  C   UNL     1      -0.311   8.316  21.831  0.00  0.00    +0.000 C 
ATOM     37  C   UNL     1       0.566   9.175  22.720  0.00  0.00    +0.000 C 
ENDBRANCH  35  37
ENDBRANCH  29  35
ENDBRANCH  25  34
ENDBRANCH  24  27
ENDBRANCH  22  24
ENDBRANCH  21  22
ENDBRANCH  20  21
ENDBRANCH   1  20
TORSDOF 16
ENDMDL
MODEL 4
REMARK VINA RESULT:      -7.0      2.217      8.852
REMARK  Name = 
REMARK  18 active torsions:
REMARK  status: ('A' for Active; 'I' for Inactive)
REMARK    1  A    between atoms: C_1  and  C_2
REMARK    2  A    between atoms: C_2  and  O_3
REMARK    3  A    between atoms: O_3  and  C_4
REMARK    4  A    between atoms: C_9  and  C_10
REMARK    5  A    between atoms: N_12  and  C_13
REMARK    6  A    between atoms: C_13  and  C_14
REMARK    7  A    between atoms: C_14  and  O_16
REMARK    8  A    between atoms: O_16  and  C_17
REMARK    9  A    between atoms: C_17  and  C_18
REMARK   10  A    between atoms: C_18  and  C_19
REMARK   11  A    between atoms: C_19  and  O_20
REMARK   12  A    between atoms: O_20  and  C_21
REMARK   13  A    between atoms: C_21  and  C_23
REMARK   14  A    between atoms: C_23  and  N_24
REMARK   15  A    between atoms: C_25  and  C_27
REMARK   16  A    between atoms: C_32  and  O_33
REMARK   17  A    between atoms: O_33  and  C_34
REMARK   18  A    between atoms: C_34  and  C_35
REMARK                            x       y       z     vdW  Elec       q    Type
REMARK                         _______ _______ _______ _____ _____    ______ ____
ROOT
ATOM      1  C   UNL     1       2.042   3.868  17.744  0.00  0.00    +0.000 C 
ENDROOT
BRANCH   1   2
ATOM      2  C   UNL     1       1.249   2.947  18.661  0.00  0.00    +0.000 C 
BRANCH   2   3
ATOM      3  O   UNL     1       2.116   2.382  19.663  0.00  0.00    +0.000 OA
BRANCH   3   4
ATOM      4  C   UNL     1       3.070   3.211  20.170  0.00  0.00    +0.000 C 
ATOM      5  O   UNL     1       2.853   4.272  20.749  0.00  0.00    +0.000 OA
BRANCH   4   6
ATOM      6  C   UNL     1       4.460   2.672  19.881  0.00  0.00    +0.000 C 
BRANCH   6   7
ATOM      7  N   UNL     1       4.924   3.044  18.556  0.00  0.00    +0.000 N 
ATOM      8  C   UNL     1       5.704   4.171  18.377  0.00  0.00    +0.000 C 
ATOM      9  O   UNL     1       5.994   4.917  19.305  0.00  0.00    +0.000 OA
ATOM     10  H   UNL     1       4.533   2.555  17.764  0.00  0.00    +0.000 HD
BRANCH   8  11
ATOM     11  C   UNL     1       6.174   4.435  16.983  0.00  0.00    +0.000 A 
ATOM     12  C   UNL     1       5.638   3.613  15.974  0.00  0.00    +0.000 A 
ATOM     13  C   UNL     1       5.987   3.792  14.633  0.00  0.00    +0.000 A 
ATOM     14  C   UNL     1       6.846   4.824  14.281  0.00  0.00    +0.000 A 
ATOM     15  C   UNL     1       7.362   5.663  15.271  0.00  0.00    +0.000 A 
ATOM     16  C   UNL     1       7.057   5.472  16.632  0.00  0.00    +0.000 A 
BRANCH  16  17
ATOM     17  O   UNL     1       7.695   6.390  17.425  0.00  0.00    +0.000 OA
BRANCH  17  18
ATOM     18  C   UNL     1       7.246   7.742  17.399  0.00  0.00    +0.000 C 
ATOM     19  C   UNL     1       8.290   8.631  18.055  0.00  0.00    +0.000 C 
ENDBRANCH  17  18
ENDBRANCH  16  17
ENDBRANCH   8  11
ENDBRANCH   6   7
ENDBRANCH   4   6
ENDBRANCH   3   4
ENDBRANCH   2   3
ENDBRANCH   1   2
BRANCH   1  20
ATOM     20  C   UNL     1       1.528   5.302  17.798  0.00  0.00    +0.000 C 
BRANCH  20  21
ATOM     21  O   UNL     1       2.628   6.223  17.926  0.00  0.00    +0.000 OA
BRANCH  21  22
ATOM     22  C   UNL     1       2.305   7.512  18.214  0.00  0.00    +0.000 C 
ATOM     23  O   UNL     1       2.219   8.418  17.387  0.00  0.00    +0.000 OA
BRANCH  22  24
ATOM     24  C   UNL     1       2.158   7.717  19.709  0.00  0.00    +0.000 C 
BRANCH  24  27
ATOM     25  C   UNL     1       0.971   9.173  21.306  0.00  0.00    +0.000 C 
ATOM     26  O   UNL     1       1.530   8.630  22.259  0.00  0.00    +0.000 OA
ATOM     27  N   UNL     1       1.211   8.775  20.014  0.00  0.00    +0.000 N 
ATOM     28  H   UNL     1       0.762   9.277  19.252  0.00  0.00    +0.000 HD
BRANCH  25  34
ATOM     29  C   UNL     1      -0.341  11.306  20.659  0.00  0.00    +0.000 A 
ATOM     30  C   UNL     1      -1.348  12.226  21.008  0.00  0.00    +0.000 A 
ATOM     31  C   UNL     1      -1.954  12.189  22.265  0.00  0.00    +0.000 A 
ATOM     32  C   UNL     1      -1.588  11.210  23.178  0.00  0.00    +0.000 A 
ATOM     33  C   UNL     1      -0.641  10.252  22.818  0.00  0.00    +0.000 A 
ATOM     34  C   UNL     1      -0.014  10.274  21.557  0.00  0.00    +0.000 A 
BRANCH  29  35
ATOM     35  O   UNL     1       0.336  11.390  19.467  0.00  0.00    +0.000 OA
BRANCH  35  37
ATOM     36  C   UNL     1       0.981  13.447  18.417  0.00  0.00    +0.000 C 
ATOM     37  C   UNL     1       1.373  12.379  19.420  0.00  0.00    +0.000 C 
ENDBRANCH  35  37
ENDBRANCH  29  35
ENDBRANCH  25  34
ENDBRANCH  24  27
ENDBRANCH  22  24
ENDBRANCH  21  22
ENDBRANCH  20  21
ENDBRANCH   1  20
TORSDOF 16
ENDMDL
MODEL 5
REMARK VINA RESULT:      -7.0      1.727      9.114
REMARK  Name = 
REMARK  18 active torsions:
REMARK  status: ('A' for Active; 'I' for Inactive)
REMARK    1  A    between atoms: C_1  and  C_2
REMARK    2  A    between atoms: C_2  and  O_3
REMARK    3  A    between atoms: O_3  and  C_4
REMARK    4  A    between atoms: C_9  and  C_10
REMARK    5  A    between atoms: N_12  and  C_13
REMARK    6  A    between atoms: C_13  and  C_14
REMARK    7  A    between atoms: C_14  and  O_16
REMARK    8  A    between atoms: O_16  and  C_17
REMARK    9  A    between atoms: C_17  and  C_18
REMARK   10  A    between atoms: C_18  and  C_19
REMARK   11  A    between atoms: C_19  and  O_20
REMARK   12  A    between atoms: O_20  and  C_21
REMARK   13  A    between atoms: C_21  and  C_23
REMARK   14  A    between atoms: C_23  and  N_24
REMARK   15  A    between atoms: C_25  and  C_27
REMARK   16  A    between atoms: C_32  and  O_33
REMARK   17  A    between atoms: O_33  and  C_34
REMARK   18  A    between atoms: C_34  and  C_35
REMARK                            x       y       z     vdW  Elec       q    Type
REMARK                         _______ _______ _______ _____ _____    ______ ____
ROOT
ATOM      1  C   UNL     1       1.289   4.017  20.909  0.00  0.00    +0.000 C 
ENDROOT
BRANCH   1   2
ATOM      2  C   UNL     1       1.557   3.297  19.595  0.00  0.00    +0.000 C 
BRANCH   2   3
ATOM      3  O   UNL     1       2.287   2.080  19.838  0.00  0.00    +0.000 OA
BRANCH   3   4
ATOM      4  C   UNL     1       3.436   1.914  19.124  0.00  0.00    +0.000 C 
ATOM      5  O   UNL     1       3.730   0.916  18.474  0.00  0.00    +0.000 OA
BRANCH   4   6
ATOM      6  C   UNL     1       4.341   3.125  19.276  0.00  0.00    +0.000 C 
BRANCH   6   7
ATOM      7  N   UNL     1       5.167   3.338  18.100  0.00  0.00    +0.000 N 
ATOM      8  C   UNL     1       4.751   4.191  17.096  0.00  0.00    +0.000 C 
ATOM      9  O   UNL     1       3.666   4.759  17.131  0.00  0.00    +0.000 OA
ATOM     10  H   UNL     1       5.964   2.732  17.966  0.00  0.00    +0.000 HD
BRANCH   8  11
ATOM     11  C   UNL     1       5.698   4.382  15.956  0.00  0.00    +0.000 A 
ATOM     12  C   UNL     1       5.205   4.083  14.672  0.00  0.00    +0.000 A 
ATOM     13  C   UNL     1       5.997   4.253  13.534  0.00  0.00    +0.000 A 
ATOM     14  C   UNL     1       7.280   4.765  13.663  0.00  0.00    +0.000 A 
ATOM     15  C   UNL     1       7.771   5.091  14.929  0.00  0.00    +0.000 A 
ATOM     16  C   UNL     1       7.004   4.887  16.092  0.00  0.00    +0.000 A 
BRANCH  16  17
ATOM     17  O   UNL     1       7.694   5.249  17.220  0.00  0.00    +0.000 OA
BRANCH  17  18
ATOM     18  C   UNL     1       7.169   6.293  18.034  0.00  0.00    +0.000 C 
ATOM     19  C   UNL     1       7.573   7.637  17.450  0.00  0.00    +0.000 C 
ENDBRANCH  17  18
ENDBRANCH  16  17
ENDBRANCH   8  11
ENDBRANCH   6   7
ENDBRANCH   4   6
ENDBRANCH   3   4
ENDBRANCH   2   3
ENDBRANCH   1   2
BRANCH   1  20
ATOM     20  C   UNL     1       1.107   5.516  20.708  0.00  0.00    +0.000 C 
BRANCH  20  21
ATOM     21  O   UNL     1       2.036   6.004  19.721  0.00  0.00    +0.000 OA
BRANCH  21  22
ATOM     22  C   UNL     1       2.143   7.355  19.610  0.00  0.00    +0.000 C 
ATOM     23  O   UNL     1       2.604   7.946  18.635  0.00  0.00    +0.000 OA
BRANCH  22  24
ATOM     24  C   UNL     1       1.709   8.046  20.887  0.00  0.00    +0.000 C 
BRANCH  24  27
ATOM     25  C   UNL     1       0.214   9.866  21.614  0.00  0.00    +0.000 C 
ATOM     26  O   UNL     1       0.248   9.466  22.778  0.00  0.00    +0.000 OA
ATOM     27  N   UNL     1       0.893   9.215  20.614  0.00  0.00    +0.000 N 
ATOM     28  H   UNL     1       0.875   9.601  19.673  0.00  0.00    +0.000 HD
BRANCH  25  34
ATOM     29  C   UNL     1      -1.242  11.310  20.038  0.00  0.00    +0.000 A 
ATOM     30  C   UNL     1      -2.048  12.455  19.891  0.00  0.00    +0.000 A 
ATOM     31  C   UNL     1      -2.148  13.402  20.912  0.00  0.00    +0.000 A 
ATOM     32  C   UNL     1      -1.472  13.200  22.107  0.00  0.00    +0.000 A 
ATOM     33  C   UNL     1      -0.726  12.037  22.289  0.00  0.00    +0.000 A 
ATOM     34  C   UNL     1      -0.609  11.071  21.270  0.00  0.00    +0.000 A 
BRANCH  29  35
ATOM     35  O   UNL     1      -1.053  10.420  19.009  0.00  0.00    +0.000 OA
BRANCH  35  37
ATOM     36  C   UNL     1      -2.877   9.828  17.569  0.00  0.00    +0.000 C 
ATOM     37  C   UNL     1      -1.701  10.763  17.777  0.00  0.00    +0.000 C 
ENDBRANCH  35  37
ENDBRANCH  29  35
ENDBRANCH  25  34
ENDBRANCH  24  27
ENDBRANCH  22  24
ENDBRANCH  21  22
ENDBRANCH  20  21
ENDBRANCH   1  20
TORSDOF 16
ENDMDL
MODEL 6
REMARK VINA RESULT:      -7.0      1.715      2.471
REMARK  Name = 
REMARK  18 active torsions:
REMARK  status: ('A' for Active; 'I' for Inactive)
REMARK    1  A    between atoms: C_1  and  C_2
REMARK    2  A    between atoms: C_2  and  O_3
REMARK    3  A    between atoms: O_3  and  C_4
REMARK    4  A    between atoms: C_9  and  C_10
REMARK    5  A    between atoms: N_12  and  C_13
REMARK    6  A    between atoms: C_13  and  C_14
REMARK    7  A    between atoms: C_14  and  O_16
REMARK    8  A    between atoms: O_16  and  C_17
REMARK    9  A    between atoms: C_17  and  C_18
REMARK   10  A    between atoms: C_18  and  C_19
REMARK   11  A    between atoms: C_19  and  O_20
REMARK   12  A    between atoms: O_20  and  C_21
REMARK   13  A    between atoms: C_21  and  C_23
REMARK   14  A    between atoms: C_23  and  N_24
REMARK   15  A    between atoms: C_25  and  C_27
REMARK   16  A    between atoms: C_32  and  O_33
REMARK   17  A    between atoms: O_33  and  C_34
REMARK   18  A    between atoms: C_34  and  C_35
REMARK                            x       y       z     vdW  Elec       q    Type
REMARK                         _______ _______ _______ _____ _____    ______ ____
ROOT
ATOM      1  C   UNL     1       1.233   5.945  20.433  0.00  0.00    +0.000 C 
ENDROOT
BRANCH   1   2
ATOM      2  C   UNL     1       2.371   6.867  20.017  0.00  0.00    +0.000 C 
BRANCH   2   3
ATOM      3  O   UNL     1       1.860   8.180  19.722  0.00  0.00    +0.000 OA
BRANCH   3   4
ATOM      4  C   UNL     1       1.975   8.594  18.429  0.00  0.00    +0.000 C 
ATOM      5  O   UNL     1       2.867   8.263  17.654  0.00  0.00    +0.000 OA
BRANCH   4   6
ATOM      6  C   UNL     1       0.867   9.573  18.078  0.00  0.00    +0.000 C 
BRANCH   6   7
ATOM      7  N   UNL     1       0.407  10.313  19.239  0.00  0.00    +0.000 N 
ATOM      8  C   UNL     1      -0.510  11.338  19.100  0.00  0.00    +0.000 C 
ATOM      9  O   UNL     1      -0.931  11.691  18.005  0.00  0.00    +0.000 OA
ATOM     10  H   UNL     1       0.889  10.166  20.115  0.00  0.00    +0.000 HD
BRANCH   8  11
ATOM     11  C   UNL     1      -0.959  11.999  20.363  0.00  0.00    +0.000 A 
ATOM     12  C   UNL     1      -2.349  12.124  20.546  0.00  0.00    +0.000 A 
ATOM     13  C   UNL     1      -2.877  12.700  21.703  0.00  0.00    +0.000 A 
ATOM     14  C   UNL     1      -2.022  13.122  22.712  0.00  0.00    +0.000 A 
ATOM     15  C   UNL     1      -0.642  12.979  22.553  0.00  0.00    +0.000 A 
ATOM     16  C   UNL     1      -0.087  12.440  21.376  0.00  0.00    +0.000 A 
BRANCH  16  17
ATOM     17  O   UNL     1       1.282  12.421  21.427  0.00  0.00    +0.000 OA
BRANCH  17  18
ATOM     18  C   UNL     1       2.007  13.327  20.601  0.00  0.00    +0.000 C 
ATOM     19  C   UNL     1       2.391  14.553  21.415  0.00  0.00    +0.000 C 
ENDBRANCH  17  18
ENDBRANCH  16  17
ENDBRANCH   8  11
ENDBRANCH   6   7
ENDBRANCH   4   6
ENDBRANCH   3   4
ENDBRANCH   2   3
ENDBRANCH   1   2
BRANCH   1  20
ATOM     20  C   UNL     1       1.587   4.477  20.227  0.00  0.00    +0.000 C 
BRANCH  20  21
ATOM     21  O   UNL     1       1.411   4.110  18.845  0.00  0.00    +0.000 OA
BRANCH  21  22
ATOM     22  C   UNL     1       1.320   2.779  18.581  0.00  0.00    +0.000 C 
ATOM     23  O   UNL     1       0.276   2.130  18.587  0.00  0.00    +0.000 OA
BRANCH  22  24
ATOM     24  C   UNL     1       2.692   2.169  18.371  0.00  0.00    +0.000 C 
BRANCH  24  27
ATOM     25  C   UNL     1       4.796   3.406  18.715  0.00  0.00    +0.000 C 
ATOM     26  O   UNL     1       5.012   2.801  19.766  0.00  0.00    +0.000 OA
ATOM     27  N   UNL     1       3.667   3.167  17.971  0.00  0.00    +0.000 N 
ATOM     28  H   UNL     1       3.547   3.657  17.088  0.00  0.00    +0.000 HD
BRANCH  25  34
ATOM     29  C   UNL     1       6.119   4.705  16.911  0.00  0.00    +0.000 A 
ATOM     30  C   UNL     1       6.991   5.772  16.624  0.00  0.00    +0.000 A 
ATOM     31  C   UNL     1       7.588   6.511  17.646  0.00  0.00    +0.000 A 
ATOM     32  C   UNL     1       7.294   6.217  18.970  0.00  0.00    +0.000 A 
ATOM     33  C   UNL     1       6.379   5.208  19.266  0.00  0.00    +0.000 A 
ATOM     34  C   UNL     1       5.769   4.447  18.249  0.00  0.00    +0.000 A 
BRANCH  29  35
ATOM     35  O   UNL     1       5.602   3.904  15.922  0.00  0.00    +0.000 OA
BRANCH  35  37
ATOM     36  C   UNL     1       6.134   3.789  13.587  0.00  0.00    +0.000 C 
ATOM     37  C   UNL     1       5.384   4.552  14.662  0.00  0.00    +0.000 C 
ENDBRANCH  35  37
ENDBRANCH  29  35
ENDBRANCH  25  34
ENDBRANCH  24  27
ENDBRANCH  22  24
ENDBRANCH  21  22
ENDBRANCH  20  21
ENDBRANCH   1  20
TORSDOF 16
ENDMDL
MODEL 7
REMARK VINA RESULT:      -6.9      2.180      4.721
REMARK  Name = 
REMARK  18 active torsions:
REMARK  status: ('A' for Active; 'I' for Inactive)
REMARK    1  A    between atoms: C_1  and  C_2
REMARK    2  A    between atoms: C_2  and  O_3
REMARK    3  A    between atoms: O_3  and  C_4
REMARK    4  A    between atoms: C_9  and  C_10
REMARK    5  A    between atoms: N_12  and  C_13
REMARK    6  A    between atoms: C_13  and  C_14
REMARK    7  A    between atoms: C_14  and  O_16
REMARK    8  A    between atoms: O_16  and  C_17
REMARK    9  A    between atoms: C_17  and  C_18
REMARK   10  A    between atoms: C_18  and  C_19
REMARK   11  A    between atoms: C_19  and  O_20
REMARK   12  A    between atoms: O_20  and  C_21
REMARK   13  A    between atoms: C_21  and  C_23
REMARK   14  A    between atoms: C_23  and  N_24
REMARK   15  A    between atoms: C_25  and  C_27
REMARK   16  A    between atoms: C_32  and  O_33
REMARK   17  A    between atoms: O_33  and  C_34
REMARK   18  A    between atoms: C_34  and  C_35
REMARK                            x       y       z     vdW  Elec       q    Type
REMARK                         _______ _______ _______ _____ _____    ______ ____
ROOT
ATOM      1  C   UNL     1       5.925   6.929  17.207  0.00  0.00    +0.000 C 
ENDROOT
BRANCH   1   2
ATOM      2  C   UNL     1       4.961   6.557  18.325  0.00  0.00    +0.000 C 
BRANCH   2   3
ATOM      3  O   UNL     1       3.610   6.545  17.827  0.00  0.00    +0.000 OA
BRANCH   3   4
ATOM      4  C   UNL     1       2.690   7.224  18.569  0.00  0.00    +0.000 C 
ATOM      5  O   UNL     1       2.325   6.920  19.700  0.00  0.00    +0.000 OA
BRANCH   4   6
ATOM      6  C   UNL     1       2.129   8.398  17.784  0.00  0.00    +0.000 C 
BRANCH   6   7
ATOM      7  N   UNL     1       1.304   9.261  18.611  0.00  0.00    +0.000 N 
ATOM      8  C   UNL     1       1.494  10.629  18.605  0.00  0.00    +0.000 C 
ATOM      9  O   UNL     1       2.381  11.161  17.948  0.00  0.00    +0.000 OA
ATOM     10  H   UNL     1       0.706   8.825  19.299  0.00  0.00    +0.000 HD
BRANCH   8  11
ATOM     11  C   UNL     1       0.556  11.431  19.449  0.00  0.00    +0.000 A 
ATOM     12  C   UNL     1       0.567  12.824  19.250  0.00  0.00    +0.000 A 
ATOM     13  C   UNL     1      -0.289  13.664  19.966  0.00  0.00    +0.000 A 
ATOM     14  C   UNL     1      -1.197  13.116  20.861  0.00  0.00    +0.000 A 
ATOM     15  C   UNL     1      -1.235  11.733  21.047  0.00  0.00    +0.000 A 
ATOM     16  C   UNL     1      -0.351  10.872  20.367  0.00  0.00    +0.000 A 
BRANCH  16  17
ATOM     17  O   UNL     1      -0.548   9.564  20.725  0.00  0.00    +0.000 OA
BRANCH  17  18
ATOM     18  C   UNL     1      -0.230   9.166  22.055  0.00  0.00    +0.000 C 
ATOM     19  C   UNL     1       1.280   9.164  22.232  0.00  0.00    +0.000 C 
ENDBRANCH  17  18
ENDBRANCH  16  17
ENDBRANCH   8  11
ENDBRANCH   6   7
ENDBRANCH   4   6
ENDBRANCH   3   4
ENDBRANCH   2   3
ENDBRANCH   1   2
BRANCH   1  20
ATOM     20  C   UNL     1       5.414   6.480  15.843  0.00  0.00    +0.000 C 
BRANCH  20  21
ATOM     21  O   UNL     1       6.311   5.512  15.266  0.00  0.00    +0.000 OA
BRANCH  21  22
ATOM     22  C   UNL     1       6.608   4.431  16.036  0.00  0.00    +0.000 C 
ATOM     23  O   UNL     1       7.694   4.227  16.573  0.00  0.00    +0.000 OA
BRANCH  22  24
ATOM     24  C   UNL     1       5.452   3.450  16.069  0.00  0.00    +0.000 C 
BRANCH  24  27
ATOM     25  C   UNL     1       3.447   3.255  17.489  0.00  0.00    +0.000 C 
ATOM     26  O   UNL     1       2.724   3.133  16.499  0.00  0.00    +0.000 OA
ATOM     27  N   UNL     1       4.803   3.431  17.367  0.00  0.00    +0.000 N 
ATOM     28  H   UNL     1       5.370   3.485  18.209  0.00  0.00    +0.000 HD
BRANCH  25  34
ATOM     29  C   UNL     1       3.490   2.878  20.048  0.00  0.00    +0.000 A 
ATOM     30  C   UNL     1       2.803   2.989  21.271  0.00  0.00    +0.000 A 
ATOM     31  C   UNL     1       1.457   3.358  21.310  0.00  0.00    +0.000 A 
ATOM     32  C   UNL     1       0.789   3.654  20.131  0.00  0.00    +0.000 A 
ATOM     33  C   UNL     1       1.478   3.614  18.920  0.00  0.00    +0.000 A 
ATOM     34  C   UNL     1       2.834   3.240  18.857  0.00  0.00    +0.000 A 
BRANCH  29  35
ATOM     35  O   UNL     1       4.784   2.420  19.982  0.00  0.00    +0.000 OA
BRANCH  35  37
ATOM     36  C   UNL     1       5.639   0.781  21.508  0.00  0.00    +0.000 C 
ATOM     37  C   UNL     1       4.945   1.010  20.180  0.00  0.00    +0.000 C 
ENDBRANCH  35  37
ENDBRANCH  29  35
ENDBRANCH  25  34
ENDBRANCH  24  27
ENDBRANCH  22  24
ENDBRANCH  21  22
ENDBRANCH  20  21
ENDBRANCH   1  20
TORSDOF 16
ENDMDL
MODEL 8
REMARK VINA RESULT:      -6.9      1.584      9.568
REMARK  Name = 
REMARK  18 active torsions:
REMARK  status: ('A' for Active; 'I' for Inactive)
REMARK    1  A    between atoms: C_1  and  C_2
REMARK    2  A    between atoms: C_2  and  O_3
REMARK    3  A    between atoms: O_3  and  C_4
REMARK    4  A    between atoms: C_9  and  C_10
REMARK    5  A    between atoms: N_12  and  C_13
REMARK    6  A    between atoms: C_13  and  C_14
REMARK    7  A    between atoms: C_14  and  O_16
REMARK    8  A    between atoms: O_16  and  C_17
REMARK    9  A    between atoms: C_17  and  C_18
REMARK   10  A    between atoms: C_18  and  C_19
REMARK   11  A    between atoms: C_19  and  O_20
REMARK   12  A    between atoms: O_20  and  C_21
REMARK   13  A    between atoms: C_21  and  C_23
REMARK   14  A    between atoms: C_23  and  N_24
REMARK   15  A    between atoms: C_25  and  C_27
REMARK   16  A    between atoms: C_32  and  O_33
REMARK   17  A    between atoms: O_33  and  C_34
REMARK   18  A    between atoms: C_34  and  C_35
REMARK                            x       y       z     vdW  Elec       q    Type
REMARK                         _______ _______ _______ _____ _____    ______ ____
ROOT
ATOM      1  C   UNL     1       2.055   5.639  20.442  0.00  0.00    +0.000 C 
ENDROOT
BRANCH   1   2
ATOM      2  C   UNL     1       1.653   4.409  19.640  0.00  0.00    +0.000 C 
BRANCH   2   3
ATOM      3  O   UNL     1       2.350   3.249  20.133  0.00  0.00    +0.000 OA
BRANCH   3   4
ATOM      4  C   UNL     1       3.330   2.750  19.329  0.00  0.00    +0.000 C 
ATOM      5  O   UNL     1       3.233   1.745  18.631  0.00  0.00    +0.000 OA
BRANCH   4   6
ATOM      6  C   UNL     1       4.596   3.581  19.446  0.00  0.00    +0.000 C 
BRANCH   6   7
ATOM      7  N   UNL     1       5.314   3.660  18.186  0.00  0.00    +0.000 N 
ATOM      8  C   UNL     1       4.829   4.434  17.150  0.00  0.00    +0.000 C 
ATOM      9  O   UNL     1       3.767   5.041  17.231  0.00  0.00    +0.000 OA
ATOM     10  H   UNL     1       6.079   3.017  18.037  0.00  0.00    +0.000 HD
BRANCH   8  11
ATOM     11  C   UNL     1       5.671   4.490  15.916  0.00  0.00    +0.000 A 
ATOM     12  C   UNL     1       5.153   3.852  14.773  0.00  0.00    +0.000 A 
ATOM     13  C   UNL     1       5.845   3.868  13.560  0.00  0.00    +0.000 A 
ATOM     14  C   UNL     1       7.045   4.559  13.464  0.00  0.00    +0.000 A 
ATOM     15  C   UNL     1       7.554   5.219  14.584  0.00  0.00    +0.000 A 
ATOM     16  C   UNL     1       6.894   5.179  15.827  0.00  0.00    +0.000 A 
BRANCH  16  17
ATOM     17  O   UNL     1       7.587   5.869  16.787  0.00  0.00    +0.000 OA
BRANCH  17  18
ATOM     18  C   UNL     1       6.961   6.989  17.407  0.00  0.00    +0.000 C 
ATOM     19  C   UNL     1       7.965   8.125  17.524  0.00  0.00    +0.000 C 
ENDBRANCH  17  18
ENDBRANCH  16  17
ENDBRANCH   8  11
ENDBRANCH   6   7
ENDBRANCH   4   6
ENDBRANCH   3   4
ENDBRANCH   2   3
ENDBRANCH   1   2
BRANCH   1  20
ATOM     20  C   UNL     1       2.471   6.794  19.539  0.00  0.00    +0.000 C 
BRANCH  20  21
ATOM     21  O   UNL     1       1.847   8.018  19.972  0.00  0.00    +0.000 OA
BRANCH  21  22
ATOM     22  C   UNL     1       1.449   8.872  18.993  0.00  0.00    +0.000 C 
ATOM     23  O   UNL     1       1.542   8.652  17.787  0.00  0.00    +0.000 OA
BRANCH  22  24
ATOM     24  C   UNL     1       0.960  10.183  19.576  0.00  0.00    +0.000 C 
BRANCH  24  27
ATOM     25  C   UNL     1      -1.065  11.589  19.601  0.00  0.00    +0.000 C 
ATOM     26  O   UNL     1      -0.449  12.515  20.131  0.00  0.00    +0.000 OA
ATOM     27  N   UNL     1      -0.450  10.397  19.307  0.00  0.00    +0.000 N 
ATOM     28  H   UNL     1      -0.982   9.673  18.830  0.00  0.00    +0.000 HD
BRANCH  25  34
ATOM     29  C   UNL     1      -3.214  11.138  18.235  0.00  0.00    +0.000 A 
ATOM     30  C   UNL     1      -4.605  11.326  18.123  0.00  0.00    +0.000 A 
ATOM     31  C   UNL     1      -5.288  12.186  18.984  0.00  0.00    +0.000 A 
ATOM     32  C   UNL     1      -4.597  12.843  19.992  0.00  0.00    +0.000 A 
ATOM     33  C   UNL     1      -3.232  12.612  20.156  0.00  0.00    +0.000 A 
ATOM     34  C   UNL     1      -2.523  11.752  19.295  0.00  0.00    +0.000 A 
BRANCH  29  35
ATOM     35  O   UNL     1      -2.511  10.374  17.335  0.00  0.00    +0.000 OA
BRANCH  35  37
ATOM     36  C   UNL     1      -3.129   9.884  15.072  0.00  0.00    +0.000 C 
ATOM     37  C   UNL     1      -2.470  10.888  15.997  0.00  0.00    +0.000 C 
ENDBRANCH  35  37
ENDBRANCH  29  35
ENDBRANCH  25  34
ENDBRANCH  24  27
ENDBRANCH  22  24
ENDBRANCH  21  22
ENDBRANCH  20  21
ENDBRANCH   1  20
TORSDOF 16
ENDMDL
MODEL 9
REMARK VINA RESULT:      -6.9      2.073      3.834
REMARK  Name = 
REMARK  18 active torsions:
REMARK  status: ('A' for Active; 'I' for Inactive)
REMARK    1  A    between atoms: C_1  and  C_2
REMARK    2  A    between atoms: C_2  and  O_3
REMARK    3  A    between atoms: O_3  and  C_4
REMARK    4  A    between atoms: C_9  and  C_10
REMARK    5  A    between atoms: N_12  and  C_13
REMARK    6  A    between atoms: C_13  and  C_14
REMARK    7  A    between atoms: C_14  and  O_16
REMARK    8  A    between atoms: O_16  and  C_17
REMARK    9  A    between atoms: C_17  and  C_18
REMARK   10  A    between atoms: C_18  and  C_19
REMARK   11  A    between atoms: C_19  and  O_20
REMARK   12  A    between atoms: O_20  and  C_21
REMARK   13  A    between atoms: C_21  and  C_23
REMARK   14  A    between atoms: C_23  and  N_24
REMARK   15  A    between atoms: C_25  and  C_27
REMARK   16  A    between atoms: C_32  and  O_33
REMARK   17  A    between atoms: O_33  and  C_34
REMARK   18  A    between atoms: C_34  and  C_35
REMARK                            x       y       z     vdW  Elec       q    Type
REMARK                         _______ _______ _______ _____ _____    ______ ____
ROOT
ATOM      1  C   UNL     1       1.357   2.576  19.269  0.00  0.00    +0.000 C 
ENDROOT
BRANCH   1   2
ATOM      2  C   UNL     1       1.203   3.205  20.647  0.00  0.00    +0.000 C 
BRANCH   2   3
ATOM      3  O   UNL     1       0.940   4.615  20.519  0.00  0.00    +0.000 OA
BRANCH   3   4
ATOM      4  C   UNL     1       1.592   5.260  19.512  0.00  0.00    +0.000 C 
ATOM      5  O   UNL     1       1.506   4.984  18.319  0.00  0.00    +0.000 OA
BRANCH   4   6
ATOM      6  C   UNL     1       2.492   6.351  20.067  0.00  0.00    +0.000 C 
BRANCH   6   7
ATOM      7  N   UNL     1       1.739   7.362  20.789  0.00  0.00    +0.000 N 
ATOM      8  C   UNL     1       1.358   8.534  20.164  0.00  0.00    +0.000 C 
ATOM      9  O   UNL     1       1.673   8.787  19.007  0.00  0.00    +0.000 OA
ATOM     10  H   UNL     1       1.643   7.255  21.789  0.00  0.00    +0.000 HD
BRANCH   8  11
ATOM     11  C   UNL     1       0.540   9.483  20.979  0.00  0.00    +0.000 A 
ATOM     12  C   UNL     1       0.318   9.126  22.323  0.00  0.00    +0.000 A 
ATOM     13  C   UNL     1      -0.409   9.954  23.180  0.00  0.00    +0.000 A 
ATOM     14  C   UNL     1      -0.888  11.171  22.716  0.00  0.00    +0.000 A 
ATOM     15  C   UNL     1      -0.650  11.548  21.393  0.00  0.00    +0.000 A 
ATOM     16  C   UNL     1       0.043  10.708  20.500  0.00  0.00    +0.000 A 
BRANCH  16  17
ATOM     17  O   UNL     1       0.133  11.266  19.251  0.00  0.00    +0.000 OA
BRANCH  17  18
ATOM     18  C   UNL     1      -1.068  11.508  18.525  0.00  0.00    +0.000 C 
ATOM     19  C   UNL     1      -1.519  10.221  17.854  0.00  0.00    +0.000 C 
ENDBRANCH  17  18
ENDBRANCH  16  17
ENDBRANCH   8  11
ENDBRANCH   6   7
ENDBRANCH   4   6
ENDBRANCH   3   4
ENDBRANCH   2   3
ENDBRANCH   1   2
BRANCH   1  20
ATOM     20  C   UNL     1       2.450   1.515  19.248  0.00  0.00    +0.000 C 
BRANCH  20  21
ATOM     21  O   UNL     1       3.654   2.050  18.664  0.00  0.00    +0.000 OA
BRANCH  21  22
ATOM     22  C   UNL     1       4.599   2.499  19.533  0.00  0.00    +0.000 C 
ATOM     23  O   UNL     1       4.958   1.909  20.549  0.00  0.00    +0.000 OA
BRANCH  22  24
ATOM     24  C   UNL     1       5.090   3.878  19.139  0.00  0.00    +0.000 C 
BRANCH  24  27
ATOM     25  C   UNL     1       5.140   4.583  16.778  0.00  0.00    +0.000 C 
ATOM     26  O   UNL     1       4.099   5.225  16.918  0.00  0.00    +0.000 OA
ATOM     27  N   UNL     1       5.691   3.877  17.818  0.00  0.00    +0.000 N 
ATOM     28  H   UNL     1       6.575   3.394  17.673  0.00  0.00    +0.000 HD
BRANCH  25  34
ATOM     29  C   UNL     1       7.059   5.113  15.125  0.00  0.00    +0.000 A 
ATOM     30  C   UNL     1       7.594   4.927  13.837  0.00  0.00    +0.000 A 
ATOM     31  C   UNL     1       6.866   4.275  12.841  0.00  0.00    +0.000 A 
ATOM     32  C   UNL     1       5.606   3.770  13.127  0.00  0.00    +0.000 A 
ATOM     33  C   UNL     1       5.093   3.888  14.418  0.00  0.00    +0.000 A 
ATOM     34  C   UNL     1       5.810   4.546  15.437  0.00  0.00    +0.000 A 
BRANCH  29  35
ATOM     35  O   UNL     1       7.719   5.838  16.087  0.00  0.00    +0.000 OA
BRANCH  35  37
ATOM     36  C   UNL     1       7.618   7.435  17.873  0.00  0.00    +0.000 C 
ATOM     37  C   UNL     1       7.044   7.023  16.531  0.00  0.00    +0.000 C 
ENDBRANCH  35  37
ENDBRANCH  29  35
ENDBRANCH  25  34
ENDBRANCH  24  27
ENDBRANCH  22  24
ENDBRANCH  21  22
ENDBRANCH  20  21
ENDBRANCH   1  20
TORSDOF 16
ENDMDL
