MODEL 1
REMARK VINA RESULT:      -7.2      0.000      0.000
REMARK  Name = 
REMARK  6 active torsions:
REMARK  status: ('A' for Active; 'I' for Inactive)
REMARK    1  A    between atoms: C_1  and  C_2
REMARK    2  A    between atoms: C_2  and  N_3
REMARK    3  A    between atoms: N_3  and  C_4
REMARK    4  A    between atoms: N_13  and  C_14
REMARK    5  A    between atoms: C_15  and  O_16
REMARK    6  A    between atoms: C_17  and  O_18
REMARK                            x       y       z     vdW  Elec       q    Type
REMARK                         _______ _______ _______ _____ _____    ______ ____
ROOT
ATOM      1  C   UNL     1       6.751   6.077  16.740  0.00  0.00    +0.000 A 
ATOM      2  N   UNL     1       6.550   5.551  15.505  0.00  0.00    +0.000 NA
ATOM      3  C   UNL     1       5.512   4.709  15.334  0.00  0.00    +0.000 A 
ATOM      4 CL   UNL     1       5.329   4.090  13.748  0.00  0.00    +0.000 Cl
ATOM      5  N   UNL     1       4.592   4.286  16.226  0.00  0.00    +0.000 NA
ATOM      6  C   UNL     1       4.823   4.839  17.427  0.00  0.00    +0.000 A 
ATOM      7  C   UNL     1       5.844   5.718  17.760  0.00  0.00    +0.000 A 
ATOM      8  N   UNL     1       5.761   6.091  19.084  0.00  0.00    +0.000 NA
ATOM      9  C   UNL     1       4.709   5.449  19.547  0.00  0.00    +0.000 A 
ATOM     10  N   UNL     1       4.117   4.662  18.588  0.00  0.00    +0.000 N 
ENDROOT
BRANCH  10  11
ATOM     11  C   UNL     1       2.947   3.837  18.816  0.00  0.00    +0.000 C 
ATOM     12  C   UNL     1       3.228   2.320  18.861  0.00  0.00    +0.000 C 
ATOM     13  C   UNL     1       2.007   1.743  19.625  0.00  0.00    +0.000 C 
ATOM     14  C   UNL     1       1.565   2.834  20.563  0.00  0.00    +0.000 C 
ATOM     15  C   UNL     1       0.709   4.024  20.193  0.00  0.00    +0.000 C 
ATOM     16  C   UNL     1       2.207   4.121  20.110  0.00  0.00    +0.000 C 
BRANCH  12  17
ATOM     17  O   UNL     1       3.317   1.775  17.544  0.00  0.00    +0.000 OA
ATOM     18  H   UNL     1       2.625   1.085  17.486  0.00  0.00    +0.000 HD
ENDBRANCH  12  17
BRANCH  13  19
ATOM     19  O   UNL     1       0.975   1.386  18.703  0.00  0.00    +0.000 OA
ATOM     20  H   UNL     1       1.372   0.926  17.946  0.00  0.00    +0.000 HD
ENDBRANCH  13  19
ENDBRANCH  10  11
BRANCH   1  21
ATOM     21  N   UNL     1       7.829   6.930  16.995  0.00  0.00    +0.000 N 
ATOM     22  H   UNL     1       8.527   6.447  17.561  0.00  0.00    +0.000 HD
BRANCH  21  24
ATOM     23  C   UNL     1       8.539   8.792  18.386  0.00  0.00    +0.000 C 
ATOM     24  C   UNL     1       7.486   8.277  17.417  0.00  0.00    +0.000 C 
ENDBRANCH  21  24
ENDBRANCH   1  21
TORSDOF 5
ENDMDL
MODEL 2
REMARK VINA RESULT:      -7.1      3.461      6.138
REMARK  Name = 
REMARK  6 active torsions:
REMARK  status: ('A' for Active; 'I' for Inactive)
REMARK    1  A    between atoms: C_1  and  C_2
REMARK    2  A    between atoms: C_2  and  N_3
REMARK    3  A    between atoms: N_3  and  C_4
REMARK    4  A    between atoms: N_13  and  C_14
REMARK    5  A    between atoms: C_15  and  O_16
REMARK    6  A    between atoms: C_17  and  O_18
REMARK                            x       y       z     vdW  Elec       q    Type
REMARK                         _______ _______ _______ _____ _____    ______ ____
ROOT
ATOM      1  C   UNL     1       2.696   5.775  19.746  0.00  0.00    +0.000 A 
ATOM      2  N   UNL     1       2.321   7.027  19.381  0.00  0.00    +0.000 NA
ATOM      3  C   UNL     1       2.809   7.525  18.227  0.00  0.00    +0.000 A 
ATOM      4 CL   UNL     1       2.288   9.109  17.840  0.00  0.00    +0.000 Cl
ATOM      5  N   UNL     1       3.641   6.958  17.330  0.00  0.00    +0.000 NA
ATOM      6  C   UNL     1       3.975   5.719  17.725  0.00  0.00    +0.000 A 
ATOM      7  C   UNL     1       3.559   5.070  18.879  0.00  0.00    +0.000 A 
ATOM      8  N   UNL     1       4.092   3.802  18.951  0.00  0.00    +0.000 NA
ATOM      9  C   UNL     1       4.818   3.682  17.859  0.00  0.00    +0.000 A 
ATOM     10  N   UNL     1       4.796   4.823  17.093  0.00  0.00    +0.000 N 
ENDROOT
BRANCH  10  11
ATOM     11  C   UNL     1       5.512   4.981  15.842  0.00  0.00    +0.000 C 
ATOM     12  C   UNL     1       7.050   4.987  15.977  0.00  0.00    +0.000 C 
ATOM     13  C   UNL     1       7.544   4.624  14.551  0.00  0.00    +0.000 C 
ATOM     14  C   UNL     1       6.469   3.751  13.961  0.00  0.00    +0.000 C 
ATOM     15  C   UNL     1       5.181   4.236  13.337  0.00  0.00    +0.000 C 
ATOM     16  C   UNL     1       5.230   3.911  14.805  0.00  0.00    +0.000 C 
BRANCH  12  17
ATOM     17  O   UNL     1       7.525   6.273  16.376  0.00  0.00    +0.000 OA
ATOM     18  H   UNL     1       8.422   6.364  15.994  0.00  0.00    +0.000 HD
ENDBRANCH  12  17
BRANCH  13  19
ATOM     19  O   UNL     1       7.744   5.812  13.783  0.00  0.00    +0.000 OA
ATOM     20  H   UNL     1       6.962   5.966  13.229  0.00  0.00    +0.000 HD
ENDBRANCH  13  19
ENDBRANCH  10  11
BRANCH   1  21
ATOM     21  N   UNL     1       2.255   5.210  20.947  0.00  0.00    +0.000 N 
ATOM     22  H   UNL     1       3.054   5.005  21.548  0.00  0.00    +0.000 HD
BRANCH  21  24
ATOM     23  C   UNL     1       1.723   2.929  21.592  0.00  0.00    +0.000 C 
ATOM     24  C   UNL     1       1.261   4.159  20.826  0.00  0.00    +0.000 C 
ENDBRANCH  21  24
ENDBRANCH   1  21
TORSDOF 5
ENDMDL
MODEL 3
REMARK VINA RESULT:      -7.1      2.652      3.914
REMARK  Name = 
REMARK  6 active torsions:
REMARK  status: ('A' for Active; 'I' for Inactive)
REMARK    1  A    between atoms: C_1  and  C_2
REMARK    2  A    between atoms: C_2  and  N_3
REMARK    3  A    between atoms: N_3  and  C_4
REMARK    4  A    between atoms: N_13  and  C_14
REMARK    5  A    between atoms: C_15  and  O_16
REMARK    6  A    between atoms: C_17  and  O_18
REMARK                            x       y       z     vdW  Elec       q    Type
REMARK                         _______ _______ _______ _____ _____    ______ ____
ROOT
ATOM      1  C   UNL     1       6.536   4.750  15.641  0.00  0.00    +0.000 A 
ATOM      2  N   UNL     1       7.227   5.857  16.013  0.00  0.00    +0.000 NA
ATOM      3  C   UNL     1       6.827   6.513  17.121  0.00  0.00    +0.000 A 
ATOM      4 CL   UNL     1       7.751   7.898  17.520  0.00  0.00    +0.000 Cl
ATOM      5  N   UNL     1       5.811   6.236  17.964  0.00  0.00    +0.000 NA
ATOM      6  C   UNL     1       5.165   5.129  17.564  0.00  0.00    +0.000 A 
ATOM      7  C   UNL     1       5.453   4.349  16.453  0.00  0.00    +0.000 A 
ATOM      8  N   UNL     1       4.587   3.281  16.362  0.00  0.00    +0.000 NA
ATOM      9  C   UNL     1       3.787   3.411  17.400  0.00  0.00    +0.000 A 
ATOM     10  N   UNL     1       4.083   4.525  18.148  0.00  0.00    +0.000 N 
ENDROOT
BRANCH  10  11
ATOM     11  C   UNL     1       3.362   4.923  19.341  0.00  0.00    +0.000 C 
ATOM     12  C   UNL     1       2.329   6.050  19.123  0.00  0.00    +0.000 C 
ATOM     13  C   UNL     1       1.369   5.907  20.334  0.00  0.00    +0.000 C 
ATOM     14  C   UNL     1       1.381   4.444  20.687  0.00  0.00    +0.000 C 
ATOM     15  C   UNL     1       2.438   3.741  21.506  0.00  0.00    +0.000 C 
ATOM     16  C   UNL     1       2.572   3.815  20.011  0.00  0.00    +0.000 C 
BRANCH  12  17
ATOM     17  O   UNL     1       2.961   7.331  19.115  0.00  0.00    +0.000 OA
ATOM     18  H   UNL     1       2.904   7.658  18.195  0.00  0.00    +0.000 HD
ENDBRANCH  12  17
BRANCH  13  19
ATOM     19  O   UNL     1       1.822   6.718  21.419  0.00  0.00    +0.000 OA
ATOM     20  H   UNL     1       1.666   6.247  22.253  0.00  0.00    +0.000 HD
ENDBRANCH  13  19
ENDBRANCH  10  11
BRANCH   1  21
ATOM     21  N   UNL     1       6.875   4.042  14.483  0.00  0.00    +0.000 N 
ATOM     22  H   UNL     1       7.832   4.263  14.209  0.00  0.00    +0.000 HD
BRANCH  21  24
ATOM     23  C   UNL     1       6.458   3.382  12.182  0.00  0.00    +0.000 C 
ATOM     24  C   UNL     1       5.886   4.057  13.419  0.00  0.00    +0.000 C 
ENDBRANCH  21  24
ENDBRANCH   1  21
TORSDOF 5
ENDMDL
MODEL 4
REMARK VINA RESULT:      -6.8      5.273      6.517
REMARK  Name = 
REMARK  6 active torsions:
REMARK  status: ('A' for Active; 'I' for Inactive)
REMARK    1  A    between atoms: C_1  and  C_2
REMARK    2  A    between atoms: C_2  and  N_3
REMARK    3  A    between atoms: N_3  and  C_4
REMARK    4  A    between atoms: N_13  and  C_14
REMARK    5  A    between atoms: C_15  and  O_16
REMARK    6  A    between atoms: C_17  and  O_18
REMARK                            x       y       z     vdW  Elec       q    Type
REMARK                         _______ _______ _______ _____ _____    ______ ____
ROOT
ATOM      1  C   UNL     1       0.697  10.332  19.293  0.00  0.00    +0.000 A 
ATOM      2  N   UNL     1       0.304  10.291  20.591  0.00  0.00    +0.000 NA
ATOM      3  C   UNL     1       0.659   9.221  21.330  0.00  0.00    +0.000 A 
ATOM      4 CL   UNL     1       0.123   9.249  22.956  0.00  0.00    +0.000 Cl
ATOM      5  N   UNL     1       1.379   8.136  20.980  0.00  0.00    +0.000 NA
ATOM      6  C   UNL     1       1.756   8.224  19.694  0.00  0.00    +0.000 A 
ATOM      7  C   UNL     1       1.470   9.254  18.809  0.00  0.00    +0.000 A 
ATOM      8  N   UNL     1       2.032   9.013  17.574  0.00  0.00    +0.000 NA
ATOM      9  C   UNL     1       2.647   7.856  17.707  0.00  0.00    +0.000 A 
ATOM     10  N   UNL     1       2.493   7.328  18.967  0.00  0.00    +0.000 N 
ENDROOT
BRANCH  10  11
ATOM     11  C   UNL     1       3.054   6.062  19.396  0.00  0.00    +0.000 C 
ATOM     12  C   UNL     1       2.057   4.882  19.392  0.00  0.00    +0.000 C 
ATOM     13  C   UNL     1       2.972   3.629  19.346  0.00  0.00    +0.000 C 
ATOM     14  C   UNL     1       4.209   4.060  18.604  0.00  0.00    +0.000 C 
ATOM     15  C   UNL     1       5.371   4.825  19.194  0.00  0.00    +0.000 C 
ATOM     16  C   UNL     1       4.224   5.567  18.566  0.00  0.00    +0.000 C 
BRANCH  12  17
ATOM     17  O   UNL     1       1.250   4.889  20.570  0.00  0.00    +0.000 OA
ATOM     18  H   UNL     1       1.169   3.955  20.852  0.00  0.00    +0.000 HD
ENDBRANCH  12  17
BRANCH  13  19
ATOM     19  O   UNL     1       3.273   3.192  20.672  0.00  0.00    +0.000 OA
ATOM     20  H   UNL     1       3.886   2.441  20.626  0.00  0.00    +0.000 HD
ENDBRANCH  13  19
ENDBRANCH  10  11
BRANCH   1  21
ATOM     21  N   UNL     1       0.334  11.395  18.460  0.00  0.00    +0.000 N 
ATOM     22  H   UNL     1       0.900  12.215  18.677  0.00  0.00    +0.000 HD
BRANCH  21  24
ATOM     23  C   UNL     1      -1.729  10.443  17.599  0.00  0.00    +0.000 C 
ATOM     24  C   UNL     1      -1.092  11.625  18.313  0.00  0.00    +0.000 C 
ENDBRANCH  21  24
ENDBRANCH   1  21
TORSDOF 5
ENDMDL
MODEL 5
REMARK VINA RESULT:      -6.8      3.405      6.409
REMARK  Name = 
REMARK  6 active torsions:
REMARK  status: ('A' for Active; 'I' for Inactive)
REMARK    1  A    between atoms: C_1  and  C_2
REMARK    2  A    between atoms: C_2  and  N_3
REMARK    3  A    between atoms: N_3  and  C_4
REMARK    4  A    between atoms: N_13  and  C_14
REMARK    5  A    between atoms: C_15  and  O_16
REMARK    6  A    between atoms: C_17  and  O_18
REMARK                            x       y       z     vdW  Elec       q    Type
REMARK                         _______ _______ _______ _____ _____    ______ ____
ROOT
ATOM      1  C   UNL     1       1.441   3.946  19.999  0.00  0.00    +0.000 A 
ATOM      2  N   UNL     1       1.356   5.246  20.379  0.00  0.00    +0.000 NA
ATOM      3  C   UNL     1       2.198   6.130  19.810  0.00  0.00    +0.000 A 
ATOM      4 CL   UNL     1       2.025   7.748  20.345  0.00  0.00    +0.000 Cl
ATOM      5  N   UNL     1       3.153   5.932  18.878  0.00  0.00    +0.000 NA
ATOM      6  C   UNL     1       3.193   4.637  18.524  0.00  0.00    +0.000 A 
ATOM      7  C   UNL     1       2.398   3.612  19.016  0.00  0.00    +0.000 A 
ATOM      8  N   UNL     1       2.710   2.413  18.413  0.00  0.00    +0.000 NA
ATOM      9  C   UNL     1       3.678   2.705  17.570  0.00  0.00    +0.000 A 
ATOM     10  N   UNL     1       4.020   4.036  17.613  0.00  0.00    +0.000 N 
ENDROOT
BRANCH  10  11
ATOM     11  C   UNL     1       5.059   4.639  16.801  0.00  0.00    +0.000 C 
ATOM     12  C   UNL     1       6.411   4.827  17.522  0.00  0.00    +0.000 C 
ATOM     13  C   UNL     1       7.432   4.953  16.359  0.00  0.00    +0.000 C 
ATOM     14  C   UNL     1       6.862   4.135  15.232  0.00  0.00    +0.000 C 
ATOM     15  C   UNL     1       5.786   4.585  14.270  0.00  0.00    +0.000 C 
ATOM     16  C   UNL     1       5.409   3.873  15.540  0.00  0.00    +0.000 C 
BRANCH  12  17
ATOM     17  O   UNL     1       6.402   6.005  18.330  0.00  0.00    +0.000 OA
ATOM     18  H   UNL     1       7.220   5.975  18.866  0.00  0.00    +0.000 HD
ENDBRANCH  12  17
BRANCH  13  19
ATOM     19  O   UNL     1       7.591   6.324  15.992  0.00  0.00    +0.000 OA
ATOM     20  H   UNL     1       8.379   6.681  16.432  0.00  0.00    +0.000 HD
ENDBRANCH  13  19
ENDBRANCH  10  11
BRANCH   1  21
ATOM     21  N   UNL     1       0.621   2.969  20.575  0.00  0.00    +0.000 N 
ATOM     22  H   UNL     1      -0.357   3.246  20.495  0.00  0.00    +0.000 HD
BRANCH  21  24
ATOM     23  C   UNL     1       2.558   2.362  21.911  0.00  0.00    +0.000 C 
ATOM     24  C   UNL     1       1.041   2.476  21.875  0.00  0.00    +0.000 C 
ENDBRANCH  21  24
ENDBRANCH   1  21
TORSDOF 5
ENDMDL
MODEL 6
REMARK VINA RESULT:      -6.8      2.471      3.128
REMARK  Name = 
REMARK  6 active torsions:
REMARK  status: ('A' for Active; 'I' for Inactive)
REMARK    1  A    between atoms: C_1  and  C_2
REMARK    2  A    between atoms: C_2  and  N_3
REMARK    3  A    between atoms: N_3  and  C_4
REMARK    4  A    between atoms: N_13  and  C_14
REMARK    5  A    between atoms: C_15  and  O_16
REMARK    6  A    between atoms: C_17  and  O_18
REMARK                            x       y       z     vdW  Elec       q    Type
REMARK                         _______ _______ _______ _____ _____    ______ ____
ROOT
ATOM      1  C   UNL     1       7.323   7.039  17.887  0.00  0.00    +0.000 A 
ATOM      2  N   UNL     1       8.093   6.503  18.868  0.00  0.00    +0.000 NA
ATOM      3  C   UNL     1       7.551   5.549  19.650  0.00  0.00    +0.000 A 
ATOM      4 CL   UNL     1       8.588   4.926  20.862  0.00  0.00    +0.000 Cl
ATOM      5  N   UNL     1       6.316   5.008  19.617  0.00  0.00    +0.000 NA
ATOM      6  C   UNL     1       5.596   5.559  18.627  0.00  0.00    +0.000 A 
ATOM      7  C   UNL     1       6.008   6.545  17.742  0.00  0.00    +0.000 A 
ATOM      8  N   UNL     1       5.007   6.858  16.849  0.00  0.00    +0.000 NA
ATOM      9  C   UNL     1       4.003   6.075  17.186  0.00  0.00    +0.000 A 
ATOM     10  N   UNL     1       4.303   5.283  18.269  0.00  0.00    +0.000 N 
ENDROOT
BRANCH  10  11
ATOM     11  C   UNL     1       3.385   4.330  18.863  0.00  0.00    +0.000 C 
ATOM     12  C   UNL     1       2.233   4.966  19.671  0.00  0.00    +0.000 C 
ATOM     13  C   UNL     1       1.158   3.847  19.719  0.00  0.00    +0.000 C 
ATOM     14  C   UNL     1       1.341   3.057  18.451  0.00  0.00    +0.000 C 
ATOM     15  C   UNL     1       2.379   1.982  18.222  0.00  0.00    +0.000 C 
ATOM     16  C   UNL     1       2.689   3.412  17.876  0.00  0.00    +0.000 C 
BRANCH  12  17
ATOM     17  O   UNL     1       2.664   5.323  20.985  0.00  0.00    +0.000 OA
ATOM     18  H   UNL     1       3.349   4.670  21.235  0.00  0.00    +0.000 HD
ENDBRANCH  12  17
BRANCH  13  19
ATOM     19  O   UNL     1       1.345   3.037  20.881  0.00  0.00    +0.000 OA
ATOM     20  H   UNL     1       1.298   3.599  21.671  0.00  0.00    +0.000 HD
ENDBRANCH  13  19
ENDBRANCH  10  11
BRANCH   1  21
ATOM     21  N   UNL     1       7.810   8.058  17.061  0.00  0.00    +0.000 N 
ATOM     22  H   UNL     1       8.729   7.803  16.700  0.00  0.00    +0.000 HD
BRANCH  21  24
ATOM     23  C   UNL     1       8.869   9.731  18.469  0.00  0.00    +0.000 C 
ATOM     24  C   UNL     1       7.679   9.409  17.578  0.00  0.00    +0.000 C 
ENDBRANCH  21  24
ENDBRANCH   1  21
TORSDOF 5
ENDMDL
MODEL 7
REMARK VINA RESULT:      -6.7      5.196      6.172
REMARK  Name = 
REMARK  6 active torsions:
REMARK  status: ('A' for Active; 'I' for Inactive)
REMARK    1  A    between atoms: C_1  and  C_2
REMARK    2  A    between atoms: C_2  and  N_3
REMARK    3  A    between atoms: N_3  and  C_4
REMARK    4  A    between atoms: N_13  and  C_14
REMARK    5  A    between atoms: C_15  and  O_16
REMARK    6  A    between atoms: C_17  and  O_18
REMARK                            x       y       z     vdW  Elec       q    Type
REMARK                         _______ _______ _______ _____ _____    ______ ____
ROOT
ATOM      1  C   UNL     1       0.778  10.320  19.238  0.00  0.00    +0.000 A 
ATOM      2  N   UNL     1       0.321  10.268  20.515  0.00  0.00    +0.000 NA
ATOM      3  C   UNL     1       0.621   9.182  21.254  0.00  0.00    +0.000 A 
ATOM      4 CL   UNL     1       0.006   9.196  22.852  0.00  0.00    +0.000 Cl
ATOM      5  N   UNL     1       1.339   8.088  20.923  0.00  0.00    +0.000 NA
ATOM      6  C   UNL     1       1.780   8.189  19.659  0.00  0.00    +0.000 A 
ATOM      7  C   UNL     1       1.556   9.235  18.776  0.00  0.00    +0.000 A 
ATOM      8  N   UNL     1       2.174   9.002  17.568  0.00  0.00    +0.000 NA
ATOM      9  C   UNL     1       2.763   7.833  17.713  0.00  0.00    +0.000 A 
ATOM     10  N   UNL     1       2.538   7.290  18.956  0.00  0.00    +0.000 N 
ENDROOT
BRANCH  10  11
ATOM     11  C   UNL     1       3.056   6.008  19.393  0.00  0.00    +0.000 C 
ATOM     12  C   UNL     1       2.018   4.864  19.401  0.00  0.00    +0.000 C 
ATOM     13  C   UNL     1       2.889   3.580  19.362  0.00  0.00    +0.000 C 
ATOM     14  C   UNL     1       4.138   3.961  18.613  0.00  0.00    +0.000 C 
ATOM     15  C   UNL     1       5.328   4.690  19.193  0.00  0.00    +0.000 C 
ATOM     16  C   UNL     1       4.205   5.467  18.563  0.00  0.00    +0.000 C 
BRANCH  12  17
ATOM     17  O   UNL     1       1.216   4.908  20.582  0.00  0.00    +0.000 OA
ATOM     18  H   UNL     1       1.226   4.002  20.953  0.00  0.00    +0.000 HD
ENDBRANCH  12  17
BRANCH  13  19
ATOM     19  O   UNL     1       3.180   3.143  20.690  0.00  0.00    +0.000 OA
ATOM     20  H   UNL     1       4.142   3.098  20.805  0.00  0.00    +0.000 HD
ENDBRANCH  13  19
ENDBRANCH  10  11
BRANCH   1  21
ATOM     21  N   UNL     1       0.474  11.401  18.405  0.00  0.00    +0.000 N 
ATOM     22  H   UNL     1       0.587  11.129  17.428  0.00  0.00    +0.000 HD
BRANCH  21  24
ATOM     23  C   UNL     1       2.450  12.798  18.184  0.00  0.00    +0.000 C 
ATOM     24  C   UNL     1       1.058  12.676  18.783  0.00  0.00    +0.000 C 
ENDBRANCH  21  24
ENDBRANCH   1  21
TORSDOF 5
ENDMDL
MODEL 8
REMARK VINA RESULT:      -6.7      2.479      3.468
REMARK  Name = 
REMARK  6 active torsions:
REMARK  status: ('A' for Active; 'I' for Inactive)
REMARK    1  A    between atoms: C_1  and  C_2
REMARK    2  A    between atoms: C_2  and  N_3
REMARK    3  A    between atoms: N_3  and  C_4
REMARK    4  A    between atoms: N_13  and  C_14
REMARK    5  A    between atoms: C_15  and  O_16
REMARK    6  A    between atoms: C_17  and  O_18
REMARK                            x       y       z     vdW  Elec       q    Type
REMARK                         _______ _______ _______ _____ _____    ______ ____
ROOT
ATOM      1  C   UNL     1       7.008   5.354  16.367  0.00  0.00    +0.000 A 
ATOM      2  N   UNL     1       7.751   5.608  17.474  0.00  0.00    +0.000 NA
ATOM      3  C   UNL     1       7.212   5.336  18.678  0.00  0.00    +0.000 A 
ATOM      4 CL   UNL     1       8.215   5.686  20.021  0.00  0.00    +0.000 Cl
ATOM      5  N   UNL     1       6.001   4.825  18.982  0.00  0.00    +0.000 NA
ATOM      6  C   UNL     1       5.306   4.579  17.860  0.00  0.00    +0.000 A 
ATOM      7  C   UNL     1       5.721   4.803  16.555  0.00  0.00    +0.000 A 
ATOM      8  N   UNL     1       4.750   4.419  15.656  0.00  0.00    +0.000 NA
ATOM      9  C   UNL     1       3.763   3.969  16.403  0.00  0.00    +0.000 A 
ATOM     10  N   UNL     1       4.043   4.063  17.745  0.00  0.00    +0.000 N 
ENDROOT
BRANCH  10  11
ATOM     11  C   UNL     1       3.136   3.652  18.799  0.00  0.00    +0.000 C 
ATOM     12  C   UNL     1       2.431   4.814  19.531  0.00  0.00    +0.000 C 
ATOM     13  C   UNL     1       1.188   4.143  20.173  0.00  0.00    +0.000 C 
ATOM     14  C   UNL     1       0.825   3.005  19.257  0.00  0.00    +0.000 C 
ATOM     15  C   UNL     1       1.485   1.646  19.233  0.00  0.00    +0.000 C 
ATOM     16  C   UNL     1       2.003   2.748  18.351  0.00  0.00    +0.000 C 
BRANCH  12  17
ATOM     17  O   UNL     1       3.281   5.384  20.527  0.00  0.00    +0.000 OA
ATOM     18  H   UNL     1       3.833   6.049  20.068  0.00  0.00    +0.000 HD
ENDBRANCH  12  17
BRANCH  13  19
ATOM     19  O   UNL     1       1.502   3.685  21.489  0.00  0.00    +0.000 OA
ATOM     20  H   UNL     1       0.676   3.505  21.967  0.00  0.00    +0.000 HD
ENDBRANCH  13  19
ENDBRANCH  10  11
BRANCH   1  21
ATOM     21  N   UNL     1       7.493   5.644  15.088  0.00  0.00    +0.000 N 
ATOM     22  H   UNL     1       7.338   6.629  14.873  0.00  0.00    +0.000 HD
BRANCH  21  24
ATOM     23  C   UNL     1       7.752   5.135  12.726  0.00  0.00    +0.000 C 
ATOM     24  C   UNL     1       7.133   4.699  14.045  0.00  0.00    +0.000 C 
ENDBRANCH  21  24
ENDBRANCH   1  21
TORSDOF 5
ENDMDL
MODEL 9
REMARK VINA RESULT:      -6.6      4.067      5.156
REMARK  Name = 
REMARK  6 active torsions:
REMARK  status: ('A' for Active; 'I' for Inactive)
REMARK    1  A    between atoms: C_1  and  C_2
REMARK    2  A    between atoms: C_2  and  N_3
REMARK    3  A    between atoms: N_3  and  C_4
REMARK    4  A    between atoms: N_13  and  C_14
REMARK    5  A    between atoms: C_15  and  O_16
REMARK    6  A    between atoms: C_17  and  O_18
REMARK                            x       y       z     vdW  Elec       q    Type
REMARK                         _______ _______ _______ _____ _____    ______ ____
ROOT
ATOM      1  C   UNL     1       4.761   4.187  17.586  0.00  0.00    +0.000 A 
ATOM      2  N   UNL     1       4.026   3.222  18.194  0.00  0.00    +0.000 NA
ATOM      3  C   UNL     1       2.895   3.589  18.828  0.00  0.00    +0.000 A 
ATOM      4 CL   UNL     1       2.028   2.311  19.568  0.00  0.00    +0.000 Cl
ATOM      5  N   UNL     1       2.343   4.812  18.962  0.00  0.00    +0.000 NA
ATOM      6  C   UNL     1       3.095   5.731  18.337  0.00  0.00    +0.000 A 
ATOM      7  C   UNL     1       4.278   5.513  17.645  0.00  0.00    +0.000 A 
ATOM      8  N   UNL     1       4.768   6.689  17.121  0.00  0.00    +0.000 NA
ATOM      9  C   UNL     1       3.897   7.606  17.488  0.00  0.00    +0.000 A 
ATOM     10  N   UNL     1       2.876   7.080  18.243  0.00  0.00    +0.000 N 
ENDROOT
BRANCH  10  11
ATOM     11  C   UNL     1       1.781   7.857  18.791  0.00  0.00    +0.000 C 
ATOM     12  C   UNL     1       1.919   8.195  20.291  0.00  0.00    +0.000 C 
ATOM     13  C   UNL     1       0.981   9.416  20.480  0.00  0.00    +0.000 C 
ATOM     14  C   UNL     1       0.986  10.138  19.159  0.00  0.00    +0.000 C 
ATOM     15  C   UNL     1       0.170   9.761  17.944  0.00  0.00    +0.000 C 
ATOM     16  C   UNL     1       1.553   9.200  18.123  0.00  0.00    +0.000 C 
BRANCH  12  17
ATOM     17  O   UNL     1       1.506   7.096  21.105  0.00  0.00    +0.000 OA
ATOM     18  H   UNL     1       0.598   6.869  20.817  0.00  0.00    +0.000 HD
ENDBRANCH  12  17
BRANCH  13  19
ATOM     19  O   UNL     1      -0.330   8.977  20.840  0.00  0.00    +0.000 OA
ATOM     20  H   UNL     1      -0.971   9.344  20.210  0.00  0.00    +0.000 HD
ENDBRANCH  13  19
ENDBRANCH  10  11
BRANCH   1  21
ATOM     21  N   UNL     1       5.963   3.882  16.940  0.00  0.00    +0.000 N 
ATOM     22  H   UNL     1       6.708   4.485  17.289  0.00  0.00    +0.000 HD
BRANCH  21  24
ATOM     23  C   UNL     1       6.819   4.732  14.831  0.00  0.00    +0.000 C 
ATOM     24  C   UNL     1       5.887   3.733  15.497  0.00  0.00    +0.000 C 
ENDBRANCH  21  24
ENDBRANCH   1  21
TORSDOF 5
ENDMDL
