MODEL 1
REMARK VINA RESULT:      -9.0      0.000      0.000
REMARK  Name = 
REMARK  5 active torsions:
REMARK  status: ('A' for Active; 'I' for Inactive)
REMARK    1  A    between atoms: C_1  and  C_2
REMARK    2  A    between atoms: C_2  and  C_3
REMARK    3  A    between atoms: C_16  and  C_17
REMARK    4  A    between atoms: C_16  and  C_18
REMARK    5  A    between atoms: C_22  and  C_23
REMARK                            x       y       z     vdW  Elec       q    Type
REMARK                         _______ _______ _______ _____ _____    ______ ____
ROOT
ATOM      1  C   UNL     1       3.234   2.449  19.135  0.00  0.00    +0.000 A 
ATOM      2  C   UNL     1       3.704   2.436  20.411  0.00  0.00    +0.000 A 
ATOM      3  F   UNL     1       4.979   2.831  20.643  0.00  0.00    +0.000 F 
ATOM      4  C   UNL     1       2.762   3.292  21.216  0.00  0.00    +0.000 A 
ATOM      5  O   UNL     1       1.998   2.939  22.098  0.00  0.00    +0.000 OA
ATOM      6  O   UNL     1       2.842   4.587  20.805  0.00  0.00    +0.000 OA
ATOM      7  C   UNL     1       2.846   4.809  19.409  0.00  0.00    +0.000 A 
ATOM      8  C   UNL     1       2.553   6.131  19.116  0.00  0.00    +0.000 A 
ATOM      9  C   UNL     1       3.156   6.724  18.051  0.00  0.00    +0.000 A 
ATOM     10  C   UNL     1       4.006   5.952  17.261  0.00  0.00    +0.000 A 
ATOM     11  C   UNL     1       4.155   4.515  17.405  0.00  0.00    +0.000 A 
ATOM     12  C   UNL     1       3.435   3.876  18.510  0.00  0.00    +0.000 A 
ATOM     13  O   UNL     1       5.065   3.881  16.526  0.00  0.00    +0.000 OA
ATOM     14  C   UNL     1       5.710   4.639  15.390  0.00  0.00    +0.000 C 
ATOM     15  C   UNL     1       7.233   4.361  15.230  0.00  0.00    +0.000 C 
ATOM     16  C   UNL     1       5.052   4.290  14.046  0.00  0.00    +0.000 C 
ATOM     17  C   UNL     1       5.632   6.134  15.499  0.00  0.00    +0.000 C 
ATOM     18  C   UNL     1       4.859   6.746  16.345  0.00  0.00    +0.000 C 
ATOM     19  O   UNL     1       3.082   8.082  17.822  0.00  0.00    +0.000 OA
ATOM     20  C   UNL     1       1.922   8.701  18.373  0.00  0.00    +0.000 C 
ATOM     21  C   UNL     1       2.065  10.202  18.169  0.00  0.00    +0.000 C 
ATOM     22  C   UNL     1       1.780   8.418  19.851  0.00  0.00    +0.000 C 
ATOM     23  C   UNL     1       1.730   6.941  20.046  0.00  0.00    +0.000 C 
ATOM     24  O   UNL     1       1.065   6.438  20.939  0.00  0.00    +0.000 OA
ENDROOT
BRANCH   1  26
ATOM     25  C   UNL     1       0.475   2.413  18.700  0.00  0.00    +0.000 C 
ATOM     26  C   UNL     1       1.832   1.663  19.054  0.00  0.00    +0.000 C 
ENDBRANCH   1  26
TORSDOF 1
ENDMDL
MODEL 2
REMARK VINA RESULT:      -8.4      1.788      5.614
REMARK  Name = 
REMARK  5 active torsions:
REMARK  status: ('A' for Active; 'I' for Inactive)
REMARK    1  A    between atoms: C_1  and  C_2
REMARK    2  A    between atoms: C_2  and  C_3
REMARK    3  A    between atoms: C_16  and  C_17
REMARK    4  A    between atoms: C_16  and  C_18
REMARK    5  A    between atoms: C_22  and  C_23
REMARK                            x       y       z     vdW  Elec       q    Type
REMARK                         _______ _______ _______ _____ _____    ______ ____
ROOT
ATOM      1  C   UNL     1       5.825   6.462  16.569  0.00  0.00    +0.000 A 
ATOM      2  C   UNL     1       7.037   6.426  17.187  0.00  0.00    +0.000 A 
ATOM      3  F   UNL     1       7.271   7.274  18.217  0.00  0.00    +0.000 F 
ATOM      4  C   UNL     1       7.229   5.007  17.654  0.00  0.00    +0.000 A 
ATOM      5  O   UNL     1       8.044   4.192  17.257  0.00  0.00    +0.000 OA
ATOM      6  O   UNL     1       6.314   4.705  18.615  0.00  0.00    +0.000 OA
ATOM      7  C   UNL     1       4.981   5.103  18.368  0.00  0.00    +0.000 A 
ATOM      8  C   UNL     1       4.100   4.431  19.200  0.00  0.00    +0.000 A 
ATOM      9  C   UNL     1       2.993   5.078  19.655  0.00  0.00    +0.000 A 
ATOM     10  C   UNL     1       2.762   6.380  19.213  0.00  0.00    +0.000 A 
ATOM     11  C   UNL     1       3.538   7.025  18.170  0.00  0.00    +0.000 A 
ATOM     12  C   UNL     1       4.682   6.284  17.632  0.00  0.00    +0.000 A 
ATOM     13  O   UNL     1       3.178   8.355  17.843  0.00  0.00    +0.000 OA
ATOM     14  C   UNL     1       1.943   8.995  18.430  0.00  0.00    +0.000 C 
ATOM     15  C   UNL     1       2.162  10.457  18.919  0.00  0.00    +0.000 C 
ATOM     16  C   UNL     1       0.800   9.038  17.405  0.00  0.00    +0.000 C 
ATOM     17  C   UNL     1       1.378   8.300  19.633  0.00  0.00    +0.000 C 
ATOM     18  C   UNL     1       1.739   7.108  20.001  0.00  0.00    +0.000 C 
ATOM     19  O   UNL     1       2.188   4.556  20.646  0.00  0.00    +0.000 OA
ATOM     20  C   UNL     1       2.224   3.134  20.734  0.00  0.00    +0.000 C 
ATOM     21  C   UNL     1       1.413   2.732  21.957  0.00  0.00    +0.000 C 
ATOM     22  C   UNL     1       3.635   2.615  20.889  0.00  0.00    +0.000 C 
ATOM     23  C   UNL     1       4.442   3.090  19.729  0.00  0.00    +0.000 C 
ATOM     24  O   UNL     1       5.347   2.414  19.264  0.00  0.00    +0.000 OA
ENDROOT
BRANCH   1  26
ATOM     25  C   UNL     1       5.186   4.178  15.092  0.00  0.00    +0.000 C 
ATOM     26  C   UNL     1       5.874   5.609  15.206  0.00  0.00    +0.000 C 
ENDBRANCH   1  26
TORSDOF 1
ENDMDL
MODEL 3
REMARK VINA RESULT:      -7.4      7.505     10.808
REMARK  Name = 
REMARK  5 active torsions:
REMARK  status: ('A' for Active; 'I' for Inactive)
REMARK    1  A    between atoms: C_1  and  C_2
REMARK    2  A    between atoms: C_2  and  C_3
REMARK    3  A    between atoms: C_16  and  C_17
REMARK    4  A    between atoms: C_16  and  C_18
REMARK    5  A    between atoms: C_22  and  C_23
REMARK                            x       y       z     vdW  Elec       q    Type
REMARK                         _______ _______ _______ _____ _____    ______ ____
ROOT
ATOM      1  C   UNL     1      -1.265  12.861  22.173  0.00  0.00    +0.000 A 
ATOM      2  C   UNL     1      -0.914  11.692  22.774  0.00  0.00    +0.000 A 
ATOM      3  F   UNL     1      -1.890  10.863  23.213  0.00  0.00    +0.000 F 
ATOM      4  C   UNL     1      -0.041  10.959  21.788  0.00  0.00    +0.000 A 
ATOM      5  O   UNL     1       1.147  10.706  21.884  0.00  0.00    +0.000 OA
ATOM      6  O   UNL     1      -0.769  10.609  20.692  0.00  0.00    +0.000 OA
ATOM      7  C   UNL     1      -1.618  11.600  20.153  0.00  0.00    +0.000 A 
ATOM      8  C   UNL     1      -2.005  11.275  18.863  0.00  0.00    +0.000 A 
ATOM      9  C   UNL     1      -3.254  11.608  18.441  0.00  0.00    +0.000 A 
ATOM     10  C   UNL     1      -4.077  12.321  19.312  0.00  0.00    +0.000 A 
ATOM     11  C   UNL     1      -3.623  12.873  20.575  0.00  0.00    +0.000 A 
ATOM     12  C   UNL     1      -2.248  12.571  20.982  0.00  0.00    +0.000 A 
ATOM     13  O   UNL     1      -4.587  13.566  21.347  0.00  0.00    +0.000 OA
ATOM     14  C   UNL     1      -5.962  13.858  20.797  0.00  0.00    +0.000 C 
ATOM     15  C   UNL     1      -7.116  13.589  21.806  0.00  0.00    +0.000 C 
ATOM     16  C   UNL     1      -6.086  15.328  20.365  0.00  0.00    +0.000 C 
ATOM     17  C   UNL     1      -6.349  13.052  19.592  0.00  0.00    +0.000 C 
ATOM     18  C   UNL     1      -5.501  12.349  18.904  0.00  0.00    +0.000 C 
ATOM     19  O   UNL     1      -3.785  11.137  17.258  0.00  0.00    +0.000 OA
ATOM     20  C   UNL     1      -2.807  10.799  16.277  0.00  0.00    +0.000 C 
ATOM     21  C   UNL     1      -3.537  10.160  15.106  0.00  0.00    +0.000 C 
ATOM     22  C   UNL     1      -1.786   9.821  16.812  0.00  0.00    +0.000 C 
ATOM     23  C   UNL     1      -1.140  10.423  18.013  0.00  0.00    +0.000 C 
ATOM     24  O   UNL     1       0.030  10.202  18.285  0.00  0.00    +0.000 OA
ENDROOT
BRANCH   1  26
ATOM     25  C   UNL     1       0.265  14.678  20.702  0.00  0.00    +0.000 C 
ATOM     26  C   UNL     1       0.023  13.812  22.015  0.00  0.00    +0.000 C 
ENDBRANCH   1  26
TORSDOF 1
ENDMDL
MODEL 4
REMARK VINA RESULT:      -7.1      6.926     10.848
REMARK  Name = 
REMARK  5 active torsions:
REMARK  status: ('A' for Active; 'I' for Inactive)
REMARK    1  A    between atoms: C_1  and  C_2
REMARK    2  A    between atoms: C_2  and  C_3
REMARK    3  A    between atoms: C_16  and  C_17
REMARK    4  A    between atoms: C_16  and  C_18
REMARK    5  A    between atoms: C_22  and  C_23
REMARK                            x       y       z     vdW  Elec       q    Type
REMARK                         _______ _______ _______ _____ _____    ______ ____
ROOT
ATOM      1  C   UNL     1      -0.071  11.742  20.796  0.00  0.00    +0.000 A 
ATOM      2  C   UNL     1       0.178  10.427  20.551  0.00  0.00    +0.000 A 
ATOM      3  F   UNL     1      -0.502   9.490  21.254  0.00  0.00    +0.000 F 
ATOM      4  C   UNL     1      -0.063  10.220  19.079  0.00  0.00    +0.000 A 
ATOM      5  O   UNL     1       0.755   9.949  18.217  0.00  0.00    +0.000 OA
ATOM      6  O   UNL     1      -1.380  10.407  18.792  0.00  0.00    +0.000 OA
ATOM      7  C   UNL     1      -2.001  11.537  19.370  0.00  0.00    +0.000 A 
ATOM      8  C   UNL     1      -3.192  11.833  18.728  0.00  0.00    +0.000 A 
ATOM      9  C   UNL     1      -4.233  12.324  19.453  0.00  0.00    +0.000 A 
ATOM     10  C   UNL     1      -4.034  12.565  20.812  0.00  0.00    +0.000 A 
ATOM     11  C   UNL     1      -2.740  12.482  21.463  0.00  0.00    +0.000 A 
ATOM     12  C   UNL     1      -1.609  12.026  20.648  0.00  0.00    +0.000 A 
ATOM     13  O   UNL     1      -2.710  12.750  22.853  0.00  0.00    +0.000 OA
ATOM     14  C   UNL     1      -3.934  13.264  23.574  0.00  0.00    +0.000 C 
ATOM     15  C   UNL     1      -4.200  12.567  24.940  0.00  0.00    +0.000 C 
ATOM     16  C   UNL     1      -3.819  14.769  23.859  0.00  0.00    +0.000 C 
ATOM     17  C   UNL     1      -5.227  13.093  22.831  0.00  0.00    +0.000 C 
ATOM     18  C   UNL     1      -5.288  12.777  21.573  0.00  0.00    +0.000 C 
ATOM     19  O   UNL     1      -5.505  12.442  18.933  0.00  0.00    +0.000 OA
ATOM     20  C   UNL     1      -5.541  12.585  17.516  0.00  0.00    +0.000 C 
ATOM     21  C   UNL     1      -7.002  12.549  17.091  0.00  0.00    +0.000 C 
ATOM     22  C   UNL     1      -4.799  11.469  16.817  0.00  0.00    +0.000 C 
ATOM     23  C   UNL     1      -3.391  11.459  17.308  0.00  0.00    +0.000 C 
ATOM     24  O   UNL     1      -2.465  11.136  16.580  0.00  0.00    +0.000 OA
ENDROOT
BRANCH   1  26
ATOM     25  C   UNL     1       0.671  14.035  19.384  0.00  0.00    +0.000 C 
ATOM     26  C   UNL     1       1.046  12.658  20.088  0.00  0.00    +0.000 C 
ENDBRANCH   1  26
TORSDOF 1
ENDMDL
MODEL 5
REMARK VINA RESULT:      -7.0      6.677     10.571
REMARK  Name = 
REMARK  5 active torsions:
REMARK  status: ('A' for Active; 'I' for Inactive)
REMARK    1  A    between atoms: C_1  and  C_2
REMARK    2  A    between atoms: C_2  and  C_3
REMARK    3  A    between atoms: C_16  and  C_17
REMARK    4  A    between atoms: C_16  and  C_18
REMARK    5  A    between atoms: C_22  and  C_23
REMARK                            x       y       z     vdW  Elec       q    Type
REMARK                         _______ _______ _______ _____ _____    ______ ____
ROOT
ATOM      1  C   UNL     1      -3.226  14.176  21.833  0.00  0.00    +0.000 A 
ATOM      2  C   UNL     1      -3.066  13.673  23.086  0.00  0.00    +0.000 A 
ATOM      3  F   UNL     1      -3.709  12.529  23.419  0.00  0.00    +0.000 F 
ATOM      4  C   UNL     1      -1.583  13.486  23.278  0.00  0.00    +0.000 A 
ATOM      5  O   UNL     1      -0.846  14.087  24.040  0.00  0.00    +0.000 OA
ATOM      6  O   UNL     1      -1.121  12.526  22.431  0.00  0.00    +0.000 OA
ATOM      7  C   UNL     1      -1.571  12.591  21.094  0.00  0.00    +0.000 A 
ATOM      8  C   UNL     1      -0.769  11.827  20.262  0.00  0.00    +0.000 A 
ATOM      9  C   UNL     1      -1.334  11.176  19.210  0.00  0.00    +0.000 A 
ATOM     10  C   UNL     1      -2.697  11.356  18.978  0.00  0.00    +0.000 A 
ATOM     11  C   UNL     1      -3.513  12.324  19.688  0.00  0.00    +0.000 A 
ATOM     12  C   UNL     1      -2.870  13.076  20.770  0.00  0.00    +0.000 A 
ATOM     13  O   UNL     1      -4.884  12.376  19.338  0.00  0.00    +0.000 OA
ATOM     14  C   UNL     1      -5.420  11.587  18.167  0.00  0.00    +0.000 C 
ATOM     15  C   UNL     1      -6.766  10.861  18.459  0.00  0.00    +0.000 C 
ATOM     16  C   UNL     1      -5.661  12.494  16.951  0.00  0.00    +0.000 C 
ATOM     17  C   UNL     1      -4.523  10.488  17.678  0.00  0.00    +0.000 C 
ATOM     18  C   UNL     1      -3.280  10.371  18.036  0.00  0.00    +0.000 C 
ATOM     19  O   UNL     1      -0.650  10.236  18.469  0.00  0.00    +0.000 OA
ATOM     20  C   UNL     1       0.765  10.409  18.476  0.00  0.00    +0.000 C 
ATOM     21  C   UNL     1       1.374   9.218  17.750  0.00  0.00    +0.000 C 
ATOM     22  C   UNL     1       1.319  10.462  19.882  0.00  0.00    +0.000 C 
ATOM     23  C   UNL     1       0.650  11.578  20.610  0.00  0.00    +0.000 C 
ATOM     24  O   UNL     1       1.239  12.227  21.460  0.00  0.00    +0.000 OA
ENDROOT
BRANCH   1  26
ATOM     25  C   UNL     1      -1.989  16.245  20.420  0.00  0.00    +0.000 C 
ATOM     26  C   UNL     1      -2.635  15.670  21.757  0.00  0.00    +0.000 C 
ENDBRANCH   1  26
TORSDOF 1
ENDMDL
MODEL 6
REMARK VINA RESULT:      -6.7      8.045     11.563
REMARK  Name = 
REMARK  5 active torsions:
REMARK  status: ('A' for Active; 'I' for Inactive)
REMARK    1  A    between atoms: C_1  and  C_2
REMARK    2  A    between atoms: C_2  and  C_3
REMARK    3  A    between atoms: C_16  and  C_17
REMARK    4  A    between atoms: C_16  and  C_18
REMARK    5  A    between atoms: C_22  and  C_23
REMARK                            x       y       z     vdW  Elec       q    Type
REMARK                         _______ _______ _______ _____ _____    ______ ____
ROOT
ATOM      1  C   UNL     1      -2.270  14.242  22.011  0.00  0.00    +0.000 A 
ATOM      2  C   UNL     1      -1.485  13.433  22.774  0.00  0.00    +0.000 A 
ATOM      3  F   UNL     1      -2.050  12.370  23.395  0.00  0.00    +0.000 F 
ATOM      4  C   UNL     1      -0.374  12.955  21.876  0.00  0.00    +0.000 A 
ATOM      5  O   UNL     1       0.813  13.221  21.947  0.00  0.00    +0.000 OA
ATOM      6  O   UNL     1      -0.879  12.161  20.893  0.00  0.00    +0.000 OA
ATOM      7  C   UNL     1      -2.048  12.619  20.245  0.00  0.00    +0.000 A 
ATOM      8  C   UNL     1      -2.248  11.950  19.048  0.00  0.00    +0.000 A 
ATOM      9  C   UNL     1      -3.518  11.677  18.646  0.00  0.00    +0.000 A 
ATOM     10  C   UNL     1      -4.573  12.137  19.432  0.00  0.00    +0.000 A 
ATOM     11  C   UNL     1      -4.404  13.032  20.562  0.00  0.00    +0.000 A 
ATOM     12  C   UNL     1      -3.030  13.382  20.937  0.00  0.00    +0.000 A 
ATOM     13  O   UNL     1      -5.578  13.401  21.261  0.00  0.00    +0.000 OA
ATOM     14  C   UNL     1      -6.945  13.018  20.746  0.00  0.00    +0.000 C 
ATOM     15  C   UNL     1      -7.908  12.485  21.846  0.00  0.00    +0.000 C 
ATOM     16  C   UNL     1      -7.645  14.217  20.087  0.00  0.00    +0.000 C 
ATOM     17  C   UNL     1      -6.952  11.931  19.712  0.00  0.00    +0.000 C 
ATOM     18  C   UNL     1      -5.880  11.521  19.103  0.00  0.00    +0.000 C 
ATOM     19  O   UNL     1      -3.793  10.837  17.586  0.00  0.00    +0.000 OA
ATOM     20  C   UNL     1      -2.745  10.758  16.623  0.00  0.00    +0.000 C 
ATOM     21  C   UNL     1      -3.135   9.690  15.612  0.00  0.00    +0.000 C 
ATOM     22  C   UNL     1      -1.425  10.379  17.253  0.00  0.00    +0.000 C 
ATOM     23  C   UNL     1      -1.098  11.386  18.303  0.00  0.00    +0.000 C 
ATOM     24  O   UNL     1       0.056  11.703  18.544  0.00  0.00    +0.000 OA
ENDROOT
BRANCH   1  26
ATOM     25  C   UNL     1      -1.721  16.341  20.251  0.00  0.00    +0.000 C 
ATOM     26  C   UNL     1      -1.473  15.586  21.630  0.00  0.00    +0.000 C 
ENDBRANCH   1  26
TORSDOF 1
ENDMDL
MODEL 7
REMARK VINA RESULT:      -6.6      9.140     10.796
REMARK  Name = 
REMARK  5 active torsions:
REMARK  status: ('A' for Active; 'I' for Inactive)
REMARK    1  A    between atoms: C_1  and  C_2
REMARK    2  A    between atoms: C_2  and  C_3
REMARK    3  A    between atoms: C_16  and  C_17
REMARK    4  A    between atoms: C_16  and  C_18
REMARK    5  A    between atoms: C_22  and  C_23
REMARK                            x       y       z     vdW  Elec       q    Type
REMARK                         _______ _______ _______ _____ _____    ______ ____
ROOT
ATOM      1  C   UNL     1      -3.285  13.426  22.478  0.00  0.00    +0.000 A 
ATOM      2  C   UNL     1      -4.343  14.264  22.309  0.00  0.00    +0.000 A 
ATOM      3  F   UNL     1      -4.157  15.427  21.640  0.00  0.00    +0.000 F 
ATOM      4  C   UNL     1      -5.412  13.457  21.618  0.00  0.00    +0.000 A 
ATOM      5  O   UNL     1      -6.490  13.105  22.064  0.00  0.00    +0.000 OA
ATOM      6  O   UNL     1      -5.003  13.118  20.365  0.00  0.00    +0.000 OA
ATOM      7  C   UNL     1      -3.681  12.636  20.238  0.00  0.00    +0.000 A 
ATOM      8  C   UNL     1      -3.504  11.982  19.030  0.00  0.00    +0.000 A 
ATOM      9  C   UNL     1      -2.305  12.076  18.394  0.00  0.00    +0.000 A 
ATOM     10  C   UNL     1      -1.280  12.783  19.021  0.00  0.00    +0.000 A 
ATOM     11  C   UNL     1      -1.361  13.281  20.383  0.00  0.00    +0.000 A 
ATOM     12  C   UNL     1      -2.636  13.103  21.084  0.00  0.00    +0.000 A 
ATOM     13  O   UNL     1      -0.234  13.986  20.869  0.00  0.00    +0.000 OA
ATOM     14  C   UNL     1       1.044  14.058  20.068  0.00  0.00    +0.000 C 
ATOM     15  C   UNL     1       1.685  15.477  20.031  0.00  0.00    +0.000 C 
ATOM     16  C   UNL     1       2.108  13.106  20.634  0.00  0.00    +0.000 C 
ATOM     17  C   UNL     1       0.908  13.693  18.619  0.00  0.00    +0.000 C 
ATOM     18  C   UNL     1      -0.143  13.109  18.128  0.00  0.00    +0.000 C 
ATOM     19  O   UNL     1      -2.119  11.638  17.100  0.00  0.00    +0.000 OA
ATOM     20  C   UNL     1      -3.015  10.603  16.704  0.00  0.00    +0.000 C 
ATOM     21  C   UNL     1      -2.783  10.341  15.223  0.00  0.00    +0.000 C 
ATOM     22  C   UNL     1      -4.459  10.997  16.912  0.00  0.00    +0.000 C 
ATOM     23  C   UNL     1      -4.652  11.337  18.351  0.00  0.00    +0.000 C 
ATOM     24  O   UNL     1      -5.708  11.112  18.922  0.00  0.00    +0.000 OA
ENDROOT
BRANCH   1  26
ATOM     25  C   UNL     1      -4.364  12.621  24.926  0.00  0.00    +0.000 C 
ATOM     26  C   UNL     1      -3.653  12.278  23.544  0.00  0.00    +0.000 C 
ENDBRANCH   1  26
TORSDOF 1
ENDMDL
MODEL 8
REMARK VINA RESULT:      -6.5      6.446     10.354
REMARK  Name = 
REMARK  5 active torsions:
REMARK  status: ('A' for Active; 'I' for Inactive)
REMARK    1  A    between atoms: C_1  and  C_2
REMARK    2  A    between atoms: C_2  and  C_3
REMARK    3  A    between atoms: C_16  and  C_17
REMARK    4  A    between atoms: C_16  and  C_18
REMARK    5  A    between atoms: C_22  and  C_23
REMARK                            x       y       z     vdW  Elec       q    Type
REMARK                         _______ _______ _______ _____ _____    ______ ____
ROOT
ATOM      1  C   UNL     1       0.862  11.941  19.769  0.00  0.00    +0.000 A 
ATOM      2  C   UNL     1       1.088  10.609  19.929  0.00  0.00    +0.000 A 
ATOM      3  F   UNL     1       0.636   9.999  21.050  0.00  0.00    +0.000 F 
ATOM      4  C   UNL     1       0.497   9.934  18.719  0.00  0.00    +0.000 A 
ATOM      5  O   UNL     1       1.085   9.348  17.826  0.00  0.00    +0.000 OA
ATOM      6  O   UNL     1      -0.856  10.083  18.717  0.00  0.00    +0.000 OA
ATOM      7  C   UNL     1      -1.353  11.371  19.014  0.00  0.00    +0.000 A 
ATOM      8  C   UNL     1      -2.675  11.498  18.622  0.00  0.00    +0.000 A 
ATOM      9  C   UNL     1      -3.520  12.256  19.370  0.00  0.00    +0.000 A 
ATOM     10  C   UNL     1      -3.000  12.927  20.475  0.00  0.00    +0.000 A 
ATOM     11  C   UNL     1      -1.582  13.000  20.779  0.00  0.00    +0.000 A 
ATOM     12  C   UNL     1      -0.674  12.240  19.915  0.00  0.00    +0.000 A 
ATOM     13  O   UNL     1      -1.219  13.716  21.945  0.00  0.00    +0.000 OA
ATOM     14  C   UNL     1      -2.243  14.504  22.726  0.00  0.00    +0.000 C 
ATOM     15  C   UNL     1      -2.138  14.320  24.268  0.00  0.00    +0.000 C 
ATOM     16  C   UNL     1      -2.113  16.010  22.450  0.00  0.00    +0.000 C 
ATOM     17  C   UNL     1      -3.672  14.162  22.425  0.00  0.00    +0.000 C 
ATOM     18  C   UNL     1      -4.033  13.448  21.402  0.00  0.00    +0.000 C 
ATOM     19  O   UNL     1      -4.884  12.260  19.169  0.00  0.00    +0.000 OA
ATOM     20  C   UNL     1      -5.275  11.922  17.840  0.00  0.00    +0.000 C 
ATOM     21  C   UNL     1      -6.794  11.822  17.823  0.00  0.00    +0.000 C 
ATOM     22  C   UNL     1      -4.692  10.599  17.400  0.00  0.00    +0.000 C 
ATOM     23  C   UNL     1      -3.207  10.681  17.505  0.00  0.00    +0.000 C 
ATOM     24  O   UNL     1      -2.479  10.085  16.726  0.00  0.00    +0.000 OA
ENDROOT
BRANCH   1  26
ATOM     25  C   UNL     1       2.677  13.780  18.708  0.00  0.00    +0.000 C 
ATOM     26  C   UNL     1       1.736  12.508  18.543  0.00  0.00    +0.000 C 
ENDBRANCH   1  26
TORSDOF 1
ENDMDL
MODEL 9
REMARK VINA RESULT:      -6.4     10.084     11.327
REMARK  Name = 
REMARK  5 active torsions:
REMARK  status: ('A' for Active; 'I' for Inactive)
REMARK    1  A    between atoms: C_1  and  C_2
REMARK    2  A    between atoms: C_2  and  C_3
REMARK    3  A    between atoms: C_16  and  C_17
REMARK    4  A    between atoms: C_16  and  C_18
REMARK    5  A    between atoms: C_22  and  C_23
REMARK                            x       y       z     vdW  Elec       q    Type
REMARK                         _______ _______ _______ _____ _____    ______ ____
ROOT
ATOM      1  C   UNL     1       7.178  15.827  18.569  0.00  0.00    +0.000 A 
ATOM      2  C   UNL     1       5.949  15.396  18.176  0.00  0.00    +0.000 A 
ATOM      3  F   UNL     1       5.814  14.127  17.722  0.00  0.00    +0.000 F 
ATOM      4  C   UNL     1       5.034  15.604  19.355  0.00  0.00    +0.000 A 
ATOM      5  O   UNL     1       4.103  16.385  19.451  0.00  0.00    +0.000 OA
ATOM      6  O   UNL     1       5.402  14.789  20.381  0.00  0.00    +0.000 OA
ATOM      7  C   UNL     1       6.783  14.719  20.671  0.00  0.00    +0.000 A 
ATOM      8  C   UNL     1       7.000  14.182  21.929  0.00  0.00    +0.000 A 
ATOM      9  C   UNL     1       8.090  13.395  22.135  0.00  0.00    +0.000 A 
ATOM     10  C   UNL     1       8.980  13.210  21.078  0.00  0.00    +0.000 A 
ATOM     11  C   UNL     1       8.903  13.940  19.825  0.00  0.00    +0.000 A 
ATOM     12  C   UNL     1       7.764  14.845  19.647  0.00  0.00    +0.000 A 
ATOM     13  O   UNL     1       9.881  13.629  18.850  0.00  0.00    +0.000 OA
ATOM     14  C   UNL     1      11.039  12.714  19.171  0.00  0.00    +0.000 C 
ATOM     15  C   UNL     1      11.341  11.666  18.061  0.00  0.00    +0.000 C 
ATOM     16  C   UNL     1      12.333  13.514  19.389  0.00  0.00    +0.000 C 
ATOM     17  C   UNL     1      10.867  11.882  20.407  0.00  0.00    +0.000 C 
ATOM     18  C   UNL     1       9.936  12.097  21.287  0.00  0.00    +0.000 C 
ATOM     19  O   UNL     1       8.261  12.657  23.288  0.00  0.00    +0.000 OA
ATOM     20  C   UNL     1       7.589  13.193  24.425  0.00  0.00    +0.000 C 
ATOM     21  C   UNL     1       7.748  12.195  25.562  0.00  0.00    +0.000 C 
ATOM     22  C   UNL     1       6.116  13.405  24.161  0.00  0.00    +0.000 C 
ATOM     23  C   UNL     1       5.973  14.315  22.989  0.00  0.00    +0.000 C 
ATOM     24  O   UNL     1       5.045  15.105  22.905  0.00  0.00    +0.000 OA
ENDROOT
BRANCH   1  26
ATOM     25  C   UNL     1       8.149  18.139  19.800  0.00  0.00    +0.000 C 
ATOM     26  C   UNL     1       7.167  17.422  18.773  0.00  0.00    +0.000 C 
ENDBRANCH   1  26
TORSDOF 1
ENDMDL
