MODEL 1
REMARK VINA RESULT:      -7.6      0.000      0.000
REMARK  Name = 
REMARK  7 active torsions:
REMARK  status: ('A' for Active; 'I' for Inactive)
REMARK    1  A    between atoms: C_1  and  C_2
REMARK    2  A    between atoms: C_2  and  C_3
REMARK    3  A    between atoms: C_3  and  N_4
REMARK    4  A    between atoms: C_8  and  S_9
REMARK    5  A    between atoms: S_9  and  N_12
REMARK    6  A    between atoms: C_16  and  C_17
REMARK    7  A    between atoms: C_16  and  C_18
REMARK                            x       y       z     vdW  Elec       q    Type
REMARK                         _______ _______ _______ _____ _____    ______ ____
ROOT
ATOM      1  S   UNL     1       4.713   4.554  17.832  0.00  0.00    +0.000 S 
ATOM      2  O   UNL     1       5.488   4.000  18.922  0.00  0.00    +0.000 OA
ATOM      3  O   UNL     1       4.176   5.894  17.905  0.00  0.00    +0.000 OA
ENDROOT
BRANCH   1   4
ATOM      4  N   UNL     1       3.398   3.501  17.514  0.00  0.00    +0.000 NA
ATOM      5  C   UNL     1       3.616   2.063  17.808  0.00  0.00    +0.000 C 
ATOM      6  C   UNL     1       3.727   1.822  19.317  0.00  0.00    +0.000 C 
ATOM      7  O   UNL     1       2.819   2.516  20.177  0.00  0.00    +0.000 OA
ATOM      8  C   UNL     1       2.135   3.704  19.736  0.00  0.00    +0.000 C 
ATOM      9  C   UNL     1       2.643   4.993  20.420  0.00  0.00    +0.000 C 
ATOM     10  C   UNL     1       0.729   3.503  20.347  0.00  0.00    +0.000 C 
ATOM     11  C   UNL     1       2.084   3.869  18.193  0.00  0.00    +0.000 C 
ENDBRANCH   1   4
BRANCH   1  16
ATOM     12  N   UNL     1       6.946   5.568  16.458  0.00  0.00    +0.000 N 
ATOM     13  N   UNL     1       7.602   5.534  15.275  0.00  0.00    +0.000 NA
ATOM     14  C   UNL     1       6.889   4.701  14.521  0.00  0.00    +0.000 A 
ATOM     15  C   UNL     1       5.841   4.110  15.236  0.00  0.00    +0.000 A 
ATOM     16  C   UNL     1       5.874   4.670  16.498  0.00  0.00    +0.000 A 
BRANCH  12  17
ATOM     17  C   UNL     1       7.485   6.421  17.512  0.00  0.00    +0.000 C 
BRANCH  17  19
ATOM     18  C   UNL     1       8.335   8.763  18.115  0.00  0.00    +0.000 C 
ATOM     19  C   UNL     1       7.274   7.944  17.388  0.00  0.00    +0.000 C 
ENDBRANCH  17  19
ENDBRANCH  12  17
ENDBRANCH   1  16
TORSDOF 4
ENDMDL
MODEL 2
REMARK VINA RESULT:      -7.0      1.308      1.840
REMARK  Name = 
REMARK  7 active torsions:
REMARK  status: ('A' for Active; 'I' for Inactive)
REMARK    1  A    between atoms: C_1  and  C_2
REMARK    2  A    between atoms: C_2  and  C_3
REMARK    3  A    between atoms: C_3  and  N_4
REMARK    4  A    between atoms: C_8  and  S_9
REMARK    5  A    between atoms: S_9  and  N_12
REMARK    6  A    between atoms: C_16  and  C_17
REMARK    7  A    between atoms: C_16  and  C_18
REMARK                            x       y       z     vdW  Elec       q    Type
REMARK                         _______ _______ _______ _____ _____    ______ ____
ROOT
ATOM      1  S   UNL     1       5.068   4.007  17.913  0.00  0.00    +0.000 S 
ATOM      2  O   UNL     1       4.238   2.929  17.419  0.00  0.00    +0.000 OA
ATOM      3  O   UNL     1       6.046   3.779  18.952  0.00  0.00    +0.000 OA
ENDROOT
BRANCH   1   4
ATOM      4  N   UNL     1       4.046   5.273  18.451  0.00  0.00    +0.000 NA
ATOM      5  C   UNL     1       2.846   5.552  17.624  0.00  0.00    +0.000 C 
ATOM      6  C   UNL     1       1.836   4.404  17.715  0.00  0.00    +0.000 C 
ATOM      7  O   UNL     1       1.600   3.817  18.999  0.00  0.00    +0.000 OA
ATOM      8  C   UNL     1       2.552   3.962  20.071  0.00  0.00    +0.000 C 
ATOM      9  C   UNL     1       3.300   2.654  20.406  0.00  0.00    +0.000 C 
ATOM     10  C   UNL     1       1.623   4.167  21.290  0.00  0.00    +0.000 C 
ATOM     11  C   UNL     1       3.540   5.144  19.884  0.00  0.00    +0.000 C 
ENDBRANCH   1   4
BRANCH   1  16
ATOM     12  N   UNL     1       6.951   5.532  16.488  0.00  0.00    +0.000 N 
ATOM     13  N   UNL     1       7.502   5.714  15.266  0.00  0.00    +0.000 NA
ATOM     14  C   UNL     1       6.896   4.819  14.490  0.00  0.00    +0.000 A 
ATOM     15  C   UNL     1       6.040   3.985  15.217  0.00  0.00    +0.000 A 
ATOM     16  C   UNL     1       6.073   4.444  16.519  0.00  0.00    +0.000 A 
BRANCH  12  17
ATOM     17  C   UNL     1       7.409   6.391  17.576  0.00  0.00    +0.000 C 
BRANCH  17  19
ATOM     18  C   UNL     1       8.283   8.753  18.052  0.00  0.00    +0.000 C 
ATOM     19  C   UNL     1       7.166   7.909  17.449  0.00  0.00    +0.000 C 
ENDBRANCH  17  19
ENDBRANCH  12  17
ENDBRANCH   1  16
TORSDOF 4
ENDMDL
MODEL 3
REMARK VINA RESULT:      -6.9      1.538      2.301
REMARK  Name = 
REMARK  7 active torsions:
REMARK  status: ('A' for Active; 'I' for Inactive)
REMARK    1  A    between atoms: C_1  and  C_2
REMARK    2  A    between atoms: C_2  and  C_3
REMARK    3  A    between atoms: C_3  and  N_4
REMARK    4  A    between atoms: C_8  and  S_9
REMARK    5  A    between atoms: S_9  and  N_12
REMARK    6  A    between atoms: C_16  and  C_17
REMARK    7  A    between atoms: C_16  and  C_18
REMARK                            x       y       z     vdW  Elec       q    Type
REMARK                         _______ _______ _______ _____ _____    ______ ____
ROOT
ATOM      1  S   UNL     1       4.227   3.720  17.438  0.00  0.00    +0.000 S 
ATOM      2  O   UNL     1       3.140   4.588  17.037  0.00  0.00    +0.000 OA
ATOM      3  O   UNL     1       4.112   2.283  17.331  0.00  0.00    +0.000 OA
ENDROOT
BRANCH   1   4
ATOM      4  N   UNL     1       4.627   4.074  19.067  0.00  0.00    +0.000 NA
ATOM      5  C   UNL     1       4.296   5.437  19.549  0.00  0.00    +0.000 C 
ATOM      6  C   UNL     1       2.780   5.631  19.650  0.00  0.00    +0.000 C 
ATOM      7  O   UNL     1       2.000   4.560  20.191  0.00  0.00    +0.000 OA
ATOM      8  C   UNL     1       2.509   3.213  20.229  0.00  0.00    +0.000 C 
ATOM      9  C   UNL     1       1.809   2.266  19.230  0.00  0.00    +0.000 C 
ATOM     10  C   UNL     1       2.002   2.724  21.605  0.00  0.00    +0.000 C 
ATOM     11  C   UNL     1       4.054   3.117  20.107  0.00  0.00    +0.000 C 
ENDBRANCH   1   4
BRANCH   1  16
ATOM     12  N   UNL     1       6.796   4.546  16.649  0.00  0.00    +0.000 N 
ATOM     13  N   UNL     1       7.549   4.875  15.575  0.00  0.00    +0.000 NA
ATOM     14  C   UNL     1       6.727   4.745  14.537  0.00  0.00    +0.000 A 
ATOM     15  C   UNL     1       5.482   4.229  14.913  0.00  0.00    +0.000 A 
ATOM     16  C   UNL     1       5.521   4.096  16.287  0.00  0.00    +0.000 A 
BRANCH  12  17
ATOM     17  C   UNL     1       7.423   4.603  17.966  0.00  0.00    +0.000 C 
BRANCH  17  19
ATOM     18  C   UNL     1       7.348   7.144  17.636  0.00  0.00    +0.000 C 
ATOM     19  C   UNL     1       7.737   5.993  18.556  0.00  0.00    +0.000 C 
ENDBRANCH  17  19
ENDBRANCH  12  17
ENDBRANCH   1  16
TORSDOF 4
ENDMDL
MODEL 4
REMARK VINA RESULT:      -6.8      0.926      1.130
REMARK  Name = 
REMARK  7 active torsions:
REMARK  status: ('A' for Active; 'I' for Inactive)
REMARK    1  A    between atoms: C_1  and  C_2
REMARK    2  A    between atoms: C_2  and  C_3
REMARK    3  A    between atoms: C_3  and  N_4
REMARK    4  A    between atoms: C_8  and  S_9
REMARK    5  A    between atoms: S_9  and  N_12
REMARK    6  A    between atoms: C_16  and  C_17
REMARK    7  A    between atoms: C_16  and  C_18
REMARK                            x       y       z     vdW  Elec       q    Type
REMARK                         _______ _______ _______ _____ _____    ______ ____
ROOT
ATOM      1  S   UNL     1       4.368   4.567  17.539  0.00  0.00    +0.000 S 
ATOM      2  O   UNL     1       5.100   3.929  18.613  0.00  0.00    +0.000 OA
ATOM      3  O   UNL     1       3.961   5.950  17.633  0.00  0.00    +0.000 OA
ENDROOT
BRANCH   1   4
ATOM      4  N   UNL     1       2.955   3.646  17.228  0.00  0.00    +0.000 NA
ATOM      5  C   UNL     1       3.093   2.171  17.322  0.00  0.00    +0.000 C 
ATOM      6  C   UNL     1       3.324   1.732  18.770  0.00  0.00    +0.000 C 
ATOM      7  O   UNL     1       2.552   2.363  19.796  0.00  0.00    +0.000 OA
ATOM      8  C   UNL     1       1.920   3.639  19.574  0.00  0.00    +0.000 C 
ATOM      9  C   UNL     1       2.581   4.794  20.356  0.00  0.00    +0.000 C 
ATOM     10  C   UNL     1       0.565   3.447  20.294  0.00  0.00    +0.000 C 
ATOM     11  C   UNL     1       1.739   4.003  18.076  0.00  0.00    +0.000 C 
ENDBRANCH   1   4
BRANCH   1  16
ATOM     12  N   UNL     1       6.695   5.343  16.167  0.00  0.00    +0.000 N 
ATOM     13  N   UNL     1       7.327   5.273  14.973  0.00  0.00    +0.000 NA
ATOM     14  C   UNL     1       6.505   4.568  14.200  0.00  0.00    +0.000 A 
ATOM     15  C   UNL     1       5.399   4.087  14.909  0.00  0.00    +0.000 A 
ATOM     16  C   UNL     1       5.518   4.587  16.191  0.00  0.00    +0.000 A 
BRANCH  12  17
ATOM     17  C   UNL     1       7.352   6.077  17.244  0.00  0.00    +0.000 C 
BRANCH  17  19
ATOM     18  C   UNL     1       7.770   5.821  19.760  0.00  0.00    +0.000 C 
ATOM     19  C   UNL     1       8.030   5.263  18.365  0.00  0.00    +0.000 C 
ENDBRANCH  17  19
ENDBRANCH  12  17
ENDBRANCH   1  16
TORSDOF 4
ENDMDL
MODEL 5
REMARK VINA RESULT:      -6.7      1.360      3.195
REMARK  Name = 
REMARK  7 active torsions:
REMARK  status: ('A' for Active; 'I' for Inactive)
REMARK    1  A    between atoms: C_1  and  C_2
REMARK    2  A    between atoms: C_2  and  C_3
REMARK    3  A    between atoms: C_3  and  N_4
REMARK    4  A    between atoms: C_8  and  S_9
REMARK    5  A    between atoms: S_9  and  N_12
REMARK    6  A    between atoms: C_16  and  C_17
REMARK    7  A    between atoms: C_16  and  C_18
REMARK                            x       y       z     vdW  Elec       q    Type
REMARK                         _______ _______ _______ _____ _____    ______ ____
ROOT
ATOM      1  S   UNL     1       4.768   4.452  18.229  0.00  0.00    +0.000 S 
ATOM      2  O   UNL     1       4.199   3.679  17.145  0.00  0.00    +0.000 OA
ATOM      3  O   UNL     1       5.567   3.822  19.255  0.00  0.00    +0.000 OA
ENDROOT
BRANCH   1   4
ATOM      4  N   UNL     1       3.497   5.286  19.022  0.00  0.00    +0.000 NA
ATOM      5  C   UNL     1       2.325   5.653  18.189  0.00  0.00    +0.000 C 
ATOM      6  C   UNL     1       1.539   4.408  17.769  0.00  0.00    +0.000 C 
ATOM      7  O   UNL     1       1.327   3.385  18.747  0.00  0.00    +0.000 OA
ATOM      8  C   UNL     1       2.162   3.289  19.917  0.00  0.00    +0.000 C 
ATOM      9  C   UNL     1       3.112   2.072  19.893  0.00  0.00    +0.000 C 
ATOM     10  C   UNL     1       1.131   2.918  21.008  0.00  0.00    +0.000 C 
ATOM     11  C   UNL     1       2.928   4.595  20.256  0.00  0.00    +0.000 C 
ENDBRANCH   1   4
BRANCH   1  16
ATOM     12  N   UNL     1       6.639   5.190  16.265  0.00  0.00    +0.000 N 
ATOM     13  N   UNL     1       7.551   6.132  15.933  0.00  0.00    +0.000 NA
ATOM     14  C   UNL     1       7.509   7.006  16.934  0.00  0.00    +0.000 A 
ATOM     15  C   UNL     1       6.503   6.701  17.858  0.00  0.00    +0.000 A 
ATOM     16  C   UNL     1       5.932   5.521  17.426  0.00  0.00    +0.000 A 
BRANCH  12  17
ATOM     17  C   UNL     1       6.456   4.066  15.352  0.00  0.00    +0.000 C 
BRANCH  17  19
ATOM     18  C   UNL     1       6.178   3.520  12.864  0.00  0.00    +0.000 C 
ATOM     19  C   UNL     1       5.655   4.310  14.057  0.00  0.00    +0.000 C 
ENDBRANCH  17  19
ENDBRANCH  12  17
ENDBRANCH   1  16
TORSDOF 4
ENDMDL
MODEL 6
REMARK VINA RESULT:      -6.7      1.018      2.612
REMARK  Name = 
REMARK  7 active torsions:
REMARK  status: ('A' for Active; 'I' for Inactive)
REMARK    1  A    between atoms: C_1  and  C_2
REMARK    2  A    between atoms: C_2  and  C_3
REMARK    3  A    between atoms: C_3  and  N_4
REMARK    4  A    between atoms: C_8  and  S_9
REMARK    5  A    between atoms: S_9  and  N_12
REMARK    6  A    between atoms: C_16  and  C_17
REMARK    7  A    between atoms: C_16  and  C_18
REMARK                            x       y       z     vdW  Elec       q    Type
REMARK                         _______ _______ _______ _____ _____    ______ ____
ROOT
ATOM      1  S   UNL     1       4.753   4.815  18.692  0.00  0.00    +0.000 S 
ATOM      2  O   UNL     1       5.518   3.687  19.180  0.00  0.00    +0.000 OA
ATOM      3  O   UNL     1       4.231   5.811  19.600  0.00  0.00    +0.000 OA
ENDROOT
BRANCH   1   4
ATOM      4  N   UNL     1       3.428   4.217  17.783  0.00  0.00    +0.000 NA
ATOM      5  C   UNL     1       3.531   2.816  17.306  0.00  0.00    +0.000 C 
ATOM      6  C   UNL     1       3.455   1.830  18.476  0.00  0.00    +0.000 C 
ATOM      7  O   UNL     1       2.493   2.081  19.505  0.00  0.00    +0.000 OA
ATOM      8  C   UNL     1       1.930   3.394  19.695  0.00  0.00    +0.000 C 
ATOM      9  C   UNL     1       2.426   4.092  20.980  0.00  0.00    +0.000 C 
ATOM     10  C   UNL     1       0.455   3.059  20.013  0.00  0.00    +0.000 C 
ATOM     11  C   UNL     1       2.066   4.325  18.460  0.00  0.00    +0.000 C 
ENDBRANCH   1   4
BRANCH   1  16
ATOM     12  N   UNL     1       6.534   5.265  16.564  0.00  0.00    +0.000 N 
ATOM     13  N   UNL     1       7.473   6.117  16.094  0.00  0.00    +0.000 NA
ATOM     14  C   UNL     1       7.543   7.077  17.012  0.00  0.00    +0.000 A 
ATOM     15  C   UNL     1       6.582   6.915  18.017  0.00  0.00    +0.000 A 
ATOM     16  C   UNL     1       5.921   5.738  17.729  0.00  0.00    +0.000 A 
BRANCH  12  17
ATOM     17  C   UNL     1       6.233   4.078  15.769  0.00  0.00    +0.000 C 
BRANCH  17  19
ATOM     18  C   UNL     1       6.295   3.773  13.225  0.00  0.00    +0.000 C 
ATOM     19  C   UNL     1       5.501   4.274  14.426  0.00  0.00    +0.000 C 
ENDBRANCH  17  19
ENDBRANCH  12  17
ENDBRANCH   1  16
TORSDOF 4
ENDMDL
MODEL 7
REMARK VINA RESULT:      -6.6      1.933      6.159
REMARK  Name = 
REMARK  7 active torsions:
REMARK  status: ('A' for Active; 'I' for Inactive)
REMARK    1  A    between atoms: C_1  and  C_2
REMARK    2  A    between atoms: C_2  and  C_3
REMARK    3  A    between atoms: C_3  and  N_4
REMARK    4  A    between atoms: C_8  and  S_9
REMARK    5  A    between atoms: S_9  and  N_12
REMARK    6  A    between atoms: C_16  and  C_17
REMARK    7  A    between atoms: C_16  and  C_18
REMARK                            x       y       z     vdW  Elec       q    Type
REMARK                         _______ _______ _______ _____ _____    ______ ____
ROOT
ATOM      1  S   UNL     1       4.337   4.842  17.872  0.00  0.00    +0.000 S 
ATOM      2  O   UNL     1       5.423   4.145  18.530  0.00  0.00    +0.000 OA
ATOM      3  O   UNL     1       3.441   4.148  16.975  0.00  0.00    +0.000 OA
ENDROOT
BRANCH   1   4
ATOM      4  N   UNL     1       4.993   6.167  17.004  0.00  0.00    +0.000 NA
ATOM      5  C   UNL     1       6.212   6.793  17.574  0.00  0.00    +0.000 C 
ATOM      6  C   UNL     1       7.414   5.849  17.470  0.00  0.00    +0.000 C 
ATOM      7  O   UNL     1       7.587   5.112  16.256  0.00  0.00    +0.000 OA
ATOM      8  C   UNL     1       6.487   4.902  15.349  0.00  0.00    +0.000 C 
ATOM      9  C   UNL     1       5.986   3.442  15.323  0.00  0.00    +0.000 C 
ATOM     10  C   UNL     1       7.178   5.069  13.975  0.00  0.00    +0.000 C 
ATOM     11  C   UNL     1       5.312   5.898  15.538  0.00  0.00    +0.000 C 
ENDBRANCH   1   4
BRANCH   1  16
ATOM     12  N   UNL     1       2.647   4.421  20.078  0.00  0.00    +0.000 N 
ATOM     13  N   UNL     1       1.788   5.038  20.922  0.00  0.00    +0.000 NA
ATOM     14  C   UNL     1       1.772   6.305  20.518  0.00  0.00    +0.000 A 
ATOM     15  C   UNL     1       2.694   6.541  19.492  0.00  0.00    +0.000 A 
ATOM     16  C   UNL     1       3.268   5.318  19.203  0.00  0.00    +0.000 A 
BRANCH  12  17
ATOM     17  C   UNL     1       2.873   2.991  20.261  0.00  0.00    +0.000 C 
BRANCH  17  19
ATOM     18  C   UNL     1       0.826   2.489  18.802  0.00  0.00    +0.000 C 
ATOM     19  C   UNL     1       2.199   2.021  19.268  0.00  0.00    +0.000 C 
ENDBRANCH  17  19
ENDBRANCH  12  17
ENDBRANCH   1  16
TORSDOF 4
ENDMDL
MODEL 8
REMARK VINA RESULT:      -6.6      1.959      2.597
REMARK  Name = 
REMARK  7 active torsions:
REMARK  status: ('A' for Active; 'I' for Inactive)
REMARK    1  A    between atoms: C_1  and  C_2
REMARK    2  A    between atoms: C_2  and  C_3
REMARK    3  A    between atoms: C_3  and  N_4
REMARK    4  A    between atoms: C_8  and  S_9
REMARK    5  A    between atoms: S_9  and  N_12
REMARK    6  A    between atoms: C_16  and  C_17
REMARK    7  A    between atoms: C_16  and  C_18
REMARK                            x       y       z     vdW  Elec       q    Type
REMARK                         _______ _______ _______ _____ _____    ______ ____
ROOT
ATOM      1  S   UNL     1       4.349   3.737  18.146  0.00  0.00    +0.000 S 
ATOM      2  O   UNL     1       4.049   2.421  17.623  0.00  0.00    +0.000 OA
ATOM      3  O   UNL     1       5.358   3.922  19.165  0.00  0.00    +0.000 OA
ENDROOT
BRANCH   1   4
ATOM      4  N   UNL     1       2.897   4.425  18.743  0.00  0.00    +0.000 NA
ATOM      5  C   UNL     1       1.640   3.989  18.088  0.00  0.00    +0.000 C 
ATOM      6  C   UNL     1       1.333   2.523  18.408  0.00  0.00    +0.000 C 
ATOM      7  O   UNL     1       1.540   2.071  19.750  0.00  0.00    +0.000 OA
ATOM      8  C   UNL     1       2.399   2.791  20.655  0.00  0.00    +0.000 C 
ATOM      9  C   UNL     1       3.719   2.052  20.964  0.00  0.00    +0.000 C 
ATOM     10  C   UNL     1       1.611   2.690  21.982  0.00  0.00    +0.000 C 
ATOM     11  C   UNL     1       2.661   4.264  20.241  0.00  0.00    +0.000 C 
ENDBRANCH   1   4
BRANCH   1  16
ATOM     12  N   UNL     1       4.967   5.988  16.581  0.00  0.00    +0.000 N 
ATOM     13  N   UNL     1       5.456   6.377  15.381  0.00  0.00    +0.000 NA
ATOM     14  C   UNL     1       5.728   5.240  14.747  0.00  0.00    +0.000 A 
ATOM     15  C   UNL     1       5.526   4.121  15.562  0.00  0.00    +0.000 A 
ATOM     16  C   UNL     1       5.032   4.602  16.758  0.00  0.00    +0.000 A 
BRANCH  12  17
ATOM     17  C   UNL     1       4.558   7.029  17.519  0.00  0.00    +0.000 C 
BRANCH  17  19
ATOM     18  C   UNL     1       2.390   7.887  18.584  0.00  0.00    +0.000 C 
ATOM     19  C   UNL     1       3.187   7.702  17.298  0.00  0.00    +0.000 C 
ENDBRANCH  17  19
ENDBRANCH  12  17
ENDBRANCH   1  16
TORSDOF 4
ENDMDL
MODEL 9
REMARK VINA RESULT:      -6.5      1.343      2.560
REMARK  Name = 
REMARK  7 active torsions:
REMARK  status: ('A' for Active; 'I' for Inactive)
REMARK    1  A    between atoms: C_1  and  C_2
REMARK    2  A    between atoms: C_2  and  C_3
REMARK    3  A    between atoms: C_3  and  N_4
REMARK    4  A    between atoms: C_8  and  S_9
REMARK    5  A    between atoms: S_9  and  N_12
REMARK    6  A    between atoms: C_16  and  C_17
REMARK    7  A    between atoms: C_16  and  C_18
REMARK                            x       y       z     vdW  Elec       q    Type
REMARK                         _______ _______ _______ _____ _____    ______ ____
ROOT
ATOM      1  S   UNL     1       4.624   4.668  19.053  0.00  0.00    +0.000 S 
ATOM      2  O   UNL     1       5.228   3.515  19.688  0.00  0.00    +0.000 OA
ATOM      3  O   UNL     1       3.852   5.620  19.818  0.00  0.00    +0.000 OA
ENDROOT
BRANCH   1   4
ATOM      4  N   UNL     1       3.622   4.117  17.775  0.00  0.00    +0.000 NA
ATOM      5  C   UNL     1       3.949   2.788  17.203  0.00  0.00    +0.000 C 
ATOM      6  C   UNL     1       3.655   1.670  18.207  0.00  0.00    +0.000 C 
ATOM      7  O   UNL     1       2.447   1.753  18.970  0.00  0.00    +0.000 OA
ATOM      8  C   UNL     1       1.756   3.006  19.138  0.00  0.00    +0.000 C 
ATOM      9  C   UNL     1       1.855   3.572  20.572  0.00  0.00    +0.000 C 
ATOM     10  C   UNL     1       0.278   2.567  19.026  0.00  0.00    +0.000 C 
ATOM     11  C   UNL     1       2.129   4.080  18.082  0.00  0.00    +0.000 C 
ENDBRANCH   1   4
BRANCH   1  16
ATOM     12  N   UNL     1       6.175   6.113  17.208  0.00  0.00    +0.000 N 
ATOM     13  N   UNL     1       7.375   6.712  17.030  0.00  0.00    +0.000 NA
ATOM     14  C   UNL     1       8.019   6.518  18.177  0.00  0.00    +0.000 A 
ATOM     15  C   UNL     1       7.211   5.896  19.136  0.00  0.00    +0.000 A 
ATOM     16  C   UNL     1       6.009   5.632  18.511  0.00  0.00    +0.000 A 
BRANCH  12  17
ATOM     17  C   UNL     1       5.227   6.143  16.098  0.00  0.00    +0.000 C 
BRANCH  17  19
ATOM     18  C   UNL     1       6.434   4.127  15.076  0.00  0.00    +0.000 C 
ATOM     19  C   UNL     1       5.592   5.369  14.815  0.00  0.00    +0.000 C 
ENDBRANCH  17  19
ENDBRANCH  12  17
ENDBRANCH   1  16
TORSDOF 4
ENDMDL
