MODEL 1
REMARK VINA RESULT:      -9.5      0.000      0.000
REMARK  Name = 
REMARK  6 active torsions:
REMARK  status: ('A' for Active; 'I' for Inactive)
REMARK    1  A    between atoms: C_2  and  C_3
REMARK    2  A    between atoms: C_2  and  O_24
REMARK    3  A    between atoms: C_3  and  C_4
REMARK    4  A    between atoms: C_6  and  C_7
REMARK    5  A    between atoms: O_24  and  C_25
REMARK    6  A    between atoms: C_25  and  C_26
REMARK                            x       y       z     vdW  Elec       q    Type
REMARK                         _______ _______ _______ _____ _____    ______ ____
ROOT
ATOM      1  C   UNL     1       5.235   6.574  18.094  0.00  0.00    +0.000 C 
ATOM      2  N   UNL     1       4.389   5.554  18.711  0.00  0.00    +0.000 NA
ATOM      3  C   UNL     1       3.220   5.858  19.165  0.00  0.00    +0.000 C 
ATOM      4  C   UNL     1       2.608   7.222  19.110  0.00  0.00    +0.000 A 
ATOM      5  C   UNL     1       1.864   7.670  20.214  0.00  0.00    +0.000 A 
ATOM      6  C   UNL     1       1.138   8.858  20.135  0.00  0.00    +0.000 A 
ATOM      7 CL   UNL     1       0.204   9.383  21.479  0.00  0.00    +0.000 Cl
ATOM      8  C   UNL     1       1.143   9.611  18.964  0.00  0.00    +0.000 A 
ATOM      9  C   UNL     1       1.896   9.180  17.872  0.00  0.00    +0.000 A 
ATOM     10  C   UNL     1       2.661   8.008  17.947  0.00  0.00    +0.000 A 
ATOM     11  N   UNL     1       3.426   7.700  16.813  0.00  0.00    +0.000 N 
ATOM     12  C   UNL     1       4.605   7.005  16.766  0.00  0.00    +0.000 C 
ATOM     13  O   UNL     1       5.149   6.843  15.672  0.00  0.00    +0.000 OA
ATOM     14  H   UNL     1       3.190   8.132  15.928  0.00  0.00    +0.000 HD
ENDROOT
BRANCH   3  15
ATOM     15  C   UNL     1       2.444   4.726  19.761  0.00  0.00    +0.000 A 
ATOM     16  C   UNL     1       2.715   4.345  21.083  0.00  0.00    +0.000 A 
ATOM     17  C   UNL     1       2.055   3.251  21.649  0.00  0.00    +0.000 A 
ATOM     18  C   UNL     1       1.126   2.530  20.897  0.00  0.00    +0.000 A 
ATOM     19  C   UNL     1       0.859   2.901  19.579  0.00  0.00    +0.000 A 
ATOM     20  C   UNL     1       1.522   3.988  19.015  0.00  0.00    +0.000 A 
ATOM     21  F   UNL     1       1.271   4.285  17.732  0.00  0.00    +0.000 F 
ENDBRANCH   3  15
BRANCH   1  22
ATOM     22  C   UNL     1       6.605   5.955  17.824  0.00  0.00    +0.000 C 
BRANCH  22  24
ATOM     23  O   UNL     1       7.512   5.477  20.025  0.00  0.00    +0.000 OA
ATOM     24  C   UNL     1       7.542   6.127  18.989  0.00  0.00    +0.000 C 
BRANCH  24  25
ATOM     25  O   UNL     1       8.373   7.178  18.744  0.00  0.00    +0.000 OA
BRANCH  25  26
ATOM     26  C   UNL     1       7.927   8.155  17.794  0.00  0.00    +0.000 C 
BRANCH  26  27
ATOM     27  C   UNL     1       8.454   9.503  18.213  0.00  0.00    +0.000 A 
ATOM     28  C   UNL     1       8.140  10.652  17.481  0.00  0.00    +0.000 A 
ATOM     29  C   UNL     1       8.655  11.870  17.898  0.00  0.00    +0.000 A 
ATOM     30  N   UNL     1       9.442  12.019  18.984  0.00  0.00    +0.000 NA
ATOM     31  C   UNL     1       9.729  10.900  19.680  0.00  0.00    +0.000 A 
ATOM     32  C   UNL     1       9.267   9.638  19.341  0.00  0.00    +0.000 A 
ENDBRANCH  26  27
ENDBRANCH  25  26
ENDBRANCH  24  25
ENDBRANCH  22  24
ENDBRANCH   1  22
TORSDOF 6
ENDMDL
MODEL 2
REMARK VINA RESULT:      -9.2      2.674      4.131
REMARK  Name = 
REMARK  6 active torsions:
REMARK  status: ('A' for Active; 'I' for Inactive)
REMARK    1  A    between atoms: C_2  and  C_3
REMARK    2  A    between atoms: C_2  and  O_24
REMARK    3  A    between atoms: C_3  and  C_4
REMARK    4  A    between atoms: C_6  and  C_7
REMARK    5  A    between atoms: O_24  and  C_25
REMARK    6  A    between atoms: C_25  and  C_26
REMARK                            x       y       z     vdW  Elec       q    Type
REMARK                         _______ _______ _______ _____ _____    ______ ____
ROOT
ATOM      1  C   UNL     1       5.101   6.775  18.045  0.00  0.00    +0.000 C 
ATOM      2  N   UNL     1       4.291   5.729  18.667  0.00  0.00    +0.000 NA
ATOM      3  C   UNL     1       3.128   6.002  19.155  0.00  0.00    +0.000 C 
ATOM      4  C   UNL     1       2.489   7.354  19.137  0.00  0.00    +0.000 A 
ATOM      5  C   UNL     1       1.764   7.770  20.266  0.00  0.00    +0.000 A 
ATOM      6  C   UNL     1       1.012   8.945  20.224  0.00  0.00    +0.000 A 
ATOM      7 CL   UNL     1       0.103   9.430  21.599  0.00  0.00    +0.000 Cl
ATOM      8  C   UNL     1       0.972   9.715  19.065  0.00  0.00    +0.000 A 
ATOM      9  C   UNL     1       1.706   9.316  17.948  0.00  0.00    +0.000 A 
ATOM     10  C   UNL     1       2.496   8.159  17.985  0.00  0.00    +0.000 A 
ATOM     11  N   UNL     1       3.238   7.884  16.828  0.00  0.00    +0.000 N 
ATOM     12  C   UNL     1       4.429   7.213  16.741  0.00  0.00    +0.000 C 
ATOM     13  O   UNL     1       4.948   7.079  15.630  0.00  0.00    +0.000 OA
ATOM     14  H   UNL     1       2.971   8.324  15.956  0.00  0.00    +0.000 HD
ENDROOT
BRANCH   3  15
ATOM     15  C   UNL     1       2.390   4.846  19.752  0.00  0.00    +0.000 A 
ATOM     16  C   UNL     1       2.683   4.467  21.070  0.00  0.00    +0.000 A 
ATOM     17  C   UNL     1       2.059   3.352  21.637  0.00  0.00    +0.000 A 
ATOM     18  C   UNL     1       1.146   2.608  20.890  0.00  0.00    +0.000 A 
ATOM     19  C   UNL     1       0.858   2.976  19.576  0.00  0.00    +0.000 A 
ATOM     20  C   UNL     1       1.485   4.084  19.011  0.00  0.00    +0.000 A 
ATOM     21  F   UNL     1       1.215   4.379  17.731  0.00  0.00    +0.000 F 
ENDBRANCH   3  15
BRANCH   1  22
ATOM     22  C   UNL     1       6.475   6.188  17.731  0.00  0.00    +0.000 C 
BRANCH  22  24
ATOM     23  O   UNL     1       6.321   4.114  18.984  0.00  0.00    +0.000 OA
ATOM     24  C   UNL     1       6.509   4.695  17.924  0.00  0.00    +0.000 C 
BRANCH  24  25
ATOM     25  O   UNL     1       6.869   4.100  16.753  0.00  0.00    +0.000 OA
BRANCH  25  26
ATOM     26  C   UNL     1       5.825   3.833  15.808  0.00  0.00    +0.000 C 
BRANCH  26  27
ATOM     27  C   UNL     1       6.363   4.072  14.422  0.00  0.00    +0.000 A 
ATOM     28  C   UNL     1       5.878   3.344  13.331  0.00  0.00    +0.000 A 
ATOM     29  C   UNL     1       6.409   3.591  12.074  0.00  0.00    +0.000 A 
ATOM     30  N   UNL     1       7.369   4.508  11.834  0.00  0.00    +0.000 NA
ATOM     31  C   UNL     1       7.821   5.204  12.898  0.00  0.00    +0.000 A 
ATOM     32  C   UNL     1       7.357   5.026  14.192  0.00  0.00    +0.000 A 
ENDBRANCH  26  27
ENDBRANCH  25  26
ENDBRANCH  24  25
ENDBRANCH  22  24
ENDBRANCH   1  22
TORSDOF 6
ENDMDL
MODEL 3
REMARK VINA RESULT:      -8.9      0.853      1.471
REMARK  Name = 
REMARK  6 active torsions:
REMARK  status: ('A' for Active; 'I' for Inactive)
REMARK    1  A    between atoms: C_2  and  C_3
REMARK    2  A    between atoms: C_2  and  O_24
REMARK    3  A    between atoms: C_3  and  C_4
REMARK    4  A    between atoms: C_6  and  C_7
REMARK    5  A    between atoms: O_24  and  C_25
REMARK    6  A    between atoms: C_25  and  C_26
REMARK                            x       y       z     vdW  Elec       q    Type
REMARK                         _______ _______ _______ _____ _____    ______ ____
ROOT
ATOM      1  C   UNL     1       5.345   6.411  18.092  0.00  0.00    +0.000 C 
ATOM      2  N   UNL     1       4.442   5.354  18.544  0.00  0.00    +0.000 NA
ATOM      3  C   UNL     1       3.245   5.636  18.934  0.00  0.00    +0.000 C 
ATOM      4  C   UNL     1       2.656   7.010  18.962  0.00  0.00    +0.000 A 
ATOM      5  C   UNL     1       1.833   7.367  20.043  0.00  0.00    +0.000 A 
ATOM      6  C   UNL     1       1.129   8.571  20.020  0.00  0.00    +0.000 A 
ATOM      7 CL   UNL     1       0.100   8.986  21.333  0.00  0.00    +0.000 Cl
ATOM      8  C   UNL     1       1.232   9.429  18.929  0.00  0.00    +0.000 A 
ATOM      9  C   UNL     1       2.063   9.087  17.862  0.00  0.00    +0.000 A 
ATOM     10  C   UNL     1       2.807   7.899  17.885  0.00  0.00    +0.000 A 
ATOM     11  N   UNL     1       3.654   7.684  16.788  0.00  0.00    +0.000 N 
ATOM     12  C   UNL     1       4.825   6.974  16.766  0.00  0.00    +0.000 C 
ATOM     13  O   UNL     1       5.450   6.904  15.706  0.00  0.00    +0.000 OA
ATOM     14  H   UNL     1       3.492   8.200  15.932  0.00  0.00    +0.000 HD
ENDROOT
BRANCH   3  15
ATOM     15  C   UNL     1       2.413   4.468  19.360  0.00  0.00    +0.000 A 
ATOM     16  C   UNL     1       1.749   3.719  18.378  0.00  0.00    +0.000 A 
ATOM     17  C   UNL     1       0.911   2.662  18.745  0.00  0.00    +0.000 A 
ATOM     18  C   UNL     1       0.729   2.352  20.093  0.00  0.00    +0.000 A 
ATOM     19  C   UNL     1       1.380   3.099  21.074  0.00  0.00    +0.000 A 
ATOM     20  C   UNL     1       2.210   4.155  20.706  0.00  0.00    +0.000 A 
ATOM     21  F   UNL     1       2.784   4.877  21.679  0.00  0.00    +0.000 F 
ENDBRANCH   3  15
BRANCH   1  22
ATOM     22  C   UNL     1       6.725   5.794  17.869  0.00  0.00    +0.000 C 
BRANCH  22  24
ATOM     23  O   UNL     1       7.629   5.472  20.099  0.00  0.00    +0.000 OA
ATOM     24  C   UNL     1       7.654   6.056  19.025  0.00  0.00    +0.000 C 
BRANCH  24  25
ATOM     25  O   UNL     1       8.467   7.103  18.716  0.00  0.00    +0.000 OA
BRANCH  25  26
ATOM     26  C   UNL     1       7.931   8.116  17.855  0.00  0.00    +0.000 C 
BRANCH  26  27
ATOM     27  C   UNL     1       8.473   9.452  18.294  0.00  0.00    +0.000 A 
ATOM     28  C   UNL     1       9.142   9.586  19.514  0.00  0.00    +0.000 A 
ATOM     29  C   UNL     1       9.616  10.836  19.881  0.00  0.00    +0.000 A 
ATOM     30  N   UNL     1       9.478  11.943  19.121  0.00  0.00    +0.000 NA
ATOM     31  C   UNL     1       8.834  11.792  17.944  0.00  0.00    +0.000 A 
ATOM     32  C   UNL     1       8.322  10.586  17.492  0.00  0.00    +0.000 A 
ENDBRANCH  26  27
ENDBRANCH  25  26
ENDBRANCH  24  25
ENDBRANCH  22  24
ENDBRANCH   1  22
TORSDOF 6
ENDMDL
MODEL 4
REMARK VINA RESULT:      -8.7      2.460      4.167
REMARK  Name = 
REMARK  6 active torsions:
REMARK  status: ('A' for Active; 'I' for Inactive)
REMARK    1  A    between atoms: C_2  and  C_3
REMARK    2  A    between atoms: C_2  and  O_24
REMARK    3  A    between atoms: C_3  and  C_4
REMARK    4  A    between atoms: C_6  and  C_7
REMARK    5  A    between atoms: O_24  and  C_25
REMARK    6  A    between atoms: C_25  and  C_26
REMARK                            x       y       z     vdW  Elec       q    Type
REMARK                         _______ _______ _______ _____ _____    ______ ____
ROOT
ATOM      1  C   UNL     1       5.101   6.564  18.220  0.00  0.00    +0.000 C 
ATOM      2  N   UNL     1       4.264   5.537  18.837  0.00  0.00    +0.000 NA
ATOM      3  C   UNL     1       3.109   5.840  19.328  0.00  0.00    +0.000 C 
ATOM      4  C   UNL     1       2.506   7.208  19.317  0.00  0.00    +0.000 A 
ATOM      5  C   UNL     1       1.794   7.638  20.448  0.00  0.00    +0.000 A 
ATOM      6  C   UNL     1       1.074   8.833  20.412  0.00  0.00    +0.000 A 
ATOM      7 CL   UNL     1       0.179   9.336  21.790  0.00  0.00    +0.000 Cl
ATOM      8  C   UNL     1       1.054   9.609  19.257  0.00  0.00    +0.000 A 
ATOM      9  C   UNL     1       1.775   9.196  18.137  0.00  0.00    +0.000 A 
ATOM     10  C   UNL     1       2.534   8.017  18.168  0.00  0.00    +0.000 A 
ATOM     11  N   UNL     1       3.268   7.728  17.009  0.00  0.00    +0.000 N 
ATOM     12  C   UNL     1       4.440   7.026  16.917  0.00  0.00    +0.000 C 
ATOM     13  O   UNL     1       4.954   6.883  15.806  0.00  0.00    +0.000 OA
ATOM     14  H   UNL     1       3.012   8.179  16.139  0.00  0.00    +0.000 HD
ENDROOT
BRANCH   3  15
ATOM     15  C   UNL     1       2.341   4.701  19.920  0.00  0.00    +0.000 A 
ATOM     16  C   UNL     1       2.632   4.301  21.233  0.00  0.00    +0.000 A 
ATOM     17  C   UNL     1       1.980   3.200  21.794  0.00  0.00    +0.000 A 
ATOM     18  C   UNL     1       1.038   2.491  21.048  0.00  0.00    +0.000 A 
ATOM     19  C   UNL     1       0.750   2.880  19.740  0.00  0.00    +0.000 A 
ATOM     20  C   UNL     1       1.406   3.974  19.180  0.00  0.00    +0.000 A 
ATOM     21  F   UNL     1       1.135   4.290  17.906  0.00  0.00    +0.000 F 
ENDBRANCH   3  15
BRANCH   1  22
ATOM     22  C   UNL     1       6.459   5.941  17.901  0.00  0.00    +0.000 C 
BRANCH  22  24
ATOM     23  O   UNL     1       7.585   8.034  17.405  0.00  0.00    +0.000 OA
ATOM     24  C   UNL     1       7.335   6.874  17.108  0.00  0.00    +0.000 C 
BRANCH  24  25
ATOM     25  O   UNL     1       7.735   6.250  15.966  0.00  0.00    +0.000 OA
BRANCH  25  26
ATOM     26  C   UNL     1       7.459   4.848  15.857  0.00  0.00    +0.000 C 
BRANCH  26  27
ATOM     27  C   UNL     1       7.101   4.542  14.426  0.00  0.00    +0.000 A 
ATOM     28  C   UNL     1       6.032   3.692  14.123  0.00  0.00    +0.000 A 
ATOM     29  C   UNL     1       5.744   3.431  12.792  0.00  0.00    +0.000 A 
ATOM     30  N   UNL     1       6.433   3.959  11.758  0.00  0.00    +0.000 NA
ATOM     31  C   UNL     1       7.457   4.780  12.071  0.00  0.00    +0.000 A 
ATOM     32  C   UNL     1       7.825   5.098  13.369  0.00  0.00    +0.000 A 
ENDBRANCH  26  27
ENDBRANCH  25  26
ENDBRANCH  24  25
ENDBRANCH  22  24
ENDBRANCH   1  22
TORSDOF 6
ENDMDL
MODEL 5
REMARK VINA RESULT:      -8.6      0.520      1.002
REMARK  Name = 
REMARK  6 active torsions:
REMARK  status: ('A' for Active; 'I' for Inactive)
REMARK    1  A    between atoms: C_2  and  C_3
REMARK    2  A    between atoms: C_2  and  O_24
REMARK    3  A    between atoms: C_3  and  C_4
REMARK    4  A    between atoms: C_6  and  C_7
REMARK    5  A    between atoms: O_24  and  C_25
REMARK    6  A    between atoms: C_25  and  C_26
REMARK                            x       y       z     vdW  Elec       q    Type
REMARK                         _______ _______ _______ _____ _____    ______ ____
ROOT
ATOM      1  C   UNL     1       5.167   6.601  18.059  0.00  0.00    +0.000 C 
ATOM      2  N   UNL     1       4.336   5.579  18.691  0.00  0.00    +0.000 NA
ATOM      3  C   UNL     1       3.171   5.877  19.160  0.00  0.00    +0.000 C 
ATOM      4  C   UNL     1       2.550   7.237  19.107  0.00  0.00    +0.000 A 
ATOM      5  C   UNL     1       1.817   7.685  20.218  0.00  0.00    +0.000 A 
ATOM      6  C   UNL     1       1.082   8.868  20.143  0.00  0.00    +0.000 A 
ATOM      7 CL   UNL     1       0.163   9.393  21.497  0.00  0.00    +0.000 Cl
ATOM      8  C   UNL     1       1.066   9.615  18.969  0.00  0.00    +0.000 A 
ATOM      9  C   UNL     1       1.808   9.185  17.869  0.00  0.00    +0.000 A 
ATOM     10  C   UNL     1       2.582   8.017  17.939  0.00  0.00    +0.000 A 
ATOM     11  N   UNL     1       3.334   7.710  16.797  0.00  0.00    +0.000 N 
ATOM     12  C   UNL     1       4.517   7.022  16.738  0.00  0.00    +0.000 C 
ATOM     13  O   UNL     1       5.047   6.858  15.637  0.00  0.00    +0.000 OA
ATOM     14  H   UNL     1       3.084   8.136  15.913  0.00  0.00    +0.000 HD
ENDROOT
BRANCH   3  15
ATOM     15  C   UNL     1       2.410   4.743  19.771  0.00  0.00    +0.000 A 
ATOM     16  C   UNL     1       2.715   4.356  21.084  0.00  0.00    +0.000 A 
ATOM     17  C   UNL     1       2.070   3.259  21.662  0.00  0.00    +0.000 A 
ATOM     18  C   UNL     1       1.122   2.542  20.932  0.00  0.00    +0.000 A 
ATOM     19  C   UNL     1       0.821   2.919  19.623  0.00  0.00    +0.000 A 
ATOM     20  C   UNL     1       1.469   4.008  19.046  0.00  0.00    +0.000 A 
ATOM     21  F   UNL     1       1.185   4.311  17.772  0.00  0.00    +0.000 F 
ENDBRANCH   3  15
BRANCH   1  22
ATOM     22  C   UNL     1       6.538   5.990  17.773  0.00  0.00    +0.000 C 
BRANCH  22  24
ATOM     23  O   UNL     1       8.571   6.302  19.063  0.00  0.00    +0.000 OA
ATOM     24  C   UNL     1       7.651   6.777  18.411  0.00  0.00    +0.000 C 
BRANCH  24  25
ATOM     25  O   UNL     1       7.424   8.106  18.223  0.00  0.00    +0.000 OA
BRANCH  25  26
ATOM     26  C   UNL     1       8.419   8.843  17.501  0.00  0.00    +0.000 C 
BRANCH  26  27
ATOM     27  C   UNL     1       8.782  10.067  18.301  0.00  0.00    +0.000 A 
ATOM     28  C   UNL     1       9.212   9.952  19.627  0.00  0.00    +0.000 A 
ATOM     29  C   UNL     1       9.527  11.106  20.328  0.00  0.00    +0.000 A 
ATOM     30  N   UNL     1       9.450  12.347  19.803  0.00  0.00    +0.000 NA
ATOM     31  C   UNL     1       9.037  12.437  18.521  0.00  0.00    +0.000 A 
ATOM     32  C   UNL     1       8.697  11.344  17.740  0.00  0.00    +0.000 A 
ENDBRANCH  26  27
ENDBRANCH  25  26
ENDBRANCH  24  25
ENDBRANCH  22  24
ENDBRANCH   1  22
TORSDOF 6
ENDMDL
MODEL 6
REMARK VINA RESULT:      -8.5      3.969      6.745
REMARK  Name = 
REMARK  6 active torsions:
REMARK  status: ('A' for Active; 'I' for Inactive)
REMARK    1  A    between atoms: C_2  and  C_3
REMARK    2  A    between atoms: C_2  and  O_24
REMARK    3  A    between atoms: C_3  and  C_4
REMARK    4  A    between atoms: C_6  and  C_7
REMARK    5  A    between atoms: O_24  and  C_25
REMARK    6  A    between atoms: C_25  and  C_26
REMARK                            x       y       z     vdW  Elec       q    Type
REMARK                         _______ _______ _______ _____ _____    ______ ____
ROOT
ATOM      1  C   UNL     1       5.963   5.285  17.023  0.00  0.00    +0.000 C 
ATOM      2  N   UNL     1       4.963   6.259  17.455  0.00  0.00    +0.000 NA
ATOM      3  C   UNL     1       3.891   5.874  18.060  0.00  0.00    +0.000 C 
ATOM      4  C   UNL     1       3.557   4.454  18.390  0.00  0.00    +0.000 A 
ATOM      5  C   UNL     1       2.226   4.026  18.250  0.00  0.00    +0.000 A 
ATOM      6  C   UNL     1       1.843   2.766  18.709  0.00  0.00    +0.000 A 
ATOM      7 CL   UNL     1       0.206   2.262  18.563  0.00  0.00    +0.000 Cl
ATOM      8  C   UNL     1       2.772   1.921  19.309  0.00  0.00    +0.000 A 
ATOM      9  C   UNL     1       4.099   2.333  19.432  0.00  0.00    +0.000 A 
ATOM     10  C   UNL     1       4.509   3.582  18.943  0.00  0.00    +0.000 A 
ATOM     11  N   UNL     1       5.876   3.870  19.065  0.00  0.00    +0.000 N 
ATOM     12  C   UNL     1       6.633   4.679  18.260  0.00  0.00    +0.000 C 
ATOM     13  O   UNL     1       7.833   4.803  18.514  0.00  0.00    +0.000 OA
ATOM     14  H   UNL     1       6.433   3.343  19.726  0.00  0.00    +0.000 HD
ENDROOT
BRANCH   3  15
ATOM     15  C   UNL     1       2.950   6.965  18.465  0.00  0.00    +0.000 A 
ATOM     16  C   UNL     1       2.708   8.015  17.566  0.00  0.00    +0.000 A 
ATOM     17  C   UNL     1       1.886   9.083  17.937  0.00  0.00    +0.000 A 
ATOM     18  C   UNL     1       1.307   9.111  19.206  0.00  0.00    +0.000 A 
ATOM     19  C   UNL     1       1.551   8.073  20.105  0.00  0.00    +0.000 A 
ATOM     20  C   UNL     1       2.375   7.012  19.736  0.00  0.00    +0.000 A 
ATOM     21  F   UNL     1       2.621   6.057  20.644  0.00  0.00    +0.000 F 
ENDBRANCH   3  15
BRANCH   1  22
ATOM     22  C   UNL     1       7.014   6.019  16.192  0.00  0.00    +0.000 C 
BRANCH  22  24
ATOM     23  O   UNL     1       8.164   5.632  14.089  0.00  0.00    +0.000 OA
ATOM     24  C   UNL     1       7.293   5.319  14.888  0.00  0.00    +0.000 C 
BRANCH  24  25
ATOM     25  O   UNL     1       6.366   4.339  14.700  0.00  0.00    +0.000 OA
BRANCH  25  26
ATOM     26  C   UNL     1       5.518   4.453  13.550  0.00  0.00    +0.000 C 
BRANCH  26  27
ATOM     27  C   UNL     1       5.920   3.396  12.554  0.00  0.00    +0.000 A 
ATOM     28  C   UNL     1       4.969   2.526  12.013  0.00  0.00    +0.000 A 
ATOM     29  C   UNL     1       5.385   1.563  11.107  0.00  0.00    +0.000 A 
ATOM     30  N   UNL     1       6.664   1.416  10.703  0.00  0.00    +0.000 NA
ATOM     31  C   UNL     1       7.567   2.269  11.233  0.00  0.00    +0.000 A 
ATOM     32  C   UNL     1       7.249   3.260  12.148  0.00  0.00    +0.000 A 
ENDBRANCH  26  27
ENDBRANCH  25  26
ENDBRANCH  24  25
ENDBRANCH  22  24
ENDBRANCH   1  22
TORSDOF 6
ENDMDL
MODEL 7
REMARK VINA RESULT:      -8.5      2.829      4.329
REMARK  Name = 
REMARK  6 active torsions:
REMARK  status: ('A' for Active; 'I' for Inactive)
REMARK    1  A    between atoms: C_2  and  C_3
REMARK    2  A    between atoms: C_2  and  O_24
REMARK    3  A    between atoms: C_3  and  C_4
REMARK    4  A    between atoms: C_6  and  C_7
REMARK    5  A    between atoms: O_24  and  C_25
REMARK    6  A    between atoms: C_25  and  C_26
REMARK                            x       y       z     vdW  Elec       q    Type
REMARK                         _______ _______ _______ _____ _____    ______ ____
ROOT
ATOM      1  C   UNL     1       5.082   6.671  18.054  0.00  0.00    +0.000 C 
ATOM      2  N   UNL     1       4.223   5.576  18.500  0.00  0.00    +0.000 NA
ATOM      3  C   UNL     1       3.050   5.816  18.982  0.00  0.00    +0.000 C 
ATOM      4  C   UNL     1       2.446   7.176  19.126  0.00  0.00    +0.000 A 
ATOM      5  C   UNL     1       1.690   7.458  20.275  0.00  0.00    +0.000 A 
ATOM      6  C   UNL     1       0.970   8.650  20.367  0.00  0.00    +0.000 A 
ATOM      7 CL   UNL     1       0.023   8.973  21.764  0.00  0.00    +0.000 Cl
ATOM      8  C   UNL     1       0.994   9.570  19.323  0.00  0.00    +0.000 A 
ATOM      9  C   UNL     1       1.758   9.304  18.187  0.00  0.00    +0.000 A 
ATOM     10  C   UNL     1       2.517   8.128  18.094  0.00  0.00    +0.000 A 
ATOM     11  N   UNL     1       3.295   7.990  16.936  0.00  0.00    +0.000 N 
ATOM     12  C   UNL     1       4.471   7.301  16.799  0.00  0.00    +0.000 C 
ATOM     13  O   UNL     1       5.027   7.302  15.699  0.00  0.00    +0.000 OA
ATOM     14  H   UNL     1       3.072   8.551  16.123  0.00  0.00    +0.000 HD
ENDROOT
BRANCH   3  15
ATOM     15  C   UNL     1       2.261   4.613  19.391  0.00  0.00    +0.000 A 
ATOM     16  C   UNL     1       1.568   3.893  18.406  0.00  0.00    +0.000 A 
ATOM     17  C   UNL     1       0.769   2.803  18.762  0.00  0.00    +0.000 A 
ATOM     18  C   UNL     1       0.654   2.429  20.101  0.00  0.00    +0.000 A 
ATOM     19  C   UNL     1       1.334   3.147  21.085  0.00  0.00    +0.000 A 
ATOM     20  C   UNL     1       2.126   4.236  20.729  0.00  0.00    +0.000 A 
ATOM     21  F   UNL     1       2.728   4.927  21.707  0.00  0.00    +0.000 F 
ENDBRANCH   3  15
BRANCH   1  22
ATOM     22  C   UNL     1       6.452   6.090  17.710  0.00  0.00    +0.000 C 
BRANCH  22  24
ATOM     23  O   UNL     1       6.345   3.998  18.936  0.00  0.00    +0.000 OA
ATOM     24  C   UNL     1       6.490   4.595  17.879  0.00  0.00    +0.000 C 
BRANCH  24  25
ATOM     25  O   UNL     1       6.798   4.017  16.684  0.00  0.00    +0.000 OA
BRANCH  25  26
ATOM     26  C   UNL     1       5.739   3.893  15.726  0.00  0.00    +0.000 C 
BRANCH  26  27
ATOM     27  C   UNL     1       6.314   4.100  14.349  0.00  0.00    +0.000 A 
ATOM     28  C   UNL     1       5.865   3.340  13.265  0.00  0.00    +0.000 A 
ATOM     29  C   UNL     1       6.429   3.558  12.018  0.00  0.00    +0.000 A 
ATOM     30  N   UNL     1       7.390   4.475  11.780  0.00  0.00    +0.000 NA
ATOM     31  C   UNL     1       7.807   5.202  12.838  0.00  0.00    +0.000 A 
ATOM     32  C   UNL     1       7.308   5.055  14.122  0.00  0.00    +0.000 A 
ENDBRANCH  26  27
ENDBRANCH  25  26
ENDBRANCH  24  25
ENDBRANCH  22  24
ENDBRANCH   1  22
TORSDOF 6
ENDMDL
MODEL 8
REMARK VINA RESULT:      -8.1      3.785      6.573
REMARK  Name = 
REMARK  6 active torsions:
REMARK  status: ('A' for Active; 'I' for Inactive)
REMARK    1  A    between atoms: C_2  and  C_3
REMARK    2  A    between atoms: C_2  and  O_24
REMARK    3  A    between atoms: C_3  and  C_4
REMARK    4  A    between atoms: C_6  and  C_7
REMARK    5  A    between atoms: O_24  and  C_25
REMARK    6  A    between atoms: C_25  and  C_26
REMARK                            x       y       z     vdW  Elec       q    Type
REMARK                         _______ _______ _______ _____ _____    ______ ____
ROOT
ATOM      1  C   UNL     1       5.611   5.488  17.205  0.00  0.00    +0.000 C 
ATOM      2  N   UNL     1       4.623   6.495  17.585  0.00  0.00    +0.000 NA
ATOM      3  C   UNL     1       3.575   6.164  18.261  0.00  0.00    +0.000 C 
ATOM      4  C   UNL     1       3.261   4.779  18.728  0.00  0.00    +0.000 A 
ATOM      5  C   UNL     1       1.928   4.338  18.677  0.00  0.00    +0.000 A 
ATOM      6  C   UNL     1       1.568   3.123  19.260  0.00  0.00    +0.000 A 
ATOM      7 CL   UNL     1      -0.071   2.606  19.220  0.00  0.00    +0.000 Cl
ATOM      8  C   UNL     1       2.523   2.336  19.898  0.00  0.00    +0.000 A 
ATOM      9  C   UNL     1       3.851   2.760  19.935  0.00  0.00    +0.000 A 
ATOM     10  C   UNL     1       4.237   3.961  19.321  0.00  0.00    +0.000 A 
ATOM     11  N   UNL     1       5.606   4.261  19.367  0.00  0.00    +0.000 N 
ATOM     12  C   UNL     1       6.329   4.996  18.465  0.00  0.00    +0.000 C 
ATOM     13  O   UNL     1       7.537   5.144  18.662  0.00  0.00    +0.000 OA
ATOM     14  H   UNL     1       6.190   3.795  20.051  0.00  0.00    +0.000 HD
ENDROOT
BRANCH   3  15
ATOM     15  C   UNL     1       2.645   7.285  18.602  0.00  0.00    +0.000 A 
ATOM     16  C   UNL     1       2.379   8.260  17.629  0.00  0.00    +0.000 A 
ATOM     17  C   UNL     1       1.567   9.356  17.935  0.00  0.00    +0.000 A 
ATOM     18  C   UNL     1       1.021   9.486  19.212  0.00  0.00    +0.000 A 
ATOM     19  C   UNL     1       1.288   8.523  20.184  0.00  0.00    +0.000 A 
ATOM     20  C   UNL     1       2.103   7.435  19.880  0.00  0.00    +0.000 A 
ATOM     21  F   UNL     1       2.373   6.554  20.854  0.00  0.00    +0.000 F 
ENDBRANCH   3  15
BRANCH   1  22
ATOM     22  C   UNL     1       6.627   6.147  16.273  0.00  0.00    +0.000 C 
BRANCH  22  24
ATOM     23  O   UNL     1       7.977   4.268  15.536  0.00  0.00    +0.000 OA
ATOM     24  C   UNL     1       7.195   5.171  15.276  0.00  0.00    +0.000 C 
BRANCH  24  25
ATOM     25  O   UNL     1       6.767   5.508  14.028  0.00  0.00    +0.000 OA
BRANCH  25  26
ATOM     26  C   UNL     1       7.537   5.022  12.921  0.00  0.00    +0.000 C 
BRANCH  26  27
ATOM     27  C   UNL     1       6.807   3.856  12.307  0.00  0.00    +0.000 A 
ATOM     28  C   UNL     1       7.511   2.808  11.705  0.00  0.00    +0.000 A 
ATOM     29  C   UNL     1       6.797   1.760  11.145  0.00  0.00    +0.000 A 
ATOM     30  N   UNL     1       5.450   1.682  11.151  0.00  0.00    +0.000 NA
ATOM     31  C   UNL     1       4.788   2.700  11.741  0.00  0.00    +0.000 A 
ATOM     32  C   UNL     1       5.411   3.793  12.324  0.00  0.00    +0.000 A 
ENDBRANCH  26  27
ENDBRANCH  25  26
ENDBRANCH  24  25
ENDBRANCH  22  24
ENDBRANCH   1  22
TORSDOF 6
ENDMDL
MODEL 9
REMARK VINA RESULT:      -8.1      4.056      6.756
REMARK  Name = 
REMARK  6 active torsions:
REMARK  status: ('A' for Active; 'I' for Inactive)
REMARK    1  A    between atoms: C_2  and  C_3
REMARK    2  A    between atoms: C_2  and  O_24
REMARK    3  A    between atoms: C_3  and  C_4
REMARK    4  A    between atoms: C_6  and  C_7
REMARK    5  A    between atoms: O_24  and  C_25
REMARK    6  A    between atoms: C_25  and  C_26
REMARK                            x       y       z     vdW  Elec       q    Type
REMARK                         _______ _______ _______ _____ _____    ______ ____
ROOT
ATOM      1  C   UNL     1       5.889   5.248  16.930  0.00  0.00    +0.000 C 
ATOM      2  N   UNL     1       4.948   6.224  17.475  0.00  0.00    +0.000 NA
ATOM      3  C   UNL     1       3.906   5.836  18.130  0.00  0.00    +0.000 C 
ATOM      4  C   UNL     1       3.553   4.410  18.411  0.00  0.00    +0.000 A 
ATOM      5  C   UNL     1       2.204   4.025  18.339  0.00  0.00    +0.000 A 
ATOM      6  C   UNL     1       1.815   2.753  18.759  0.00  0.00    +0.000 A 
ATOM      7 CL   UNL     1       0.158   2.300  18.697  0.00  0.00    +0.000 Cl
ATOM      8  C   UNL     1       2.756   1.854  19.253  0.00  0.00    +0.000 A 
ATOM      9  C   UNL     1       4.100   2.225  19.308  0.00  0.00    +0.000 A 
ATOM     10  C   UNL     1       4.514   3.486  18.855  0.00  0.00    +0.000 A 
ATOM     11  N   UNL     1       5.893   3.732  18.901  0.00  0.00    +0.000 N 
ATOM     12  C   UNL     1       6.619   4.562  18.088  0.00  0.00    +0.000 C 
ATOM     13  O   UNL     1       7.836   4.642  18.267  0.00  0.00    +0.000 OA
ATOM     14  H   UNL     1       6.477   3.157  19.496  0.00  0.00    +0.000 HD
ENDROOT
BRANCH   3  15
ATOM     15  C   UNL     1       3.026   6.929  18.651  0.00  0.00    +0.000 A 
ATOM     16  C   UNL     1       2.508   6.817  19.949  0.00  0.00    +0.000 A 
ATOM     17  C   UNL     1       1.631   7.787  20.443  0.00  0.00    +0.000 A 
ATOM     18  C   UNL     1       1.264   8.868  19.643  0.00  0.00    +0.000 A 
ATOM     19  C   UNL     1       1.770   8.980  18.348  0.00  0.00    +0.000 A 
ATOM     20  C   UNL     1       2.639   8.009  17.855  0.00  0.00    +0.000 A 
ATOM     21  F   UNL     1       3.069   8.128  16.591  0.00  0.00    +0.000 F 
ENDBRANCH   3  15
BRANCH   1  22
ATOM     22  C   UNL     1       6.904   5.996  16.068  0.00  0.00    +0.000 C 
BRANCH  22  24
ATOM     23  O   UNL     1       8.138   5.507  14.035  0.00  0.00    +0.000 OA
ATOM     24  C   UNL     1       7.204   5.266  14.786  0.00  0.00    +0.000 C 
BRANCH  24  25
ATOM     25  O   UNL     1       6.221   4.352  14.552  0.00  0.00    +0.000 OA
BRANCH  25  26
ATOM     26  C   UNL     1       5.509   4.462  13.313  0.00  0.00    +0.000 C 
BRANCH  26  27
ATOM     27  C   UNL     1       5.955   3.346  12.404  0.00  0.00    +0.000 A 
ATOM     28  C   UNL     1       7.289   3.247  11.995  0.00  0.00    +0.000 A 
ATOM     29  C   UNL     1       7.652   2.209  11.152  0.00  0.00    +0.000 A 
ATOM     30  N   UNL     1       6.792   1.272  10.702  0.00  0.00    +0.000 NA
ATOM     31  C   UNL     1       5.510   1.381  11.111  0.00  0.00    +0.000 A 
ATOM     32  C   UNL     1       5.049   2.384  11.949  0.00  0.00    +0.000 A 
ENDBRANCH  26  27
ENDBRANCH  25  26
ENDBRANCH  24  25
ENDBRANCH  22  24
ENDBRANCH   1  22
TORSDOF 6
ENDMDL
