MODEL 1
REMARK VINA RESULT:      -7.7      0.000      0.000
REMARK  Name = 
REMARK  2 active torsions:
REMARK  status: ('A' for Active; 'I' for Inactive)
REMARK    1  A    between atoms: C_1  and  C_2
REMARK    2  A    between atoms: C_5  and  C_6
REMARK                            x       y       z     vdW  Elec       q    Type
REMARK                         _______ _______ _______ _____ _____    ______ ____
ROOT
ATOM      1  C   UNL     1       4.592   3.830  17.927  0.00  0.00    +0.000 A 
ATOM      2  N   UNL     1       3.388   4.269  18.092  0.00  0.00    +0.000 NA
ATOM      3  C   UNL     1       2.703   3.839  19.222  0.00  0.00    +0.000 A 
ATOM      4  C   UNL     1       1.392   4.269  19.434  0.00  0.00    +0.000 A 
ATOM      5  C   UNL     1       0.684   3.849  20.562  0.00  0.00    +0.000 A 
ATOM      6  C   UNL     1       1.287   2.998  21.488  0.00  0.00    +0.000 A 
ATOM      7  C   UNL     1       2.595   2.565  21.282  0.00  0.00    +0.000 A 
ATOM      8  C   UNL     1       3.291   2.990  20.145  0.00  0.00    +0.000 A 
ATOM      9  C   UNL     1       4.665   2.549  19.883  0.00  0.00    +0.000 A 
ATOM     10  O   UNL     1       5.244   1.798  20.661  0.00  0.00    +0.000 OA
ATOM     11  O   UNL     1       5.261   2.998  18.754  0.00  0.00    +0.000 OA
ENDROOT
BRANCH   1  16
ATOM     12  C   UNL     1       7.791   5.191  13.289  0.00  0.00    +0.000 C 
ATOM     13  C   UNL     1       6.959   4.853  14.490  0.00  0.00    +0.000 A 
ATOM     14  C   UNL     1       5.655   4.371  14.347  0.00  0.00    +0.000 A 
ATOM     15  C   UNL     1       4.894   4.048  15.473  0.00  0.00    +0.000 A 
ATOM     16  C   UNL     1       5.428   4.205  16.759  0.00  0.00    +0.000 A 
ATOM     17  C   UNL     1       6.732   4.695  16.905  0.00  0.00    +0.000 A 
ATOM     18  C   UNL     1       7.491   5.016  15.775  0.00  0.00    +0.000 A 
ENDBRANCH   1  16
TORSDOF 1
ENDMDL
MODEL 2
REMARK VINA RESULT:      -7.7      1.835      6.676
REMARK  Name = 
REMARK  2 active torsions:
REMARK  status: ('A' for Active; 'I' for Inactive)
REMARK    1  A    between atoms: C_1  and  C_2
REMARK    2  A    between atoms: C_5  and  C_6
REMARK                            x       y       z     vdW  Elec       q    Type
REMARK                         _______ _______ _______ _____ _____    ______ ____
ROOT
ATOM      1  C   UNL     1       4.890   4.311  16.516  0.00  0.00    +0.000 A 
ATOM      2  N   UNL     1       4.821   3.740  15.360  0.00  0.00    +0.000 NA
ATOM      3  C   UNL     1       5.772   4.102  14.412  0.00  0.00    +0.000 A 
ATOM      4  C   UNL     1       5.726   3.527  13.141  0.00  0.00    +0.000 A 
ATOM      5  C   UNL     1       6.671   3.877  12.173  0.00  0.00    +0.000 A 
ATOM      6  C   UNL     1       7.670   4.802  12.475  0.00  0.00    +0.000 A 
ATOM      7  C   UNL     1       7.721   5.379  13.742  0.00  0.00    +0.000 A 
ATOM      8  C   UNL     1       6.766   5.023  14.701  0.00  0.00    +0.000 A 
ATOM      9  C   UNL     1       6.775   5.615  16.043  0.00  0.00    +0.000 A 
ATOM     10  O   UNL     1       7.628   6.436  16.363  0.00  0.00    +0.000 OA
ATOM     11  O   UNL     1       5.808   5.224  16.905  0.00  0.00    +0.000 OA
ENDROOT
BRANCH   1  16
ATOM     12  C   UNL     1       1.039   3.220  20.707  0.00  0.00    +0.000 C 
ATOM     13  C   UNL     1       2.041   3.488  19.624  0.00  0.00    +0.000 A 
ATOM     14  C   UNL     1       1.701   3.330  18.277  0.00  0.00    +0.000 A 
ATOM     15  C   UNL     1       2.639   3.595  17.277  0.00  0.00    +0.000 A 
ATOM     16  C   UNL     1       3.932   4.021  17.611  0.00  0.00    +0.000 A 
ATOM     17  C   UNL     1       4.276   4.173  18.961  0.00  0.00    +0.000 A 
ATOM     18  C   UNL     1       3.334   3.908  19.959  0.00  0.00    +0.000 A 
ENDBRANCH   1  16
TORSDOF 1
ENDMDL
MODEL 3
REMARK VINA RESULT:      -7.7      1.771      6.748
REMARK  Name = 
REMARK  2 active torsions:
REMARK  status: ('A' for Active; 'I' for Inactive)
REMARK    1  A    between atoms: C_1  and  C_2
REMARK    2  A    between atoms: C_5  and  C_6
REMARK                            x       y       z     vdW  Elec       q    Type
REMARK                         _______ _______ _______ _____ _____    ______ ____
ROOT
ATOM      1  C   UNL     1       4.864   4.272  16.558  0.00  0.00    +0.000 A 
ATOM      2  N   UNL     1       4.787   3.716  15.394  0.00  0.00    +0.000 NA
ATOM      3  C   UNL     1       5.735   4.087  14.447  0.00  0.00    +0.000 A 
ATOM      4  C   UNL     1       5.680   3.529  13.169  0.00  0.00    +0.000 A 
ATOM      5  C   UNL     1       6.621   3.888  12.201  0.00  0.00    +0.000 A 
ATOM      6  C   UNL     1       7.626   4.805  12.510  0.00  0.00    +0.000 A 
ATOM      7  C   UNL     1       7.685   5.366  13.785  0.00  0.00    +0.000 A 
ATOM      8  C   UNL     1       6.733   5.001  14.743  0.00  0.00    +0.000 A 
ATOM      9  C   UNL     1       6.751   5.575  16.092  0.00  0.00    +0.000 A 
ATOM     10  O   UNL     1       7.608   6.388  16.419  0.00  0.00    +0.000 OA
ATOM     11  O   UNL     1       5.787   5.176  16.954  0.00  0.00    +0.000 OA
ENDROOT
BRANCH   1  16
ATOM     12  C   UNL     1       1.230   2.998  20.890  0.00  0.00    +0.000 C 
ATOM     13  C   UNL     1       2.170   3.342  19.773  0.00  0.00    +0.000 A 
ATOM     14  C   UNL     1       3.554   3.242  19.943  0.00  0.00    +0.000 A 
ATOM     15  C   UNL     1       4.418   3.553  18.891  0.00  0.00    +0.000 A 
ATOM     16  C   UNL     1       3.909   3.971  17.654  0.00  0.00    +0.000 A 
ATOM     17  C   UNL     1       2.523   4.079  17.484  0.00  0.00    +0.000 A 
ATOM     18  C   UNL     1       1.661   3.765  18.539  0.00  0.00    +0.000 A 
ENDBRANCH   1  16
TORSDOF 1
ENDMDL
MODEL 4
REMARK VINA RESULT:      -7.7      0.140      1.144
REMARK  Name = 
REMARK  2 active torsions:
REMARK  status: ('A' for Active; 'I' for Inactive)
REMARK    1  A    between atoms: C_1  and  C_2
REMARK    2  A    between atoms: C_5  and  C_6
REMARK                            x       y       z     vdW  Elec       q    Type
REMARK                         _______ _______ _______ _____ _____    ______ ____
ROOT
ATOM      1  C   UNL     1       4.560   3.801  17.791  0.00  0.00    +0.000 A 
ATOM      2  N   UNL     1       3.355   4.237  17.946  0.00  0.00    +0.000 NA
ATOM      3  C   UNL     1       2.677   3.841  19.093  0.00  0.00    +0.000 A 
ATOM      4  C   UNL     1       1.363   4.269  19.296  0.00  0.00    +0.000 A 
ATOM      5  C   UNL     1       0.663   3.882  20.440  0.00  0.00    +0.000 A 
ATOM      6  C   UNL     1       1.275   3.066  21.391  0.00  0.00    +0.000 A 
ATOM      7  C   UNL     1       2.585   2.634  21.194  0.00  0.00    +0.000 A 
ATOM      8  C   UNL     1       3.274   3.026  20.041  0.00  0.00    +0.000 A 
ATOM      9  C   UNL     1       4.650   2.585  19.788  0.00  0.00    +0.000 A 
ATOM     10  O   UNL     1       5.237   1.864  20.588  0.00  0.00    +0.000 OA
ATOM     11  O   UNL     1       5.239   3.000  18.643  0.00  0.00    +0.000 OA
ENDROOT
BRANCH   1  16
ATOM     12  C   UNL     1       7.854   5.244  13.245  0.00  0.00    +0.000 C 
ATOM     13  C   UNL     1       7.007   4.857  14.421  0.00  0.00    +0.000 A 
ATOM     14  C   UNL     1       7.439   5.101  15.728  0.00  0.00    +0.000 A 
ATOM     15  C   UNL     1       6.636   4.747  16.814  0.00  0.00    +0.000 A 
ATOM     16  C   UNL     1       5.389   4.142  16.608  0.00  0.00    +0.000 A 
ATOM     17  C   UNL     1       4.958   3.890  15.299  0.00  0.00    +0.000 A 
ATOM     18  C   UNL     1       5.764   4.247  14.214  0.00  0.00    +0.000 A 
ENDBRANCH   1  16
TORSDOF 1
ENDMDL
MODEL 5
REMARK VINA RESULT:      -7.4      1.577      2.246
REMARK  Name = 
REMARK  2 active torsions:
REMARK  status: ('A' for Active; 'I' for Inactive)
REMARK    1  A    between atoms: C_1  and  C_2
REMARK    2  A    between atoms: C_5  and  C_6
REMARK                            x       y       z     vdW  Elec       q    Type
REMARK                         _______ _______ _______ _____ _____    ______ ____
ROOT
ATOM      1  C   UNL     1       4.135   3.957  17.356  0.00  0.00    +0.000 A 
ATOM      2  N   UNL     1       4.451   3.514  18.528  0.00  0.00    +0.000 NA
ATOM      3  C   UNL     1       3.411   3.249  19.411  0.00  0.00    +0.000 A 
ATOM      4  C   UNL     1       3.703   2.789  20.696  0.00  0.00    +0.000 A 
ATOM      5  C   UNL     1       2.673   2.518  21.600  0.00  0.00    +0.000 A 
ATOM      6  C   UNL     1       1.344   2.702  21.220  0.00  0.00    +0.000 A 
ATOM      7  C   UNL     1       1.046   3.161  19.939  0.00  0.00    +0.000 A 
ATOM      8  C   UNL     1       2.087   3.433  19.045  0.00  0.00    +0.000 A 
ATOM      9  C   UNL     1       1.819   3.929  17.691  0.00  0.00    +0.000 A 
ATOM     10  O   UNL     1       0.670   4.113  17.304  0.00  0.00    +0.000 OA
ATOM     11  O   UNL     1       2.885   4.179  16.894  0.00  0.00    +0.000 OA
ENDROOT
BRANCH   1  16
ATOM     12  C   UNL     1       8.051   5.131  13.247  0.00  0.00    +0.000 C 
ATOM     13  C   UNL     1       7.032   4.842  14.309  0.00  0.00    +0.000 A 
ATOM     14  C   UNL     1       5.804   4.257  13.986  0.00  0.00    +0.000 A 
ATOM     15  C   UNL     1       4.869   3.980  14.986  0.00  0.00    +0.000 A 
ATOM     16  C   UNL     1       5.149   4.286  16.324  0.00  0.00    +0.000 A 
ATOM     17  C   UNL     1       6.376   4.879  16.649  0.00  0.00    +0.000 A 
ATOM     18  C   UNL     1       7.311   5.153  15.646  0.00  0.00    +0.000 A 
ENDBRANCH   1  16
TORSDOF 1
ENDMDL
MODEL 6
REMARK VINA RESULT:      -7.3      1.590      2.518
REMARK  Name = 
REMARK  2 active torsions:
REMARK  status: ('A' for Active; 'I' for Inactive)
REMARK    1  A    between atoms: C_1  and  C_2
REMARK    2  A    between atoms: C_5  and  C_6
REMARK                            x       y       z     vdW  Elec       q    Type
REMARK                         _______ _______ _______ _____ _____    ______ ____
ROOT
ATOM      1  C   UNL     1       4.136   3.903  17.298  0.00  0.00    +0.000 A 
ATOM      2  N   UNL     1       4.461   3.461  18.467  0.00  0.00    +0.000 NA
ATOM      3  C   UNL     1       3.429   3.218  19.366  0.00  0.00    +0.000 A 
ATOM      4  C   UNL     1       3.732   2.760  20.650  0.00  0.00    +0.000 A 
ATOM      5  C   UNL     1       2.711   2.511  21.570  0.00  0.00    +0.000 A 
ATOM      6  C   UNL     1       1.379   2.717  21.208  0.00  0.00    +0.000 A 
ATOM      7  C   UNL     1       1.071   3.174  19.929  0.00  0.00    +0.000 A 
ATOM      8  C   UNL     1       2.104   3.424  19.019  0.00  0.00    +0.000 A 
ATOM      9  C   UNL     1       1.825   3.918  17.666  0.00  0.00    +0.000 A 
ATOM     10  O   UNL     1       0.674   4.120  17.294  0.00  0.00    +0.000 OA
ATOM     11  O   UNL     1       2.883   4.145  16.853  0.00  0.00    +0.000 OA
ENDROOT
BRANCH   1  16
ATOM     12  C   UNL     1       8.096   5.221  13.276  0.00  0.00    +0.000 C 
ATOM     13  C   UNL     1       7.077   4.866  14.318  0.00  0.00    +0.000 A 
ATOM     14  C   UNL     1       7.261   5.233  15.655  0.00  0.00    +0.000 A 
ATOM     15  C   UNL     1       6.300   4.908  16.614  0.00  0.00    +0.000 A 
ATOM     16  C   UNL     1       5.141   4.209  16.250  0.00  0.00    +0.000 A 
ATOM     17  C   UNL     1       4.959   3.835  14.912  0.00  0.00    +0.000 A 
ATOM     18  C   UNL     1       5.922   4.163  13.954  0.00  0.00    +0.000 A 
ENDBRANCH   1  16
TORSDOF 1
ENDMDL
MODEL 7
REMARK VINA RESULT:      -7.3      3.685      6.613
REMARK  Name = 
REMARK  2 active torsions:
REMARK  status: ('A' for Active; 'I' for Inactive)
REMARK    1  A    between atoms: C_1  and  C_2
REMARK    2  A    between atoms: C_5  and  C_6
REMARK                            x       y       z     vdW  Elec       q    Type
REMARK                         _______ _______ _______ _____ _____    ______ ____
ROOT
ATOM      1  C   UNL     1       2.999   6.806  18.073  0.00  0.00    +0.000 A 
ATOM      2  N   UNL     1       4.109   7.075  17.471  0.00  0.00    +0.000 NA
ATOM      3  C   UNL     1       4.797   6.012  16.897  0.00  0.00    +0.000 A 
ATOM      4  C   UNL     1       6.013   6.249  16.253  0.00  0.00    +0.000 A 
ATOM      5  C   UNL     1       6.721   5.196  15.670  0.00  0.00    +0.000 A 
ATOM      6  C   UNL     1       6.213   3.898  15.726  0.00  0.00    +0.000 A 
ATOM      7  C   UNL     1       5.000   3.655  16.367  0.00  0.00    +0.000 A 
ATOM      8  C   UNL     1       4.303   4.718  16.951  0.00  0.00    +0.000 A 
ATOM      9  C   UNL     1       3.030   4.505  17.646  0.00  0.00    +0.000 A 
ATOM     10  O   UNL     1       2.538   3.385  17.729  0.00  0.00    +0.000 OA
ATOM     11  O   UNL     1       2.427   5.587  18.193  0.00  0.00    +0.000 OA
ENDROOT
BRANCH   1  16
ATOM     12  C   UNL     1      -0.171  10.971  20.563  0.00  0.00    +0.000 C 
ATOM     13  C   UNL     1       0.636   9.885  19.917  0.00  0.00    +0.000 A 
ATOM     14  C   UNL     1       0.956   9.941  18.557  0.00  0.00    +0.000 A 
ATOM     15  C   UNL     1       1.719   8.930  17.969  0.00  0.00    +0.000 A 
ATOM     16  C   UNL     1       2.173   7.847  18.734  0.00  0.00    +0.000 A 
ATOM     17  C   UNL     1       1.848   7.786  20.095  0.00  0.00    +0.000 A 
ATOM     18  C   UNL     1       1.085   8.800  20.681  0.00  0.00    +0.000 A 
ENDBRANCH   1  16
TORSDOF 1
ENDMDL
MODEL 8
REMARK VINA RESULT:      -7.3      1.208      1.239
REMARK  Name = 
REMARK  2 active torsions:
REMARK  status: ('A' for Active; 'I' for Inactive)
REMARK    1  A    between atoms: C_1  and  C_2
REMARK    2  A    between atoms: C_5  and  C_6
REMARK                            x       y       z     vdW  Elec       q    Type
REMARK                         _______ _______ _______ _____ _____    ______ ____
ROOT
ATOM      1  C   UNL     1       4.420   4.018  17.167  0.00  0.00    +0.000 A 
ATOM      2  N   UNL     1       3.777   4.914  17.839  0.00  0.00    +0.000 NA
ATOM      3  C   UNL     1       2.936   4.469  18.852  0.00  0.00    +0.000 A 
ATOM      4  C   UNL     1       2.203   5.398  19.592  0.00  0.00    +0.000 A 
ATOM      5  C   UNL     1       1.350   4.973  20.614  0.00  0.00    +0.000 A 
ATOM      6  C   UNL     1       1.229   3.614  20.902  0.00  0.00    +0.000 A 
ATOM      7  C   UNL     1       1.957   2.681  20.166  0.00  0.00    +0.000 A 
ATOM      8  C   UNL     1       2.804   3.120  19.143  0.00  0.00    +0.000 A 
ATOM      9  C   UNL     1       3.579   2.173  18.335  0.00  0.00    +0.000 A 
ATOM     10  O   UNL     1       3.510   0.966  18.542  0.00  0.00    +0.000 OA
ATOM     11  O   UNL     1       4.365   2.681  17.358  0.00  0.00    +0.000 OA
ENDROOT
BRANCH   1  16
ATOM     12  C   UNL     1       7.997   5.219  12.767  0.00  0.00    +0.000 C 
ATOM     13  C   UNL     1       7.064   4.921  13.903  0.00  0.00    +0.000 A 
ATOM     14  C   UNL     1       5.947   4.101  13.718  0.00  0.00    +0.000 A 
ATOM     15  C   UNL     1       5.092   3.820  14.786  0.00  0.00    +0.000 A 
ATOM     16  C   UNL     1       5.343   4.358  16.056  0.00  0.00    +0.000 A 
ATOM     17  C   UNL     1       6.458   5.186  16.241  0.00  0.00    +0.000 A 
ATOM     18  C   UNL     1       7.312   5.463  15.170  0.00  0.00    +0.000 A 
ENDBRANCH   1  16
TORSDOF 1
ENDMDL
MODEL 9
REMARK VINA RESULT:      -7.2      1.207      1.674
REMARK  Name = 
REMARK  2 active torsions:
REMARK  status: ('A' for Active; 'I' for Inactive)
REMARK    1  A    between atoms: C_1  and  C_2
REMARK    2  A    between atoms: C_5  and  C_6
REMARK                            x       y       z     vdW  Elec       q    Type
REMARK                         _______ _______ _______ _____ _____    ______ ____
ROOT
ATOM      1  C   UNL     1       4.438   3.990  17.148  0.00  0.00    +0.000 A 
ATOM      2  N   UNL     1       3.822   4.911  17.811  0.00  0.00    +0.000 NA
ATOM      3  C   UNL     1       2.977   4.502  18.836  0.00  0.00    +0.000 A 
ATOM      4  C   UNL     1       2.273   5.459  19.568  0.00  0.00    +0.000 A 
ATOM      5  C   UNL     1       1.418   5.071  20.601  0.00  0.00    +0.000 A 
ATOM      6  C   UNL     1       1.265   3.719  20.910  0.00  0.00    +0.000 A 
ATOM      7  C   UNL     1       1.965   2.758  20.183  0.00  0.00    +0.000 A 
ATOM      8  C   UNL     1       2.815   3.161  19.148  0.00  0.00    +0.000 A 
ATOM      9  C   UNL     1       3.560   2.183  18.349  0.00  0.00    +0.000 A 
ATOM     10  O   UNL     1       3.462   0.981  18.573  0.00  0.00    +0.000 OA
ATOM     11  O   UNL     1       4.351   2.657  17.358  0.00  0.00    +0.000 OA
ENDROOT
BRANCH   1  16
ATOM     12  C   UNL     1       8.074   5.294  12.827  0.00  0.00    +0.000 C 
ATOM     13  C   UNL     1       7.141   4.943  13.947  0.00  0.00    +0.000 A 
ATOM     14  C   UNL     1       7.381   5.393  15.249  0.00  0.00    +0.000 A 
ATOM     15  C   UNL     1       6.497   5.070  16.281  0.00  0.00    +0.000 A 
ATOM     16  C   UNL     1       5.361   4.291  16.025  0.00  0.00    +0.000 A 
ATOM     17  C   UNL     1       5.122   3.834  14.722  0.00  0.00    +0.000 A 
ATOM     18  C   UNL     1       6.008   4.160  13.692  0.00  0.00    +0.000 A 
ENDBRANCH   1  16
TORSDOF 1
ENDMDL
