MODEL 1
REMARK VINA RESULT:      -7.2      0.000      0.000
REMARK  Name = 
REMARK  12 active torsions:
REMARK  status: ('A' for Active; 'I' for Inactive)
REMARK    1  A    between atoms: C_1  and  C_2
REMARK    2  A    between atoms: C_2  and  N_3
REMARK    3  A    between atoms: N_7  and  C_8
REMARK    4  A    between atoms: C_8  and  C_9
REMARK    5  A    between atoms: C_8  and  C_10
REMARK    6  A    between atoms: C_13  and  C_14
REMARK    7  A    between atoms: C_15  and  C_16
REMARK    8  A    between atoms: C_18  and  C_19
REMARK    9  A    between atoms: C_20  and  C_21
REMARK   10  A    between atoms: C_21  and  O_23
REMARK   11  A    between atoms: C_26  and  O_27
REMARK   12  A    between atoms: O_27  and  C_28
REMARK                            x       y       z     vdW  Elec       q    Type
REMARK                         _______ _______ _______ _____ _____    ______ ____
ROOT
ATOM      1  N   UNL     1       2.951   5.117  19.812  0.00  0.00    +0.000 N 
ATOM      2  C   UNL     1       4.053   4.314  19.512  0.00  0.00    +0.000 C 
ATOM      3  O   UNL     1       4.101   3.100  19.721  0.00  0.00    +0.000 OA
ATOM      4  C   UNL     1       5.280   5.099  19.082  0.00  0.00    +0.000 C 
ATOM      5  N   UNL     1       4.966   6.060  18.024  0.00  0.00    +0.000 N 
ATOM      6  C   UNL     1       3.842   6.846  18.308  0.00  0.00    +0.000 A 
ATOM      7  C   UNL     1       3.660   8.102  17.724  0.00  0.00    +0.000 A 
ATOM      8  C   UNL     1       2.609   8.977  18.082  0.00  0.00    +0.000 A 
ATOM      9  C   UNL     1       2.708  10.357  17.468  0.00  0.00    +0.000 C 
ATOM     10  C   UNL     1       1.580   8.555  18.975  0.00  0.00    +0.000 A 
ATOM     11  C   UNL     1       1.715   7.245  19.484  0.00  0.00    +0.000 A 
ATOM     12  C   UNL     1       2.837   6.420  19.217  0.00  0.00    +0.000 A 
ENDROOT
BRANCH  10  13
ATOM     13  C   UNL     1       0.410   9.432  19.368  0.00  0.00    +0.000 A 
ATOM     14  C   UNL     1      -0.695   9.487  18.495  0.00  0.00    +0.000 A 
ATOM     15  C   UNL     1      -1.683  10.466  18.572  0.00  0.00    +0.000 A 
ATOM     16  C   UNL     1      -1.729  11.273  19.692  0.00  0.00    +0.000 A 
ATOM     17  C   UNL     1      -0.783  11.096  20.701  0.00  0.00    +0.000 A 
ATOM     18  C   UNL     1       0.343  10.276  20.509  0.00  0.00    +0.000 A 
BRANCH  15  19
ATOM     19  C   UNL     1      -2.560  10.783  17.421  0.00  0.00    +0.000 C 
ATOM     20  C   UNL     1      -2.411  10.302  16.177  0.00  0.00    +0.000 C 
BRANCH  20  21
ATOM     21  C   UNL     1      -3.305  10.774  15.105  0.00  0.00    +0.000 C 
ATOM     22  O   UNL     1      -3.549  10.160  14.075  0.00  0.00    +0.000 OA
BRANCH  21  23
ATOM     23  O   UNL     1      -3.848  11.974  15.391  0.00  0.00    +0.000 OA
ATOM     24  H   UNL     1      -4.670  11.951  15.916  0.00  0.00    +0.000 HD
ENDBRANCH  21  23
ENDBRANCH  20  21
ENDBRANCH  15  19
BRANCH  18  25
ATOM     25  O   UNL     1       1.384  10.263  21.400  0.00  0.00    +0.000 OA
BRANCH  25  26
ATOM     26  C   UNL     1       1.321   9.432  22.560  0.00  0.00    +0.000 C 
ATOM     27  F   UNL     1       2.465   9.382  23.275  0.00  0.00    +0.000 F 
ATOM     28  F   UNL     1       0.319   9.848  23.365  0.00  0.00    +0.000 F 
ATOM     29  F   UNL     1       1.045   8.168  22.164  0.00  0.00    +0.000 F 
ENDBRANCH  25  26
ENDBRANCH  18  25
ENDBRANCH  10  13
BRANCH   5  30
ATOM     30  C   UNL     1       5.935   6.336  16.941  0.00  0.00    +0.000 C 
ATOM     31  C   UNL     1       7.239   6.979  17.436  0.00  0.00    +0.000 C 
ATOM     32  C   UNL     1       6.284   5.066  16.149  0.00  0.00    +0.000 C 
ENDBRANCH   5  30
BRANCH   1  34
ATOM     33  C   UNL     1       0.963   3.818  20.417  0.00  0.00    +0.000 C 
ATOM     34  C   UNL     1       2.110   4.687  20.926  0.00  0.00    +0.000 C 
ENDBRANCH   1  34
TORSDOF 8
ENDMDL
MODEL 2
REMARK VINA RESULT:      -7.2      0.878      1.285
REMARK  Name = 
REMARK  12 active torsions:
REMARK  status: ('A' for Active; 'I' for Inactive)
REMARK    1  A    between atoms: C_1  and  C_2
REMARK    2  A    between atoms: C_2  and  N_3
REMARK    3  A    between atoms: N_7  and  C_8
REMARK    4  A    between atoms: C_8  and  C_9
REMARK    5  A    between atoms: C_8  and  C_10
REMARK    6  A    between atoms: C_13  and  C_14
REMARK    7  A    between atoms: C_15  and  C_16
REMARK    8  A    between atoms: C_18  and  C_19
REMARK    9  A    between atoms: C_20  and  C_21
REMARK   10  A    between atoms: C_21  and  O_23
REMARK   11  A    between atoms: C_26  and  O_27
REMARK   12  A    between atoms: O_27  and  C_28
REMARK                            x       y       z     vdW  Elec       q    Type
REMARK                         _______ _______ _______ _____ _____    ______ ____
ROOT
ATOM      1  N   UNL     1       2.674   5.315  19.638  0.00  0.00    +0.000 N 
ATOM      2  C   UNL     1       3.698   4.480  19.188  0.00  0.00    +0.000 C 
ATOM      3  O   UNL     1       3.710   3.256  19.338  0.00  0.00    +0.000 OA
ATOM      4  C   UNL     1       4.909   5.231  18.662  0.00  0.00    +0.000 C 
ATOM      5  N   UNL     1       4.532   6.254  17.686  0.00  0.00    +0.000 N 
ATOM      6  C   UNL     1       3.484   7.074  18.122  0.00  0.00    +0.000 A 
ATOM      7  C   UNL     1       3.301   8.362  17.615  0.00  0.00    +0.000 A 
ATOM      8  C   UNL     1       2.337   9.264  18.121  0.00  0.00    +0.000 A 
ATOM      9  C   UNL     1       2.437  10.666  17.560  0.00  0.00    +0.000 C 
ATOM     10  C   UNL     1       1.388   8.845  19.101  0.00  0.00    +0.000 A 
ATOM     11  C   UNL     1       1.514   7.507  19.536  0.00  0.00    +0.000 A 
ATOM     12  C   UNL     1       2.560   6.648  19.115  0.00  0.00    +0.000 A 
ENDROOT
BRANCH  10  13
ATOM     13  C   UNL     1       0.310   9.751  19.654  0.00  0.00    +0.000 A 
ATOM     14  C   UNL     1      -0.834   9.976  18.861  0.00  0.00    +0.000 A 
ATOM     15  C   UNL     1      -1.741  11.005  19.101  0.00  0.00    +0.000 A 
ATOM     16  C   UNL     1      -1.667  11.688  20.298  0.00  0.00    +0.000 A 
ATOM     17  C   UNL     1      -0.683  11.339  21.223  0.00  0.00    +0.000 A 
ATOM     18  C   UNL     1       0.368  10.470  20.879  0.00  0.00    +0.000 A 
BRANCH  15  19
ATOM     19  C   UNL     1      -2.653  11.504  18.045  0.00  0.00    +0.000 C 
ATOM     20  C   UNL     1      -3.989  11.373  18.049  0.00  0.00    +0.000 C 
BRANCH  20  21
ATOM     21  C   UNL     1      -4.766  11.839  16.887  0.00  0.00    +0.000 C 
ATOM     22  O   UNL     1      -5.902  12.292  16.939  0.00  0.00    +0.000 OA
BRANCH  21  23
ATOM     23  O   UNL     1      -4.075  11.721  15.736  0.00  0.00    +0.000 OA
ATOM     24  H   UNL     1      -3.940  12.549  15.238  0.00  0.00    +0.000 HD
ENDBRANCH  21  23
ENDBRANCH  20  21
ENDBRANCH  15  19
BRANCH  18  25
ATOM     25  O   UNL     1       1.452  10.290  21.697  0.00  0.00    +0.000 OA
BRANCH  25  26
ATOM     26  C   UNL     1       1.425   9.278  22.705  0.00  0.00    +0.000 C 
ATOM     27  F   UNL     1       1.208   8.030  22.239  0.00  0.00    +0.000 F 
ATOM     28  F   UNL     1       2.585   9.293  23.396  0.00  0.00    +0.000 F 
ATOM     29  F   UNL     1       0.420   9.561  23.566  0.00  0.00    +0.000 F 
ENDBRANCH  25  26
ENDBRANCH  18  25
ENDBRANCH  10  13
BRANCH   5  30
ATOM     30  C   UNL     1       5.394   6.539  16.518  0.00  0.00    +0.000 C 
ATOM     31  C   UNL     1       6.846   6.869  16.895  0.00  0.00    +0.000 C 
ATOM     32  C   UNL     1       5.400   5.375  15.514  0.00  0.00    +0.000 C 
ENDBRANCH   5  30
BRANCH   1  34
ATOM     33  C   UNL     1       0.804   3.929  20.406  0.00  0.00    +0.000 C 
ATOM     34  C   UNL     1       1.935   4.869  20.817  0.00  0.00    +0.000 C 
ENDBRANCH   1  34
TORSDOF 8
ENDMDL
MODEL 3
REMARK VINA RESULT:      -7.0      5.311      7.669
REMARK  Name = 
REMARK  12 active torsions:
REMARK  status: ('A' for Active; 'I' for Inactive)
REMARK    1  A    between atoms: C_1  and  C_2
REMARK    2  A    between atoms: C_2  and  N_3
REMARK    3  A    between atoms: N_7  and  C_8
REMARK    4  A    between atoms: C_8  and  C_9
REMARK    5  A    between atoms: C_8  and  C_10
REMARK    6  A    between atoms: C_13  and  C_14
REMARK    7  A    between atoms: C_15  and  C_16
REMARK    8  A    between atoms: C_18  and  C_19
REMARK    9  A    between atoms: C_20  and  C_21
REMARK   10  A    between atoms: C_21  and  O_23
REMARK   11  A    between atoms: C_26  and  O_27
REMARK   12  A    between atoms: O_27  and  C_28
REMARK                            x       y       z     vdW  Elec       q    Type
REMARK                         _______ _______ _______ _____ _____    ______ ____
ROOT
ATOM      1  N   UNL     1       0.789  16.725  18.865  0.00  0.00    +0.000 N 
ATOM      2  C   UNL     1       1.988  17.434  18.959  0.00  0.00    +0.000 C 
ATOM      3  O   UNL     1       2.063  18.631  19.246  0.00  0.00    +0.000 OA
ATOM      4  C   UNL     1       3.198  16.650  18.482  0.00  0.00    +0.000 C 
ATOM      5  N   UNL     1       3.264  15.326  19.100  0.00  0.00    +0.000 N 
ATOM      6  C   UNL     1       2.054  14.624  19.034  0.00  0.00    +0.000 A 
ATOM      7  C   UNL     1       2.012  13.229  19.094  0.00  0.00    +0.000 A 
ATOM      8  C   UNL     1       0.828  12.482  18.903  0.00  0.00    +0.000 A 
ATOM      9  C   UNL     1       1.038  10.985  18.819  0.00  0.00    +0.000 C 
ATOM     10  C   UNL     1      -0.435  13.134  18.776  0.00  0.00    +0.000 A 
ATOM     11  C   UNL     1      -0.398  14.545  18.819  0.00  0.00    +0.000 A 
ATOM     12  C   UNL     1       0.808  15.289  18.886  0.00  0.00    +0.000 A 
ENDROOT
BRANCH  10  13
ATOM     13  C   UNL     1      -1.742  12.389  18.606  0.00  0.00    +0.000 A 
ATOM     14  C   UNL     1      -1.961  11.712  17.388  0.00  0.00    +0.000 A 
ATOM     15  C   UNL     1      -3.213  11.257  16.981  0.00  0.00    +0.000 A 
ATOM     16  C   UNL     1      -4.243  11.241  17.900  0.00  0.00    +0.000 A 
ATOM     17  C   UNL     1      -4.007  11.690  19.199  0.00  0.00    +0.000 A 
ATOM     18  C   UNL     1      -2.818  12.364  19.533  0.00  0.00    +0.000 A 
BRANCH  15  19
ATOM     19  C   UNL     1      -3.514  10.968  15.559  0.00  0.00    +0.000 C 
ATOM     20  C   UNL     1      -3.056   9.911  14.870  0.00  0.00    +0.000 C 
BRANCH  20  21
ATOM     21  C   UNL     1      -3.363   9.795  13.433  0.00  0.00    +0.000 C 
ATOM     22  O   UNL     1      -4.480   9.900  12.944  0.00  0.00    +0.000 OA
BRANCH  21  23
ATOM     23  O   UNL     1      -2.257   9.567  12.697  0.00  0.00    +0.000 OA
ATOM     24  H   UNL     1      -2.407   9.139  11.833  0.00  0.00    +0.000 HD
ENDBRANCH  21  23
ENDBRANCH  20  21
ENDBRANCH  15  19
BRANCH  18  25
ATOM     25  O   UNL     1      -2.664  12.999  20.738  0.00  0.00    +0.000 OA
BRANCH  25  26
ATOM     26  C   UNL     1      -2.093  12.300  21.845  0.00  0.00    +0.000 C 
ATOM     27  F   UNL     1      -1.412  11.184  21.511  0.00  0.00    +0.000 F 
ATOM     28  F   UNL     1      -1.274  13.125  22.532  0.00  0.00    +0.000 F 
ATOM     29  F   UNL     1      -3.096  11.921  22.671  0.00  0.00    +0.000 F 
ENDBRANCH  25  26
ENDBRANCH  18  25
ENDBRANCH  10  13
BRANCH   5  30
ATOM     30  C   UNL     1       4.567  14.726  19.464  0.00  0.00    +0.000 C 
ATOM     31  C   UNL     1       5.760  15.368  18.741  0.00  0.00    +0.000 C 
ATOM     32  C   UNL     1       4.820  14.788  20.980  0.00  0.00    +0.000 C 
ENDBRANCH   5  30
BRANCH   1  34
ATOM     33  C   UNL     1      -0.253  18.001  17.050  0.00  0.00    +0.000 C 
ATOM     34  C   UNL     1      -0.396  17.489  18.481  0.00  0.00    +0.000 C 
ENDBRANCH   1  34
TORSDOF 8
ENDMDL
MODEL 4
REMARK VINA RESULT:      -6.9      0.822      1.124
REMARK  Name = 
REMARK  12 active torsions:
REMARK  status: ('A' for Active; 'I' for Inactive)
REMARK    1  A    between atoms: C_1  and  C_2
REMARK    2  A    between atoms: C_2  and  N_3
REMARK    3  A    between atoms: N_7  and  C_8
REMARK    4  A    between atoms: C_8  and  C_9
REMARK    5  A    between atoms: C_8  and  C_10
REMARK    6  A    between atoms: C_13  and  C_14
REMARK    7  A    between atoms: C_15  and  C_16
REMARK    8  A    between atoms: C_18  and  C_19
REMARK    9  A    between atoms: C_20  and  C_21
REMARK   10  A    between atoms: C_21  and  O_23
REMARK   11  A    between atoms: C_26  and  O_27
REMARK   12  A    between atoms: O_27  and  C_28
REMARK                            x       y       z     vdW  Elec       q    Type
REMARK                         _______ _______ _______ _____ _____    ______ ____
ROOT
ATOM      1  N   UNL     1       2.479   4.523  18.837  0.00  0.00    +0.000 N 
ATOM      2  C   UNL     1       3.527   3.650  18.538  0.00  0.00    +0.000 C 
ATOM      3  O   UNL     1       3.420   2.422  18.517  0.00  0.00    +0.000 OA
ATOM      4  C   UNL     1       4.877   4.336  18.428  0.00  0.00    +0.000 C 
ATOM      5  N   UNL     1       4.826   5.497  17.540  0.00  0.00    +0.000 N 
ATOM      6  C   UNL     1       3.758   6.359  17.818  0.00  0.00    +0.000 A 
ATOM      7  C   UNL     1       3.794   7.710  17.463  0.00  0.00    +0.000 A 
ATOM      8  C   UNL     1       2.795   8.635  17.839  0.00  0.00    +0.000 A 
ATOM      9  C   UNL     1       3.124  10.077  17.517  0.00  0.00    +0.000 C 
ATOM     10  C   UNL     1       1.604   8.200  18.494  0.00  0.00    +0.000 A 
ATOM     11  C   UNL     1       1.528   6.815  18.759  0.00  0.00    +0.000 A 
ATOM     12  C   UNL     1       2.588   5.912  18.490  0.00  0.00    +0.000 A 
ENDROOT
BRANCH  10  13
ATOM     13  C   UNL     1       0.483   9.136  18.889  0.00  0.00    +0.000 A 
ATOM     14  C   UNL     1      -0.578   9.317  17.977  0.00  0.00    +0.000 A 
ATOM     15  C   UNL     1      -1.497  10.359  18.071  0.00  0.00    +0.000 A 
ATOM     16  C   UNL     1      -1.535  11.107  19.231  0.00  0.00    +0.000 A 
ATOM     17  C   UNL     1      -0.648  10.810  20.264  0.00  0.00    +0.000 A 
ATOM     18  C   UNL     1       0.426   9.921  20.072  0.00  0.00    +0.000 A 
BRANCH  15  19
ATOM     19  C   UNL     1      -2.299  10.799  16.905  0.00  0.00    +0.000 C 
ATOM     20  C   UNL     1      -2.755   9.997  15.931  0.00  0.00    +0.000 C 
BRANCH  20  21
ATOM     21  C   UNL     1      -3.466  10.585  14.781  0.00  0.00    +0.000 C 
ATOM     22  O   UNL     1      -3.610  10.042  13.694  0.00  0.00    +0.000 OA
BRANCH  21  23
ATOM     23  O   UNL     1      -3.962  11.806  15.064  0.00  0.00    +0.000 OA
ATOM     24  H   UNL     1      -3.480  12.558  14.671  0.00  0.00    +0.000 HD
ENDBRANCH  21  23
ENDBRANCH  20  21
ENDBRANCH  15  19
BRANCH  18  25
ATOM     25  O   UNL     1       1.424   9.786  21.001  0.00  0.00    +0.000 OA
BRANCH  25  26
ATOM     26  C   UNL     1       1.247   8.914  22.118  0.00  0.00    +0.000 C 
ATOM     27  F   UNL     1       0.043   9.013  22.719  0.00  0.00    +0.000 F 
ATOM     28  F   UNL     1       1.441   7.634  21.732  0.00  0.00    +0.000 F 
ATOM     29  F   UNL     1       2.182   9.218  23.048  0.00  0.00    +0.000 F 
ENDBRANCH  25  26
ENDBRANCH  18  25
ENDBRANCH  10  13
BRANCH   5  30
ATOM     30  C   UNL     1       5.972   5.832  16.665  0.00  0.00    +0.000 C 
ATOM     31  C   UNL     1       7.280   5.140  17.079  0.00  0.00    +0.000 C 
ATOM     32  C   UNL     1       5.683   5.496  15.193  0.00  0.00    +0.000 C 
ENDBRANCH   5  30
BRANCH   1  34
ATOM     33  C   UNL     1       1.940   4.006  21.172  0.00  0.00    +0.000 C 
ATOM     34  C   UNL     1       1.439   4.016  19.729  0.00  0.00    +0.000 C 
ENDBRANCH   1  34
TORSDOF 8
ENDMDL
MODEL 5
REMARK VINA RESULT:      -6.9      5.190      9.198
REMARK  Name = 
REMARK  12 active torsions:
REMARK  status: ('A' for Active; 'I' for Inactive)
REMARK    1  A    between atoms: C_1  and  C_2
REMARK    2  A    between atoms: C_2  and  N_3
REMARK    3  A    between atoms: N_7  and  C_8
REMARK    4  A    between atoms: C_8  and  C_9
REMARK    5  A    between atoms: C_8  and  C_10
REMARK    6  A    between atoms: C_13  and  C_14
REMARK    7  A    between atoms: C_15  and  C_16
REMARK    8  A    between atoms: C_18  and  C_19
REMARK    9  A    between atoms: C_20  and  C_21
REMARK   10  A    between atoms: C_21  and  O_23
REMARK   11  A    between atoms: C_26  and  O_27
REMARK   12  A    between atoms: O_27  and  C_28
REMARK                            x       y       z     vdW  Elec       q    Type
REMARK                         _______ _______ _______ _____ _____    ______ ____
ROOT
ATOM      1  N   UNL     1      -5.091  13.678  22.825  0.00  0.00    +0.000 N 
ATOM      2  C   UNL     1      -5.726  14.604  23.655  0.00  0.00    +0.000 C 
ATOM      3  O   UNL     1      -6.833  14.430  24.167  0.00  0.00    +0.000 OA
ATOM      4  C   UNL     1      -5.019  15.947  23.720  0.00  0.00    +0.000 C 
ATOM      5  N   UNL     1      -3.594  15.796  24.012  0.00  0.00    +0.000 N 
ATOM      6  C   UNL     1      -2.960  14.845  23.203  0.00  0.00    +0.000 A 
ATOM      7  C   UNL     1      -1.586  14.888  22.958  0.00  0.00    +0.000 A 
ATOM      8  C   UNL     1      -0.934  14.026  22.047  0.00  0.00    +0.000 A 
ATOM      9  C   UNL     1       0.519  14.368  21.792  0.00  0.00    +0.000 C 
ATOM     10  C   UNL     1      -1.639  12.955  21.424  0.00  0.00    +0.000 A 
ATOM     11  C   UNL     1      -3.008  12.854  21.754  0.00  0.00    +0.000 A 
ATOM     12  C   UNL     1      -3.682  13.796  22.572  0.00  0.00    +0.000 A 
ENDROOT
BRANCH  10  13
ATOM     13  C   UNL     1      -0.989  11.977  20.468  0.00  0.00    +0.000 A 
ATOM     14  C   UNL     1      -1.307  12.084  19.098  0.00  0.00    +0.000 A 
ATOM     15  C   UNL     1      -1.034  11.082  18.170  0.00  0.00    +0.000 A 
ATOM     16  C   UNL     1      -0.201  10.045  18.540  0.00  0.00    +0.000 A 
ATOM     17  C   UNL     1       0.329  10.021  19.829  0.00  0.00    +0.000 A 
ATOM     18  C   UNL     1      -0.137  10.898  20.826  0.00  0.00    +0.000 A 
BRANCH  15  19
ATOM     19  C   UNL     1      -1.749  11.003  16.874  0.00  0.00    +0.000 C 
ATOM     20  C   UNL     1      -2.604  10.032  16.519  0.00  0.00    +0.000 C 
BRANCH  20  21
ATOM     21  C   UNL     1      -3.176  10.031  15.161  0.00  0.00    +0.000 C 
ATOM     22  O   UNL     1      -2.538   9.859  14.131  0.00  0.00    +0.000 OA
BRANCH  21  23
ATOM     23  O   UNL     1      -4.508  10.234  15.174  0.00  0.00    +0.000 OA
ATOM     24  H   UNL     1      -4.808  11.041  15.633  0.00  0.00    +0.000 HD
ENDBRANCH  21  23
ENDBRANCH  20  21
ENDBRANCH  15  19
BRANCH  18  25
ATOM     25  O   UNL     1       0.214  10.744  22.142  0.00  0.00    +0.000 OA
BRANCH  25  26
ATOM     26  C   UNL     1      -0.511   9.838  22.973  0.00  0.00    +0.000 C 
ATOM     27  F   UNL     1       0.196   9.343  24.011  0.00  0.00    +0.000 F 
ATOM     28  F   UNL     1      -1.621  10.443  23.448  0.00  0.00    +0.000 F 
ATOM     29  F   UNL     1      -0.898   8.784  22.218  0.00  0.00    +0.000 F 
ENDBRANCH  25  26
ENDBRANCH  18  25
ENDBRANCH  10  13
BRANCH   5  30
ATOM     30  C   UNL     1      -2.888  16.778  24.866  0.00  0.00    +0.000 C 
ATOM     31  C   UNL     1      -3.815  17.849  25.460  0.00  0.00    +0.000 C 
ATOM     32  C   UNL     1      -2.128  16.095  26.014  0.00  0.00    +0.000 C 
ENDBRANCH   5  30
BRANCH   1  34
ATOM     33  C   UNL     1      -6.431  13.500  20.780  0.00  0.00    +0.000 C 
ATOM     34  C   UNL     1      -5.956  12.794  22.048  0.00  0.00    +0.000 C 
ENDBRANCH   1  34
TORSDOF 8
ENDMDL
MODEL 6
REMARK VINA RESULT:      -6.5      0.482      1.017
REMARK  Name = 
REMARK  12 active torsions:
REMARK  status: ('A' for Active; 'I' for Inactive)
REMARK    1  A    between atoms: C_1  and  C_2
REMARK    2  A    between atoms: C_2  and  N_3
REMARK    3  A    between atoms: N_7  and  C_8
REMARK    4  A    between atoms: C_8  and  C_9
REMARK    5  A    between atoms: C_8  and  C_10
REMARK    6  A    between atoms: C_13  and  C_14
REMARK    7  A    between atoms: C_15  and  C_16
REMARK    8  A    between atoms: C_18  and  C_19
REMARK    9  A    between atoms: C_20  and  C_21
REMARK   10  A    between atoms: C_21  and  O_23
REMARK   11  A    between atoms: C_26  and  O_27
REMARK   12  A    between atoms: O_27  and  C_28
REMARK                            x       y       z     vdW  Elec       q    Type
REMARK                         _______ _______ _______ _____ _____    ______ ____
ROOT
ATOM      1  N   UNL     1       2.875   4.897  19.905  0.00  0.00    +0.000 N 
ATOM      2  C   UNL     1       3.950   4.039  19.669  0.00  0.00    +0.000 C 
ATOM      3  O   UNL     1       3.943   2.833  19.923  0.00  0.00    +0.000 OA
ATOM      4  C   UNL     1       5.219   4.757  19.245  0.00  0.00    +0.000 C 
ATOM      5  N   UNL     1       4.975   5.688  18.144  0.00  0.00    +0.000 N 
ATOM      6  C   UNL     1       3.877   6.530  18.365  0.00  0.00    +0.000 A 
ATOM      7  C   UNL     1       3.763   7.768  17.730  0.00  0.00    +0.000 A 
ATOM      8  C   UNL     1       2.739   8.698  18.024  0.00  0.00    +0.000 A 
ATOM      9  C   UNL     1       2.912  10.049  17.362  0.00  0.00    +0.000 C 
ATOM     10  C   UNL     1       1.669   8.352  18.901  0.00  0.00    +0.000 A 
ATOM     11  C   UNL     1       1.736   7.058  19.462  0.00  0.00    +0.000 A 
ATOM     12  C   UNL     1       2.830   6.179  19.260  0.00  0.00    +0.000 A 
ENDROOT
BRANCH  10  13
ATOM     13  C   UNL     1       0.526   9.289  19.227  0.00  0.00    +0.000 A 
ATOM     14  C   UNL     1      -0.513   9.416  18.282  0.00  0.00    +0.000 A 
ATOM     15  C   UNL     1      -1.448  10.448  18.307  0.00  0.00    +0.000 A 
ATOM     16  C   UNL     1      -1.525  11.245  19.431  0.00  0.00    +0.000 A 
ATOM     17  C   UNL     1      -0.661  11.004  20.499  0.00  0.00    +0.000 A 
ATOM     18  C   UNL     1       0.429  10.124  20.373  0.00  0.00    +0.000 A 
BRANCH  15  19
ATOM     19  C   UNL     1      -2.225  10.826  17.103  0.00  0.00    +0.000 C 
ATOM     20  C   UNL     1      -2.918   9.977  16.330  0.00  0.00    +0.000 C 
BRANCH  20  21
ATOM     21  C   UNL     1      -3.573  10.478  15.109  0.00  0.00    +0.000 C 
ATOM     22  O   UNL     1      -3.066  10.490  13.995  0.00  0.00    +0.000 OA
BRANCH  21  23
ATOM     23  O   UNL     1      -4.823  10.922  15.351  0.00  0.00    +0.000 OA
ATOM     24  H   UNL     1      -4.895  11.638  16.010  0.00  0.00    +0.000 HD
ENDBRANCH  21  23
ENDBRANCH  20  21
ENDBRANCH  15  19
BRANCH  18  25
ATOM     25  O   UNL     1       1.404  10.042  21.332  0.00  0.00    +0.000 OA
BRANCH  25  26
ATOM     26  C   UNL     1       1.198   9.239  22.494  0.00  0.00    +0.000 C 
ATOM     27  F   UNL     1       0.720   8.002  22.241  0.00  0.00    +0.000 F 
ATOM     28  F   UNL     1       2.354   9.129  23.184  0.00  0.00    +0.000 F 
ATOM     29  F   UNL     1       0.294   9.860  23.286  0.00  0.00    +0.000 F 
ENDBRANCH  25  26
ENDBRANCH  18  25
ENDBRANCH  10  13
BRANCH   5  30
ATOM     30  C   UNL     1       5.984   5.884  17.080  0.00  0.00    +0.000 C 
ATOM     31  C   UNL     1       5.374   6.043  15.679  0.00  0.00    +0.000 C 
ATOM     32  C   UNL     1       6.884   7.098  17.363  0.00  0.00    +0.000 C 
ENDBRANCH   5  30
BRANCH   1  34
ATOM     33  C   UNL     1       0.794   3.740  20.493  0.00  0.00    +0.000 C 
ATOM     34  C   UNL     1       1.986   4.543  21.010  0.00  0.00    +0.000 C 
ENDBRANCH   1  34
TORSDOF 8
ENDMDL
MODEL 7
REMARK VINA RESULT:      -6.5      5.270      9.444
REMARK  Name = 
REMARK  12 active torsions:
REMARK  status: ('A' for Active; 'I' for Inactive)
REMARK    1  A    between atoms: C_1  and  C_2
REMARK    2  A    between atoms: C_2  and  N_3
REMARK    3  A    between atoms: N_7  and  C_8
REMARK    4  A    between atoms: C_8  and  C_9
REMARK    5  A    between atoms: C_8  and  C_10
REMARK    6  A    between atoms: C_13  and  C_14
REMARK    7  A    between atoms: C_15  and  C_16
REMARK    8  A    between atoms: C_18  and  C_19
REMARK    9  A    between atoms: C_20  and  C_21
REMARK   10  A    between atoms: C_21  and  O_23
REMARK   11  A    between atoms: C_26  and  O_27
REMARK   12  A    between atoms: O_27  and  C_28
REMARK                            x       y       z     vdW  Elec       q    Type
REMARK                         _______ _______ _______ _____ _____    ______ ____
ROOT
ATOM      1  N   UNL     1      -5.374  12.447  19.426  0.00  0.00    +0.000 N 
ATOM      2  C   UNL     1      -6.683  12.629  19.876  0.00  0.00    +0.000 C 
ATOM      3  O   UNL     1      -7.681  12.207  19.289  0.00  0.00    +0.000 OA
ATOM      4  C   UNL     1      -6.793  13.569  21.064  0.00  0.00    +0.000 C 
ATOM      5  N   UNL     1      -5.863  13.204  22.133  0.00  0.00    +0.000 N 
ATOM      6  C   UNL     1      -4.555  12.992  21.679  0.00  0.00    +0.000 A 
ATOM      7  C   UNL     1      -3.454  13.127  22.528  0.00  0.00    +0.000 A 
ATOM      8  C   UNL     1      -2.116  13.047  22.078  0.00  0.00    +0.000 A 
ATOM      9  C   UNL     1      -1.082  13.412  23.122  0.00  0.00    +0.000 C 
ATOM     10  C   UNL     1      -1.819  12.677  20.733  0.00  0.00    +0.000 A 
ATOM     11  C   UNL     1      -2.938  12.441  19.905  0.00  0.00    +0.000 A 
ATOM     12  C   UNL     1      -4.276  12.644  20.330  0.00  0.00    +0.000 A 
ENDROOT
BRANCH  10  13
ATOM     13  C   UNL     1      -0.408  12.539  20.202  0.00  0.00    +0.000 A 
ATOM     14  C   UNL     1       0.286  13.718  19.861  0.00  0.00    +0.000 A 
ATOM     15  C   UNL     1       1.445  13.726  19.088  0.00  0.00    +0.000 A 
ATOM     16  C   UNL     1       2.089  12.529  18.846  0.00  0.00    +0.000 A 
ATOM     17  C   UNL     1       1.557  11.350  19.366  0.00  0.00    +0.000 A 
ATOM     18  C   UNL     1       0.271  11.319  19.937  0.00  0.00    +0.000 A 
BRANCH  15  19
ATOM     19  C   UNL     1       1.899  14.943  18.375  0.00  0.00    +0.000 C 
ATOM     20  C   UNL     1       1.728  16.203  18.805  0.00  0.00    +0.000 C 
BRANCH  20  21
ATOM     21  C   UNL     1       2.152  17.325  17.949  0.00  0.00    +0.000 C 
ATOM     22  O   UNL     1       2.957  17.242  17.031  0.00  0.00    +0.000 OA
BRANCH  21  23
ATOM     23  O   UNL     1       1.537  18.477  18.284  0.00  0.00    +0.000 OA
ATOM     24  H   UNL     1       0.828  18.768  17.680  0.00  0.00    +0.000 HD
ENDBRANCH  21  23
ENDBRANCH  20  21
ENDBRANCH  15  19
BRANCH  18  25
ATOM     25  O   UNL     1      -0.349  10.138  20.253  0.00  0.00    +0.000 OA
BRANCH  25  26
ATOM     26  C   UNL     1       0.046   9.413  21.418  0.00  0.00    +0.000 C 
ATOM     27  F   UNL     1       1.233   8.781  21.307  0.00  0.00    +0.000 F 
ATOM     28  F   UNL     1       0.090  10.246  22.480  0.00  0.00    +0.000 F 
ATOM     29  F   UNL     1      -0.887   8.465  21.665  0.00  0.00    +0.000 F 
ENDBRANCH  25  26
ENDBRANCH  18  25
ENDBRANCH  10  13
BRANCH   5  30
ATOM     30  C   UNL     1      -6.247  13.356  23.553  0.00  0.00    +0.000 C 
ATOM     31  C   UNL     1      -6.673  14.785  23.923  0.00  0.00    +0.000 C 
ATOM     32  C   UNL     1      -7.376  12.390  23.947  0.00  0.00    +0.000 C 
ENDBRANCH   5  30
BRANCH   1  34
ATOM     33  C   UNL     1      -4.963  10.865  17.599  0.00  0.00    +0.000 C 
ATOM     34  C   UNL     1      -5.189  12.326  17.981  0.00  0.00    +0.000 C 
ENDBRANCH   1  34
TORSDOF 8
ENDMDL
MODEL 8
REMARK VINA RESULT:      -6.5      5.417      9.228
REMARK  Name = 
REMARK  12 active torsions:
REMARK  status: ('A' for Active; 'I' for Inactive)
REMARK    1  A    between atoms: C_1  and  C_2
REMARK    2  A    between atoms: C_2  and  N_3
REMARK    3  A    between atoms: N_7  and  C_8
REMARK    4  A    between atoms: C_8  and  C_9
REMARK    5  A    between atoms: C_8  and  C_10
REMARK    6  A    between atoms: C_13  and  C_14
REMARK    7  A    between atoms: C_15  and  C_16
REMARK    8  A    between atoms: C_18  and  C_19
REMARK    9  A    between atoms: C_20  and  C_21
REMARK   10  A    between atoms: C_21  and  O_23
REMARK   11  A    between atoms: C_26  and  O_27
REMARK   12  A    between atoms: O_27  and  C_28
REMARK                            x       y       z     vdW  Elec       q    Type
REMARK                         _______ _______ _______ _____ _____    ______ ____
ROOT
ATOM      1  N   UNL     1      -3.041  13.623  22.492  0.00  0.00    +0.000 N 
ATOM      2  C   UNL     1      -3.723  14.283  23.516  0.00  0.00    +0.000 C 
ATOM      3  O   UNL     1      -3.174  14.946  24.398  0.00  0.00    +0.000 OA
ATOM      4  C   UNL     1      -5.205  13.954  23.572  0.00  0.00    +0.000 C 
ATOM      5  N   UNL     1      -5.844  14.107  22.265  0.00  0.00    +0.000 N 
ATOM      6  C   UNL     1      -5.146  13.472  21.230  0.00  0.00    +0.000 A 
ATOM      7  C   UNL     1      -5.784  13.068  20.055  0.00  0.00    +0.000 A 
ATOM      8  C   UNL     1      -5.143  12.312  19.047  0.00  0.00    +0.000 A 
ATOM      9  C   UNL     1      -6.066  11.819  17.953  0.00  0.00    +0.000 C 
ATOM     10  C   UNL     1      -3.745  12.039  19.116  0.00  0.00    +0.000 A 
ATOM     11  C   UNL     1      -3.083  12.540  20.259  0.00  0.00    +0.000 A 
ATOM     12  C   UNL     1      -3.757  13.189  21.325  0.00  0.00    +0.000 A 
ENDROOT
BRANCH  10  13
ATOM     13  C   UNL     1      -2.995  11.268  18.052  0.00  0.00    +0.000 A 
ATOM     14  C   UNL     1      -3.494  11.307  16.734  0.00  0.00    +0.000 A 
ATOM     15  C   UNL     1      -3.097  10.418  15.738  0.00  0.00    +0.000 A 
ATOM     16  C   UNL     1      -1.994   9.619  15.965  0.00  0.00    +0.000 A 
ATOM     17  C   UNL     1      -1.321   9.714  17.183  0.00  0.00    +0.000 A 
ATOM     18  C   UNL     1      -1.864  10.433  18.263  0.00  0.00    +0.000 A 
BRANCH  15  19
ATOM     19  C   UNL     1      -3.923  10.177  14.532  0.00  0.00    +0.000 C 
ATOM     20  C   UNL     1      -3.449   9.845  13.321  0.00  0.00    +0.000 C 
BRANCH  20  21
ATOM     21  C   UNL     1      -4.380   9.723  12.186  0.00  0.00    +0.000 C 
ATOM     22  O   UNL     1      -5.599   9.662  12.283  0.00  0.00    +0.000 OA
BRANCH  21  23
ATOM     23  O   UNL     1      -3.735   9.695  11.003  0.00  0.00    +0.000 OA
ATOM     24  H   UNL     1      -3.360   8.832  10.748  0.00  0.00    +0.000 HD
ENDBRANCH  21  23
ENDBRANCH  20  21
ENDBRANCH  15  19
BRANCH  18  25
ATOM     25  O   UNL     1      -1.328  10.357  19.522  0.00  0.00    +0.000 OA
BRANCH  25  26
ATOM     26  C   UNL     1       0.055  10.650  19.728  0.00  0.00    +0.000 C 
ATOM     27  F   UNL     1       0.526  11.675  18.987  0.00  0.00    +0.000 F 
ATOM     28  F   UNL     1       0.275  10.914  21.034  0.00  0.00    +0.000 F 
ATOM     29  F   UNL     1       0.776   9.554  19.394  0.00  0.00    +0.000 F 
ENDBRANCH  25  26
ENDBRANCH  18  25
ENDBRANCH  10  13
BRANCH   5  30
ATOM     30  C   UNL     1      -7.226  14.623  22.154  0.00  0.00    +0.000 C 
ATOM     31  C   UNL     1      -7.911  14.834  23.513  0.00  0.00    +0.000 C 
ATOM     32  C   UNL     1      -7.283  15.942  21.367  0.00  0.00    +0.000 C 
ENDBRANCH   5  30
BRANCH   1  34
ATOM     33  C   UNL     1      -1.702  11.748  23.330  0.00  0.00    +0.000 C 
ATOM     34  C   UNL     1      -1.683  13.177  22.792  0.00  0.00    +0.000 C 
ENDBRANCH   1  34
TORSDOF 8
ENDMDL
MODEL 9
REMARK VINA RESULT:      -6.4      0.991      1.335
REMARK  Name = 
REMARK  12 active torsions:
REMARK  status: ('A' for Active; 'I' for Inactive)
REMARK    1  A    between atoms: C_1  and  C_2
REMARK    2  A    between atoms: C_2  and  N_3
REMARK    3  A    between atoms: N_7  and  C_8
REMARK    4  A    between atoms: C_8  and  C_9
REMARK    5  A    between atoms: C_8  and  C_10
REMARK    6  A    between atoms: C_13  and  C_14
REMARK    7  A    between atoms: C_15  and  C_16
REMARK    8  A    between atoms: C_18  and  C_19
REMARK    9  A    between atoms: C_20  and  C_21
REMARK   10  A    between atoms: C_21  and  O_23
REMARK   11  A    between atoms: C_26  and  O_27
REMARK   12  A    between atoms: O_27  and  C_28
REMARK                            x       y       z     vdW  Elec       q    Type
REMARK                         _______ _______ _______ _____ _____    ______ ____
ROOT
ATOM      1  N   UNL     1       2.506   4.846  18.565  0.00  0.00    +0.000 N 
ATOM      2  C   UNL     1       3.667   4.086  18.417  0.00  0.00    +0.000 C 
ATOM      3  O   UNL     1       3.685   2.855  18.349  0.00  0.00    +0.000 OA
ATOM      4  C   UNL     1       4.945   4.896  18.543  0.00  0.00    +0.000 C 
ATOM      5  N   UNL     1       4.923   6.082  17.688  0.00  0.00    +0.000 N 
ATOM      6  C   UNL     1       3.746   6.831  17.811  0.00  0.00    +0.000 A 
ATOM      7  C   UNL     1       3.707   8.192  17.501  0.00  0.00    +0.000 A 
ATOM      8  C   UNL     1       2.576   9.007  17.734  0.00  0.00    +0.000 A 
ATOM      9  C   UNL     1       2.811  10.485  17.505  0.00  0.00    +0.000 C 
ATOM     10  C   UNL     1       1.345   8.438  18.177  0.00  0.00    +0.000 A 
ATOM     11  C   UNL     1       1.362   7.043  18.391  0.00  0.00    +0.000 A 
ATOM     12  C   UNL     1       2.534   6.253  18.275  0.00  0.00    +0.000 A 
ENDROOT
BRANCH  10  13
ATOM     13  C   UNL     1       0.090   9.252  18.409  0.00  0.00    +0.000 A 
ATOM     14  C   UNL     1      -0.940   9.164  17.450  0.00  0.00    +0.000 A 
ATOM     15  C   UNL     1      -1.995  10.071  17.376  0.00  0.00    +0.000 A 
ATOM     16  C   UNL     1      -2.189  10.949  18.423  0.00  0.00    +0.000 A 
ATOM     17  C   UNL     1      -1.321  10.913  19.514  0.00  0.00    +0.000 A 
ATOM     18  C   UNL     1      -0.129  10.167  19.475  0.00  0.00    +0.000 A 
BRANCH  15  19
ATOM     19  C   UNL     1      -2.792  10.241  16.138  0.00  0.00    +0.000 C 
ATOM     20  C   UNL     1      -2.468   9.747  14.933  0.00  0.00    +0.000 C 
BRANCH  20  21
ATOM     21  C   UNL     1      -3.309  10.070  13.767  0.00  0.00    +0.000 C 
ATOM     22  O   UNL     1      -4.360  10.695  13.812  0.00  0.00    +0.000 OA
BRANCH  21  23
ATOM     23  O   UNL     1      -2.781   9.604  12.618  0.00  0.00    +0.000 OA
ATOM     24  H   UNL     1      -2.580   8.649  12.603  0.00  0.00    +0.000 HD
ENDBRANCH  21  23
ENDBRANCH  20  21
ENDBRANCH  15  19
BRANCH  18  25
ATOM     25  O   UNL     1       0.832  10.292  20.443  0.00  0.00    +0.000 OA
BRANCH  25  26
ATOM     26  C   UNL     1       0.782   9.471  21.610  0.00  0.00    +0.000 C 
ATOM     27  F   UNL     1       0.615  10.151  22.765  0.00  0.00    +0.000 F 
ATOM     28  F   UNL     1      -0.211   8.564  21.488  0.00  0.00    +0.000 F 
ATOM     29  F   UNL     1       1.953   8.801  21.709  0.00  0.00    +0.000 F 
ENDBRANCH  25  26
ENDBRANCH  18  25
ENDBRANCH  10  13
BRANCH   5  30
ATOM     30  C   UNL     1       6.155   6.555  17.018  0.00  0.00    +0.000 C 
ATOM     31  C   UNL     1       7.343   6.730  17.975  0.00  0.00    +0.000 C 
ATOM     32  C   UNL     1       6.579   5.618  15.875  0.00  0.00    +0.000 C 
ENDBRANCH   5  30
BRANCH   1  34
ATOM     33  C   UNL     1       1.584   4.326  20.776  0.00  0.00    +0.000 C 
ATOM     34  C   UNL     1       1.392   4.211  19.265  0.00  0.00    +0.000 C 
ENDBRANCH   1  34
TORSDOF 8
ENDMDL
