MODEL 1
REMARK VINA RESULT:      -7.5      0.000      0.000
REMARK  Name = 
REMARK  2 active torsions:
REMARK  status: ('A' for Active; 'I' for Inactive)
REMARK    1  A    between atoms: C_1  and  C_2
REMARK    2  A    between atoms: C_10  and  C_11
REMARK                            x       y       z     vdW  Elec       q    Type
REMARK                         _______ _______ _______ _____ _____    ______ ____
ROOT
ATOM      1  C   UNL     1      -0.239   9.569  23.456  0.00  0.00    +0.000 C 
ATOM      2  C   UNL     1      -0.808  10.661  22.589  0.00  0.00    +0.000 A 
ATOM      3  C   UNL     1      -1.670  11.572  23.232  0.00  0.00    +0.000 A 
ATOM      4  C   UNL     1      -2.261  12.624  22.540  0.00  0.00    +0.000 A 
ATOM      5  C   UNL     1      -2.005  12.784  21.184  0.00  0.00    +0.000 A 
ATOM      6  C   UNL     1      -1.153  11.896  20.519  0.00  0.00    +0.000 A 
ATOM      7  C   UNL     1      -0.542  10.821  21.205  0.00  0.00    +0.000 A 
ATOM      8  C   UNL     1       0.310   9.965  20.371  0.00  0.00    +0.000 A 
ATOM      9  S   UNL     1       1.145   8.585  20.872  0.00  0.00    +0.000 S 
ATOM     10  C   UNL     1       1.771   8.265  19.320  0.00  0.00    +0.000 A 
ATOM     11  C   UNL     1       1.367   9.235  18.423  0.00  0.00    +0.000 A 
ATOM     12  C   UNL     1       0.517  10.213  19.034  0.00  0.00    +0.000 A 
ATOM     13  C   UNL     1      -0.110  11.391  18.371  0.00  0.00    +0.000 C 
ATOM     14  O   UNL     1      -1.008  12.176  19.179  0.00  0.00    +0.000 OA
ENDROOT
BRANCH  10  15
ATOM     15  C   UNL     1       2.615   7.094  19.075  0.00  0.00    +0.000 C 
ATOM     16  O   UNL     1       3.368   7.044  18.111  0.00  0.00    +0.000 OA
ATOM     17  N   UNL     1       2.419   6.087  19.995  0.00  0.00    +0.000 N 
ATOM     18  C   UNL     1       3.063   4.892  19.953  0.00  0.00    +0.000 A 
ATOM     19  N   UNL     1       4.077   4.516  19.221  0.00  0.00    +0.000 NA
ATOM     20  C   UNL     1       4.351   3.188  19.476  0.00  0.00    +0.000 A 
ATOM     21  C   UNL     1       3.526   2.574  20.395  0.00  0.00    +0.000 A 
ATOM     22  S   UNL     1       2.416   3.724  21.021  0.00  0.00    +0.000 S 
ATOM     23  H   UNL     1       1.696   6.193  20.692  0.00  0.00    +0.000 HD
ENDBRANCH  10  15
TORSDOF 1
ENDMDL
MODEL 2
REMARK VINA RESULT:      -7.4      1.177      1.177
REMARK  Name = 
REMARK  2 active torsions:
REMARK  status: ('A' for Active; 'I' for Inactive)
REMARK    1  A    between atoms: C_1  and  C_2
REMARK    2  A    between atoms: C_10  and  C_11
REMARK                            x       y       z     vdW  Elec       q    Type
REMARK                         _______ _______ _______ _____ _____    ______ ____
ROOT
ATOM      1  C   UNL     1       0.203   9.299  23.140  0.00  0.00    +0.000 C 
ATOM      2  C   UNL     1      -0.565  10.390  22.441  0.00  0.00    +0.000 A 
ATOM      3  C   UNL     1      -1.412  11.166  23.256  0.00  0.00    +0.000 A 
ATOM      4  C   UNL     1      -2.177  12.204  22.728  0.00  0.00    +0.000 A 
ATOM      5  C   UNL     1      -2.110  12.482  21.369  0.00  0.00    +0.000 A 
ATOM      6  C   UNL     1      -1.277  11.729  20.535  0.00  0.00    +0.000 A 
ATOM      7  C   UNL     1      -0.493  10.672  21.052  0.00  0.00    +0.000 A 
ATOM      8  C   UNL     1       0.317   9.963  20.054  0.00  0.00    +0.000 A 
ATOM      9  S   UNL     1       1.325   8.637  20.336  0.00  0.00    +0.000 S 
ATOM     10  C   UNL     1       1.772   8.489  18.699  0.00  0.00    +0.000 A 
ATOM     11  C   UNL     1       1.175   9.476  17.939  0.00  0.00    +0.000 A 
ATOM     12  C   UNL     1       0.329  10.323  18.726  0.00  0.00    +0.000 A 
ATOM     13  C   UNL     1      -0.477  11.479  18.243  0.00  0.00    +0.000 C 
ATOM     14  O   UNL     1      -1.329  12.115  19.215  0.00  0.00    +0.000 OA
ENDROOT
BRANCH  10  15
ATOM     15  C   UNL     1       2.676   7.425  18.258  0.00  0.00    +0.000 C 
ATOM     16  O   UNL     1       3.716   7.679  17.663  0.00  0.00    +0.000 OA
ATOM     17  N   UNL     1       2.200   6.162  18.540  0.00  0.00    +0.000 N 
ATOM     18  C   UNL     1       2.847   5.019  18.198  0.00  0.00    +0.000 A 
ATOM     19  N   UNL     1       4.059   4.850  17.741  0.00  0.00    +0.000 NA
ATOM     20  C   UNL     1       4.260   3.512  17.474  0.00  0.00    +0.000 A 
ATOM     21  C   UNL     1       3.184   2.686  17.723  0.00  0.00    +0.000 A 
ATOM     22  S   UNL     1       1.900   3.608  18.391  0.00  0.00    +0.000 S 
ATOM     23  H   UNL     1       1.280   6.064  18.944  0.00  0.00    +0.000 HD
ENDBRANCH  10  15
TORSDOF 1
ENDMDL
MODEL 3
REMARK VINA RESULT:      -7.4      1.785      2.719
REMARK  Name = 
REMARK  2 active torsions:
REMARK  status: ('A' for Active; 'I' for Inactive)
REMARK    1  A    between atoms: C_1  and  C_2
REMARK    2  A    between atoms: C_10  and  C_11
REMARK                            x       y       z     vdW  Elec       q    Type
REMARK                         _______ _______ _______ _____ _____    ______ ____
ROOT
ATOM      1  C   UNL     1      -1.516  12.211  18.803  0.00  0.00    +0.000 C 
ATOM      2  C   UNL     1      -1.682  12.173  20.300  0.00  0.00    +0.000 A 
ATOM      3  C   UNL     1      -2.554  13.135  20.847  0.00  0.00    +0.000 A 
ATOM      4  C   UNL     1      -2.790  13.204  22.218  0.00  0.00    +0.000 A 
ATOM      5  C   UNL     1      -2.152  12.312  23.069  0.00  0.00    +0.000 A 
ATOM      6  C   UNL     1      -1.282  11.346  22.556  0.00  0.00    +0.000 A 
ATOM      7  C   UNL     1      -1.029  11.259  21.167  0.00  0.00    +0.000 A 
ATOM      8  C   UNL     1      -0.082  10.207  20.779  0.00  0.00    +0.000 A 
ATOM      9  S   UNL     1       0.460   9.869  19.216  0.00  0.00    +0.000 S 
ATOM     10  C   UNL     1       1.492   8.612  19.726  0.00  0.00    +0.000 A 
ATOM     11  C   UNL     1       1.397   8.428  21.092  0.00  0.00    +0.000 A 
ATOM     12  C   UNL     1       0.490   9.358  21.698  0.00  0.00    +0.000 A 
ATOM     13  C   UNL     1       0.149   9.459  23.145  0.00  0.00    +0.000 C 
ATOM     14  O   UNL     1      -0.718  10.545  23.523  0.00  0.00    +0.000 OA
ENDROOT
BRANCH  10  15
ATOM     15  C   UNL     1       2.324   7.885  18.766  0.00  0.00    +0.000 C 
ATOM     16  O   UNL     1       2.724   8.417  17.739  0.00  0.00    +0.000 OA
ATOM     17  N   UNL     1       2.541   6.573  19.128  0.00  0.00    +0.000 N 
ATOM     18  C   UNL     1       3.254   5.693  18.380  0.00  0.00    +0.000 A 
ATOM     19  N   UNL     1       4.008   5.904  17.334  0.00  0.00    +0.000 NA
ATOM     20  C   UNL     1       4.482   4.697  16.866  0.00  0.00    +0.000 A 
ATOM     21  C   UNL     1       4.068   3.582  17.565  0.00  0.00    +0.000 A 
ATOM     22  S   UNL     1       3.112   4.071  18.903  0.00  0.00    +0.000 S 
ATOM     23  H   UNL     1       2.077   6.207  19.947  0.00  0.00    +0.000 HD
ENDBRANCH  10  15
TORSDOF 1
ENDMDL
MODEL 4
REMARK VINA RESULT:      -7.4      2.625      7.931
REMARK  Name = 
REMARK  2 active torsions:
REMARK  status: ('A' for Active; 'I' for Inactive)
REMARK    1  A    between atoms: C_1  and  C_2
REMARK    2  A    between atoms: C_10  and  C_11
REMARK                            x       y       z     vdW  Elec       q    Type
REMARK                         _______ _______ _______ _____ _____    ______ ____
ROOT
ATOM      1  C   UNL     1       1.404   3.182  21.000  0.00  0.00    +0.000 C 
ATOM      2  C   UNL     1       2.229   3.216  19.741  0.00  0.00    +0.000 A 
ATOM      3  C   UNL     1       2.630   1.964  19.233  0.00  0.00    +0.000 A 
ATOM      4  C   UNL     1       3.398   1.861  18.076  0.00  0.00    +0.000 A 
ATOM      5  C   UNL     1       3.784   3.014  17.405  0.00  0.00    +0.000 A 
ATOM      6  C   UNL     1       3.401   4.270  17.884  0.00  0.00    +0.000 A 
ATOM      7  C   UNL     1       2.621   4.396  19.057  0.00  0.00    +0.000 A 
ATOM      8  C   UNL     1       2.312   5.777  19.445  0.00  0.00    +0.000 A 
ATOM      9  S   UNL     1       1.441   6.268  20.806  0.00  0.00    +0.000 S 
ATOM     10  C   UNL     1       1.626   7.927  20.464  0.00  0.00    +0.000 A 
ATOM     11  C   UNL     1       2.328   8.106  19.287  0.00  0.00    +0.000 A 
ATOM     12  C   UNL     1       2.728   6.860  18.704  0.00  0.00    +0.000 A 
ATOM     13  C   UNL     1       3.504   6.669  17.446  0.00  0.00    +0.000 C 
ATOM     14  O   UNL     1       3.870   5.315  17.120  0.00  0.00    +0.000 OA
ENDROOT
BRANCH  10  15
ATOM     15  C   UNL     1       1.076   8.947  21.358  0.00  0.00    +0.000 C 
ATOM     16  O   UNL     1       1.245   8.888  22.569  0.00  0.00    +0.000 OA
ATOM     17  N   UNL     1       0.336   9.902  20.695  0.00  0.00    +0.000 N 
ATOM     18  C   UNL     1      -0.299  10.928  21.316  0.00  0.00    +0.000 A 
ATOM     19  N   UNL     1      -0.209  11.340  22.553  0.00  0.00    +0.000 NA
ATOM     20  C   UNL     1      -1.093  12.380  22.748  0.00  0.00    +0.000 A 
ATOM     21  C   UNL     1      -1.852  12.734  21.652  0.00  0.00    +0.000 A 
ATOM     22  S   UNL     1      -1.385  11.779  20.305  0.00  0.00    +0.000 S 
ATOM     23  H   UNL     1       0.175   9.796  19.704  0.00  0.00    +0.000 HD
ENDBRANCH  10  15
TORSDOF 1
ENDMDL
MODEL 5
REMARK VINA RESULT:      -7.3      1.942      2.113
REMARK  Name = 
REMARK  2 active torsions:
REMARK  status: ('A' for Active; 'I' for Inactive)
REMARK    1  A    between atoms: C_1  and  C_2
REMARK    2  A    between atoms: C_10  and  C_11
REMARK                            x       y       z     vdW  Elec       q    Type
REMARK                         _______ _______ _______ _____ _____    ______ ____
ROOT
ATOM      1  C   UNL     1      -0.140   9.431  23.434  0.00  0.00    +0.000 C 
ATOM      2  C   UNL     1      -0.695  10.526  22.562  0.00  0.00    +0.000 A 
ATOM      3  C   UNL     1      -1.546  11.451  23.200  0.00  0.00    +0.000 A 
ATOM      4  C   UNL     1      -2.124  12.508  22.502  0.00  0.00    +0.000 A 
ATOM      5  C   UNL     1      -1.864  12.657  21.146  0.00  0.00    +0.000 A 
ATOM      6  C   UNL     1      -1.023  11.756  20.485  0.00  0.00    +0.000 A 
ATOM      7  C   UNL     1      -0.426  10.677  21.176  0.00  0.00    +0.000 A 
ATOM      8  C   UNL     1       0.416   9.806  20.348  0.00  0.00    +0.000 A 
ATOM      9  S   UNL     1       1.233   8.418  20.856  0.00  0.00    +0.000 S 
ATOM     10  C   UNL     1       1.856   8.083  19.306  0.00  0.00    +0.000 A 
ATOM     11  C   UNL     1       1.466   9.054  18.403  0.00  0.00    +0.000 A 
ATOM     12  C   UNL     1       0.627  10.045  19.009  0.00  0.00    +0.000 A 
ATOM     13  C   UNL     1       0.016  11.228  18.341  0.00  0.00    +0.000 C 
ATOM     14  O   UNL     1      -0.873  12.028  19.144  0.00  0.00    +0.000 OA
ENDROOT
BRANCH  10  15
ATOM     15  C   UNL     1       2.686   6.901  19.066  0.00  0.00    +0.000 C 
ATOM     16  O   UNL     1       2.750   5.993  19.885  0.00  0.00    +0.000 OA
ATOM     17  N   UNL     1       3.390   6.968  17.884  0.00  0.00    +0.000 N 
ATOM     18  C   UNL     1       4.251   6.005  17.464  0.00  0.00    +0.000 A 
ATOM     19  N   UNL     1       4.452   4.802  17.932  0.00  0.00    +0.000 NA
ATOM     20  C   UNL     1       5.473   4.206  17.223  0.00  0.00    +0.000 A 
ATOM     21  C   UNL     1       6.040   4.977  16.230  0.00  0.00    +0.000 A 
ATOM     22  S   UNL     1       5.211   6.476  16.129  0.00  0.00    +0.000 S 
ATOM     23  H   UNL     1       3.342   7.812  17.332  0.00  0.00    +0.000 HD
ENDBRANCH  10  15
TORSDOF 1
ENDMDL
MODEL 6
REMARK VINA RESULT:      -7.2      1.137      1.140
REMARK  Name = 
REMARK  2 active torsions:
REMARK  status: ('A' for Active; 'I' for Inactive)
REMARK    1  A    between atoms: C_1  and  C_2
REMARK    2  A    between atoms: C_10  and  C_11
REMARK                            x       y       z     vdW  Elec       q    Type
REMARK                         _______ _______ _______ _____ _____    ______ ____
ROOT
ATOM      1  C   UNL     1       0.008   9.406  23.404  0.00  0.00    +0.000 C 
ATOM      2  C   UNL     1      -0.414  10.469  22.425  0.00  0.00    +0.000 A 
ATOM      3  C   UNL     1      -1.221  11.501  22.945  0.00  0.00    +0.000 A 
ATOM      4  C   UNL     1      -1.678  12.541  22.140  0.00  0.00    +0.000 A 
ATOM      5  C   UNL     1      -1.338  12.567  20.794  0.00  0.00    +0.000 A 
ATOM      6  C   UNL     1      -0.537  11.558  20.249  0.00  0.00    +0.000 A 
ATOM      7  C   UNL     1      -0.063  10.493  21.050  0.00  0.00    +0.000 A 
ATOM      8  C   UNL     1       0.750   9.501  20.335  0.00  0.00    +0.000 A 
ATOM      9  S   UNL     1       1.428   8.099  20.988  0.00  0.00    +0.000 S 
ATOM     10  C   UNL     1       2.101   7.601  19.505  0.00  0.00    +0.000 A 
ATOM     11  C   UNL     1       1.835   8.527  18.513  0.00  0.00    +0.000 A 
ATOM     12  C   UNL     1       1.047   9.621  18.997  0.00  0.00    +0.000 A 
ATOM     13  C   UNL     1       0.565  10.792  18.211  0.00  0.00    +0.000 C 
ATOM     14  O   UNL     1      -0.298  11.714  18.903  0.00  0.00    +0.000 OA
ENDROOT
BRANCH  10  15
ATOM     15  C   UNL     1       2.847   6.346  19.399  0.00  0.00    +0.000 C 
ATOM     16  O   UNL     1       4.071   6.334  19.359  0.00  0.00    +0.000 OA
ATOM     17  N   UNL     1       2.030   5.241  19.301  0.00  0.00    +0.000 N 
ATOM     18  C   UNL     1       2.491   3.972  19.160  0.00  0.00    +0.000 A 
ATOM     19  N   UNL     1       3.707   3.508  19.274  0.00  0.00    +0.000 NA
ATOM     20  C   UNL     1       3.707   2.161  18.980  0.00  0.00    +0.000 A 
ATOM     21  C   UNL     1       2.484   1.625  18.633  0.00  0.00    +0.000 A 
ATOM     22  S   UNL     1       1.276   2.838  18.757  0.00  0.00    +0.000 S 
ATOM     23  H   UNL     1       1.030   5.374  19.239  0.00  0.00    +0.000 HD
ENDBRANCH  10  15
TORSDOF 1
ENDMDL
MODEL 7
REMARK VINA RESULT:      -7.0      2.405      7.793
REMARK  Name = 
REMARK  2 active torsions:
REMARK  status: ('A' for Active; 'I' for Inactive)
REMARK    1  A    between atoms: C_1  and  C_2
REMARK    2  A    between atoms: C_10  and  C_11
REMARK                            x       y       z     vdW  Elec       q    Type
REMARK                         _______ _______ _______ _____ _____    ______ ____
ROOT
ATOM      1  C   UNL     1       0.949   3.779  20.277  0.00  0.00    +0.000 C 
ATOM      2  C   UNL     1       2.085   3.462  19.340  0.00  0.00    +0.000 A 
ATOM      3  C   UNL     1       2.433   2.101  19.234  0.00  0.00    +0.000 A 
ATOM      4  C   UNL     1       3.467   1.678  18.402  0.00  0.00    +0.000 A 
ATOM      5  C   UNL     1       4.177   2.614  17.662  0.00  0.00    +0.000 A 
ATOM      6  C   UNL     1       3.854   3.972  17.746  0.00  0.00    +0.000 A 
ATOM      7  C   UNL     1       2.807   4.421  18.584  0.00  0.00    +0.000 A 
ATOM      8  C   UNL     1       2.596   5.873  18.580  0.00  0.00    +0.000 A 
ATOM      9  S   UNL     1       1.461   6.727  19.495  0.00  0.00    +0.000 S 
ATOM     10  C   UNL     1       1.959   8.244  18.901  0.00  0.00    +0.000 A 
ATOM     11  C   UNL     1       2.974   8.096  17.975  0.00  0.00    +0.000 A 
ATOM     12  C   UNL     1       3.344   6.723  17.798  0.00  0.00    +0.000 A 
ATOM     13  C   UNL     1       4.401   6.192  16.892  0.00  0.00    +0.000 C 
ATOM     14  O   UNL     1       4.653   4.776  16.965  0.00  0.00    +0.000 OA
ENDROOT
BRANCH  10  15
ATOM     15  C   UNL     1       1.330   9.480  19.370  0.00  0.00    +0.000 C 
ATOM     16  O   UNL     1       1.473  10.535  18.766  0.00  0.00    +0.000 OA
ATOM     17  N   UNL     1       0.636   9.317  20.550  0.00  0.00    +0.000 N 
ATOM     18  C   UNL     1      -0.001  10.327  21.195  0.00  0.00    +0.000 A 
ATOM     19  N   UNL     1      -0.260  11.543  20.792  0.00  0.00    +0.000 NA
ATOM     20  C   UNL     1      -0.873  12.237  21.815  0.00  0.00    +0.000 A 
ATOM     21  C   UNL     1      -1.058  11.533  22.987  0.00  0.00    +0.000 A 
ATOM     22  S   UNL     1      -0.516   9.919  22.774  0.00  0.00    +0.000 S 
ATOM     23  H   UNL     1       0.669   8.423  21.018  0.00  0.00    +0.000 HD
ENDBRANCH  10  15
TORSDOF 1
ENDMDL
MODEL 8
REMARK VINA RESULT:      -6.9      2.880      8.182
REMARK  Name = 
REMARK  2 active torsions:
REMARK  status: ('A' for Active; 'I' for Inactive)
REMARK    1  A    between atoms: C_1  and  C_2
REMARK    2  A    between atoms: C_10  and  C_11
REMARK                            x       y       z     vdW  Elec       q    Type
REMARK                         _______ _______ _______ _____ _____    ______ ____
ROOT
ATOM      1  C   UNL     1       4.271   7.010  16.969  0.00  0.00    +0.000 C 
ATOM      2  C   UNL     1       4.008   5.603  17.437  0.00  0.00    +0.000 A 
ATOM      3  C   UNL     1       4.614   4.579  16.681  0.00  0.00    +0.000 A 
ATOM      4  C   UNL     1       4.446   3.237  17.010  0.00  0.00    +0.000 A 
ATOM      5  C   UNL     1       3.662   2.892  18.104  0.00  0.00    +0.000 A 
ATOM      6  C   UNL     1       3.050   3.885  18.874  0.00  0.00    +0.000 A 
ATOM      7  C   UNL     1       3.208   5.254  18.556  0.00  0.00    +0.000 A 
ATOM      8  C   UNL     1       2.492   6.179  19.442  0.00  0.00    +0.000 A 
ATOM      9  S   UNL     1       2.443   7.862  19.312  0.00  0.00    +0.000 S 
ATOM     10  C   UNL     1       1.408   8.046  20.653  0.00  0.00    +0.000 A 
ATOM     11  C   UNL     1       1.125   6.820  21.223  0.00  0.00    +0.000 A 
ATOM     12  C   UNL     1       1.749   5.741  20.515  0.00  0.00    +0.000 A 
ATOM     13  C   UNL     1       1.658   4.289  20.837  0.00  0.00    +0.000 C 
ATOM     14  O   UNL     1       2.297   3.388  19.913  0.00  0.00    +0.000 OA
ENDROOT
BRANCH  10  15
ATOM     15  C   UNL     1       0.939   9.370  21.067  0.00  0.00    +0.000 C 
ATOM     16  O   UNL     1       1.251   9.845  22.151  0.00  0.00    +0.000 OA
ATOM     17  N   UNL     1       0.100   9.957  20.144  0.00  0.00    +0.000 N 
ATOM     18  C   UNL     1      -0.485  11.169  20.321  0.00  0.00    +0.000 A 
ATOM     19  N   UNL     1      -0.261  12.079  21.231  0.00  0.00    +0.000 NA
ATOM     20  C   UNL     1      -1.144  13.123  21.053  0.00  0.00    +0.000 A 
ATOM     21  C   UNL     1      -2.036  12.980  20.010  0.00  0.00    +0.000 A 
ATOM     22  S   UNL     1      -1.705  11.518  19.175  0.00  0.00    +0.000 S 
ATOM     23  H   UNL     1      -0.174   9.431  19.326  0.00  0.00    +0.000 HD
ENDBRANCH  10  15
TORSDOF 1
ENDMDL
MODEL 9
REMARK VINA RESULT:      -6.8      3.015      8.359
REMARK  Name = 
REMARK  2 active torsions:
REMARK  status: ('A' for Active; 'I' for Inactive)
REMARK    1  A    between atoms: C_1  and  C_2
REMARK    2  A    between atoms: C_10  and  C_11
REMARK                            x       y       z     vdW  Elec       q    Type
REMARK                         _______ _______ _______ _____ _____    ______ ____
ROOT
ATOM      1  C   UNL     1       4.890   7.223  15.368  0.00  0.00    +0.000 C 
ATOM      2  C   UNL     1       5.033   5.840  15.947  0.00  0.00    +0.000 A 
ATOM      3  C   UNL     1       5.829   4.942  15.208  0.00  0.00    +0.000 A 
ATOM      4  C   UNL     1       6.037   3.634  15.636  0.00  0.00    +0.000 A 
ATOM      5  C   UNL     1       5.447   3.196  16.815  0.00  0.00    +0.000 A 
ATOM      6  C   UNL     1       4.653   4.064  17.571  0.00  0.00    +0.000 A 
ATOM      7  C   UNL     1       4.430   5.397  17.152  0.00  0.00    +0.000 A 
ATOM      8  C   UNL     1       3.562   6.182  18.038  0.00  0.00    +0.000 A 
ATOM      9  S   UNL     1       3.071   7.781  17.804  0.00  0.00    +0.000 S 
ATOM     10  C   UNL     1       2.118   7.811  19.217  0.00  0.00    +0.000 A 
ATOM     11  C   UNL     1       2.202   6.606  19.887  0.00  0.00    +0.000 A 
ATOM     12  C   UNL     1       3.034   5.664  19.198  0.00  0.00    +0.000 A 
ATOM     13  C   UNL     1       3.343   4.269  19.620  0.00  0.00    +0.000 C 
ATOM     14  O   UNL     1       4.128   3.483  18.702  0.00  0.00    +0.000 OA
ENDROOT
BRANCH  10  15
ATOM     15  C   UNL     1       1.353   9.004  19.584  0.00  0.00    +0.000 C 
ATOM     16  O   UNL     1       1.342   9.998  18.870  0.00  0.00    +0.000 OA
ATOM     17  N   UNL     1       0.724   8.886  20.805  0.00  0.00    +0.000 N 
ATOM     18  C   UNL     1      -0.015   9.874  21.371  0.00  0.00    +0.000 A 
ATOM     19  N   UNL     1      -0.439  10.998  20.858  0.00  0.00    +0.000 NA
ATOM     20  C   UNL     1      -1.102  11.717  21.830  0.00  0.00    +0.000 A 
ATOM     21  C   UNL     1      -1.159  11.126  23.075  0.00  0.00    +0.000 A 
ATOM     22  S   UNL     1      -0.423   9.578  23.005  0.00  0.00    +0.000 S 
ATOM     23  H   UNL     1       0.885   8.058  21.361  0.00  0.00    +0.000 HD
ENDBRANCH  10  15
TORSDOF 1
ENDMDL
