MODEL 1
REMARK VINA RESULT:      -7.7      0.000      0.000
REMARK  Name = 
REMARK  7 active torsions:
REMARK  status: ('A' for Active; 'I' for Inactive)
REMARK    1  A    between atoms: C_2  and  C_3
REMARK    2  A    between atoms: C_3  and  N_4
REMARK    3  A    between atoms: C_11  and  C_12
REMARK    4  A    between atoms: C_18  and  S_19
REMARK    5  A    between atoms: S_19  and  C_20
REMARK    6  A    between atoms: C_20  and  C_21
REMARK    7  A    between atoms: C_21  and  C_23
REMARK                            x       y       z     vdW  Elec       q    Type
REMARK                         _______ _______ _______ _____ _____    ______ ____
ROOT
ATOM      1  N   UNL     1       5.896   4.739  16.521  0.00  0.00    +0.000 N 
ATOM      2  C   UNL     1       4.979   3.818  17.010  0.00  0.00    +0.000 C 
ATOM      3  O   UNL     1       4.757   2.741  16.456  0.00  0.00    +0.000 OA
ATOM      4  C   UNL     1       4.383   4.182  18.356  0.00  0.00    +0.000 C 
ATOM      5  C   UNL     1       3.002   3.632  18.596  0.00  0.00    +0.000 C 
ATOM      6  C   UNL     1       2.073   4.573  18.831  0.00  0.00    +0.000 C 
ATOM      7  C   UNL     1       0.916   4.325  19.750  0.00  0.00    +0.000 C 
ATOM      8  C   UNL     1       1.211   3.097  20.648  0.00  0.00    +0.000 C 
ATOM      9  C   UNL     1       2.347   3.353  21.659  0.00  0.00    +0.000 C 
ATOM     10  C   UNL     1       1.542   1.912  19.724  0.00  0.00    +0.000 C 
ATOM     11  C   UNL     1       2.817   2.173  18.911  0.00  0.00    +0.000 C 
ATOM     12  S   UNL     1       2.557   6.169  18.378  0.00  0.00    +0.000 S 
ATOM     13  C   UNL     1       4.302   5.719  18.576  0.00  0.00    +0.000 C 
ATOM     14  N   UNL     1       5.302   6.516  17.852  0.00  0.00    +0.000 NA
ATOM     15  C   UNL     1       6.218   5.729  17.415  0.00  0.00    +0.000 C 
ENDROOT
BRANCH   1  16
ATOM     16  C   UNL     1       5.494   5.212  15.203  0.00  0.00    +0.000 C 
BRANCH  16  18
ATOM     17  C   UNL     1       5.895   3.713  13.243  0.00  0.00    +0.000 C 
ATOM     18  C   UNL     1       6.348   4.604  14.132  0.00  0.00    +0.000 C 
ENDBRANCH  16  18
ENDBRANCH   1  16
BRANCH  15  19
ATOM     19  S   UNL     1       7.603   5.536  18.476  0.00  0.00    +0.000 S 
BRANCH  19  20
ATOM     20  C   UNL     1       7.952   7.191  19.080  0.00  0.00    +0.000 C 
BRANCH  20  21
ATOM     21  C   UNL     1       8.135   8.162  17.936  0.00  0.00    +0.000 C 
ATOM     22  O   UNL     1       7.986   7.870  16.755  0.00  0.00    +0.000 OA
BRANCH  21  23
ATOM     23  C   UNL     1       8.570   9.544  18.267  0.00  0.00    +0.000 A 
ATOM     24  C   UNL     1       9.302   9.712  19.443  0.00  0.00    +0.000 A 
ATOM     25  C   UNL     1       9.684  10.981  19.868  0.00  0.00    +0.000 A 
ATOM     26  C   UNL     1       9.371  12.089  19.090  0.00  0.00    +0.000 A 
ATOM     27  C   UNL     1       8.676  11.928  17.891  0.00  0.00    +0.000 A 
ATOM     28  C   UNL     1       8.262  10.655  17.476  0.00  0.00    +0.000 A 
ENDBRANCH  21  23
ENDBRANCH  20  21
ENDBRANCH  19  20
ENDBRANCH  15  19
TORSDOF 6
ENDMDL
MODEL 2
REMARK VINA RESULT:      -7.5      1.113      1.269
REMARK  Name = 
REMARK  7 active torsions:
REMARK  status: ('A' for Active; 'I' for Inactive)
REMARK    1  A    between atoms: C_2  and  C_3
REMARK    2  A    between atoms: C_3  and  N_4
REMARK    3  A    between atoms: C_11  and  C_12
REMARK    4  A    between atoms: C_18  and  S_19
REMARK    5  A    between atoms: S_19  and  C_20
REMARK    6  A    between atoms: C_20  and  C_21
REMARK    7  A    between atoms: C_21  and  C_23
REMARK                            x       y       z     vdW  Elec       q    Type
REMARK                         _______ _______ _______ _____ _____    ______ ____
ROOT
ATOM      1  N   UNL     1       5.982   5.254  16.307  0.00  0.00    +0.000 N 
ATOM      2  C   UNL     1       5.333   4.239  16.996  0.00  0.00    +0.000 C 
ATOM      3  O   UNL     1       5.476   3.048  16.717  0.00  0.00    +0.000 OA
ATOM      4  C   UNL     1       4.553   4.705  18.210  0.00  0.00    +0.000 C 
ATOM      5  C   UNL     1       3.374   3.837  18.565  0.00  0.00    +0.000 C 
ATOM      6  C   UNL     1       2.198   4.485  18.558  0.00  0.00    +0.000 C 
ATOM      7  C   UNL     1       1.092   4.120  19.501  0.00  0.00    +0.000 C 
ATOM      8  C   UNL     1       1.655   3.275  20.671  0.00  0.00    +0.000 C 
ATOM      9  C   UNL     1       2.585   4.082  21.599  0.00  0.00    +0.000 C 
ATOM     10  C   UNL     1       2.386   2.064  20.062  0.00  0.00    +0.000 C 
ATOM     11  C   UNL     1       3.592   2.501  19.221  0.00  0.00    +0.000 C 
ATOM     12  S   UNL     1       2.236   6.006  17.738  0.00  0.00    +0.000 S 
ATOM     13  C   UNL     1       4.016   6.155  18.052  0.00  0.00    +0.000 C 
ATOM     14  N   UNL     1       4.798   7.028  17.165  0.00  0.00    +0.000 NA
ATOM     15  C   UNL     1       5.934   6.471  16.938  0.00  0.00    +0.000 C 
ENDROOT
BRANCH   1  16
ATOM     16  C   UNL     1       5.567   5.273  14.911  0.00  0.00    +0.000 C 
BRANCH  16  18
ATOM     17  C   UNL     1       6.087   3.672  13.062  0.00  0.00    +0.000 C 
ATOM     18  C   UNL     1       6.497   4.458  14.064  0.00  0.00    +0.000 C 
ENDBRANCH  16  18
ENDBRANCH   1  16
BRANCH  15  19
ATOM     19  S   UNL     1       7.227   6.948  18.026  0.00  0.00    +0.000 S 
BRANCH  19  20
ATOM     20  C   UNL     1       7.846   8.493  17.351  0.00  0.00    +0.000 C 
BRANCH  20  21
ATOM     21  C   UNL     1       8.643   9.258  18.382  0.00  0.00    +0.000 C 
ATOM     22  O   UNL     1       8.949   8.815  19.483  0.00  0.00    +0.000 OA
BRANCH  21  23
ATOM     23  C   UNL     1       9.035  10.654  18.055  0.00  0.00    +0.000 A 
ATOM     24  C   UNL     1      10.400  10.949  18.072  0.00  0.00    +0.000 A 
ATOM     25  C   UNL     1      10.850  12.247  17.852  0.00  0.00    +0.000 A 
ATOM     26  C   UNL     1       9.934  13.253  17.570  0.00  0.00    +0.000 A 
ATOM     27  C   UNL     1       8.571  12.962  17.510  0.00  0.00    +0.000 A 
ATOM     28  C   UNL     1       8.111  11.662  17.762  0.00  0.00    +0.000 A 
ENDBRANCH  21  23
ENDBRANCH  20  21
ENDBRANCH  19  20
ENDBRANCH  15  19
TORSDOF 6
ENDMDL
MODEL 3
REMARK VINA RESULT:      -7.4      2.210      6.283
REMARK  Name = 
REMARK  7 active torsions:
REMARK  status: ('A' for Active; 'I' for Inactive)
REMARK    1  A    between atoms: C_2  and  C_3
REMARK    2  A    between atoms: C_3  and  N_4
REMARK    3  A    between atoms: C_11  and  C_12
REMARK    4  A    between atoms: C_18  and  S_19
REMARK    5  A    between atoms: S_19  and  C_20
REMARK    6  A    between atoms: C_20  and  C_21
REMARK    7  A    between atoms: C_21  and  C_23
REMARK                            x       y       z     vdW  Elec       q    Type
REMARK                         _______ _______ _______ _____ _____    ______ ____
ROOT
ATOM      1  N   UNL     1       5.855   6.192  17.260  0.00  0.00    +0.000 N 
ATOM      2  C   UNL     1       4.603   6.145  17.858  0.00  0.00    +0.000 C 
ATOM      3  O   UNL     1       3.973   7.158  18.163  0.00  0.00    +0.000 OA
ATOM      4  C   UNL     1       4.015   4.753  17.971  0.00  0.00    +0.000 C 
ATOM      5  C   UNL     1       3.062   4.569  19.122  0.00  0.00    +0.000 C 
ATOM      6  C   UNL     1       3.431   3.612  19.989  0.00  0.00    +0.000 C 
ATOM      7  C   UNL     1       2.423   2.778  20.720  0.00  0.00    +0.000 C 
ATOM      8  C   UNL     1       1.046   2.883  20.018  0.00  0.00    +0.000 C 
ATOM      9  C   UNL     1       1.031   2.219  18.626  0.00  0.00    +0.000 C 
ATOM     10  C   UNL     1       0.680   4.376  19.929  0.00  0.00    +0.000 C 
ATOM     11  C   UNL     1       1.675   5.147  19.052  0.00  0.00    +0.000 C 
ATOM     12  S   UNL     1       5.084   3.129  19.842  0.00  0.00    +0.000 S 
ATOM     13  C   UNL     1       5.105   3.653  18.106  0.00  0.00    +0.000 C 
ATOM     14  N   UNL     1       6.406   3.974  17.503  0.00  0.00    +0.000 NA
ATOM     15  C   UNL     1       6.263   4.992  16.733  0.00  0.00    +0.000 C 
ENDROOT
BRANCH   1  16
ATOM     16  C   UNL     1       6.821   6.832  18.142  0.00  0.00    +0.000 C 
BRANCH  16  18
ATOM     17  C   UNL     1       8.213   8.904  17.984  0.00  0.00    +0.000 C 
ATOM     18  C   UNL     1       7.634   7.849  17.399  0.00  0.00    +0.000 C 
ENDBRANCH  16  18
ENDBRANCH   1  16
BRANCH  15  19
ATOM     19  S   UNL     1       5.931   4.615  15.051  0.00  0.00    +0.000 S 
BRANCH  19  20
ATOM     20  C   UNL     1       7.476   4.942  14.195  0.00  0.00    +0.000 C 
BRANCH  20  21
ATOM     21  C   UNL     1       7.294   4.876  12.696  0.00  0.00    +0.000 C 
ATOM     22  O   UNL     1       7.596   5.780  11.926  0.00  0.00    +0.000 OA
BRANCH  21  23
ATOM     23  C   UNL     1       6.663   3.654  12.131  0.00  0.00    +0.000 A 
ATOM     24  C   UNL     1       7.520   2.637  11.708  0.00  0.00    +0.000 A 
ATOM     25  C   UNL     1       7.017   1.492  11.098  0.00  0.00    +0.000 A 
ATOM     26  C   UNL     1       5.644   1.340  10.947  0.00  0.00    +0.000 A 
ATOM     27  C   UNL     1       4.776   2.331  11.403  0.00  0.00    +0.000 A 
ATOM     28  C   UNL     1       5.280   3.501  11.990  0.00  0.00    +0.000 A 
ENDBRANCH  21  23
ENDBRANCH  20  21
ENDBRANCH  19  20
ENDBRANCH  15  19
TORSDOF 6
ENDMDL
MODEL 4
REMARK VINA RESULT:      -7.4      5.785      9.823
REMARK  Name = 
REMARK  7 active torsions:
REMARK  status: ('A' for Active; 'I' for Inactive)
REMARK    1  A    between atoms: C_2  and  C_3
REMARK    2  A    between atoms: C_3  and  N_4
REMARK    3  A    between atoms: C_11  and  C_12
REMARK    4  A    between atoms: C_18  and  S_19
REMARK    5  A    between atoms: S_19  and  C_20
REMARK    6  A    between atoms: C_20  and  C_21
REMARK    7  A    between atoms: C_21  and  C_23
REMARK                            x       y       z     vdW  Elec       q    Type
REMARK                         _______ _______ _______ _____ _____    ______ ____
ROOT
ATOM      1  N   UNL     1       0.656   9.964  20.176  0.00  0.00    +0.000 N 
ATOM      2  C   UNL     1       1.282  11.151  20.530  0.00  0.00    +0.000 C 
ATOM      3  O   UNL     1       1.690  11.374  21.670  0.00  0.00    +0.000 OA
ATOM      4  C   UNL     1       1.553  12.087  19.369  0.00  0.00    +0.000 C 
ATOM      5  C   UNL     1       1.597  13.546  19.740  0.00  0.00    +0.000 C 
ATOM      6  C   UNL     1       0.693  14.301  19.093  0.00  0.00    +0.000 C 
ATOM      7  C   UNL     1       0.975  15.726  18.726  0.00  0.00    +0.000 C 
ATOM      8  C   UNL     1       2.499  15.995  18.795  0.00  0.00    +0.000 C 
ATOM      9  C   UNL     1       3.290  15.244  17.705  0.00  0.00    +0.000 C 
ATOM     10  C   UNL     1       2.979  15.604  20.204  0.00  0.00    +0.000 C 
ATOM     11  C   UNL     1       2.791  14.104  20.465  0.00  0.00    +0.000 C 
ATOM     12  S   UNL     1      -0.572  13.395  18.341  0.00  0.00    +0.000 S 
ATOM     13  C   UNL     1       0.507  11.942  18.229  0.00  0.00    +0.000 C 
ATOM     14  N   UNL     1      -0.131  10.622  18.118  0.00  0.00    +0.000 NA
ATOM     15  C   UNL     1       0.540   9.781  18.821  0.00  0.00    +0.000 C 
ENDROOT
BRANCH   1  16
ATOM     16  C   UNL     1      -0.584   9.796  20.923  0.00  0.00    +0.000 C 
BRANCH  16  18
ATOM     17  C   UNL     1      -0.364   9.472  23.392  0.00  0.00    +0.000 C 
ATOM     18  C   UNL     1      -0.359   8.969  22.152  0.00  0.00    +0.000 C 
ENDBRANCH  16  18
ENDBRANCH   1  16
BRANCH  15  19
ATOM     19  S   UNL     1       1.783   8.903  17.945  0.00  0.00    +0.000 S 
BRANCH  19  20
ATOM     20  C   UNL     1       2.398   7.689  19.117  0.00  0.00    +0.000 C 
BRANCH  20  21
ATOM     21  C   UNL     1       2.811   6.415  18.417  0.00  0.00    +0.000 C 
ATOM     22  O   UNL     1       3.644   6.362  17.520  0.00  0.00    +0.000 OA
BRANCH  21  23
ATOM     23  C   UNL     1       2.125   5.157  18.812  0.00  0.00    +0.000 A 
ATOM     24  C   UNL     1       1.786   5.017  20.159  0.00  0.00    +0.000 A 
ATOM     25  C   UNL     1       1.210   3.841  20.628  0.00  0.00    +0.000 A 
ATOM     26  C   UNL     1       0.929   2.810  19.739  0.00  0.00    +0.000 A 
ATOM     27  C   UNL     1       1.226   2.956  18.384  0.00  0.00    +0.000 A 
ATOM     28  C   UNL     1       1.835   4.127  17.912  0.00  0.00    +0.000 A 
ENDBRANCH  21  23
ENDBRANCH  20  21
ENDBRANCH  19  20
ENDBRANCH  15  19
TORSDOF 6
ENDMDL
MODEL 5
REMARK VINA RESULT:      -7.2      6.169     10.274
REMARK  Name = 
REMARK  7 active torsions:
REMARK  status: ('A' for Active; 'I' for Inactive)
REMARK    1  A    between atoms: C_2  and  C_3
REMARK    2  A    between atoms: C_3  and  N_4
REMARK    3  A    between atoms: C_11  and  C_12
REMARK    4  A    between atoms: C_18  and  S_19
REMARK    5  A    between atoms: S_19  and  C_20
REMARK    6  A    between atoms: C_20  and  C_21
REMARK    7  A    between atoms: C_21  and  C_23
REMARK                            x       y       z     vdW  Elec       q    Type
REMARK                         _______ _______ _______ _____ _____    ______ ____
ROOT
ATOM      1  N   UNL     1       0.885  11.226  20.507  0.00  0.00    +0.000 N 
ATOM      2  C   UNL     1       1.708  12.343  20.578  0.00  0.00    +0.000 C 
ATOM      3  O   UNL     1       2.397  12.600  21.565  0.00  0.00    +0.000 OA
ATOM      4  C   UNL     1       1.799  13.135  19.289  0.00  0.00    +0.000 C 
ATOM      5  C   UNL     1       2.093  14.600  19.477  0.00  0.00    +0.000 C 
ATOM      6  C   UNL     1       1.153  15.416  18.972  0.00  0.00    +0.000 C 
ATOM      7  C   UNL     1       1.499  16.755  18.395  0.00  0.00    +0.000 C 
ATOM      8  C   UNL     1       3.016  16.820  18.089  0.00  0.00    +0.000 C 
ATOM      9  C   UNL     1       3.435  15.882  16.938  0.00  0.00    +0.000 C 
ATOM     10  C   UNL     1       3.770  16.483  19.388  0.00  0.00    +0.000 C 
ATOM     11  C   UNL     1       3.481  15.048  19.849  0.00  0.00    +0.000 C 
ATOM     12  S   UNL     1      -0.348  14.631  18.628  0.00  0.00    +0.000 S 
ATOM     13  C   UNL     1       0.502  13.041  18.438  0.00  0.00    +0.000 C 
ATOM     14  N   UNL     1      -0.288  11.815  18.620  0.00  0.00    +0.000 NA
ATOM     15  C   UNL     1       0.432  10.951  19.242  0.00  0.00    +0.000 C 
ENDROOT
BRANCH   1  16
ATOM     16  C   UNL     1      -0.152  11.288  21.528  0.00  0.00    +0.000 C 
BRANCH  16  18
ATOM     17  C   UNL     1      -0.007   9.528  23.298  0.00  0.00    +0.000 C 
ATOM     18  C   UNL     1      -0.429   9.928  22.093  0.00  0.00    +0.000 C 
ENDBRANCH  16  18
ENDBRANCH   1  16
BRANCH  15  19
ATOM     19  S   UNL     1       1.324   9.845  18.211  0.00  0.00    +0.000 S 
BRANCH  19  20
ATOM     20  C   UNL     1       1.893   8.548  19.316  0.00  0.00    +0.000 C 
BRANCH  20  21
ATOM     21  C   UNL     1       2.538   7.419  18.545  0.00  0.00    +0.000 C 
ATOM     22  O   UNL     1       3.345   7.579  17.637  0.00  0.00    +0.000 OA
BRANCH  21  23
ATOM     23  C   UNL     1       2.128   6.031  18.883  0.00  0.00    +0.000 A 
ATOM     24  C   UNL     1       1.904   5.747  20.231  0.00  0.00    +0.000 A 
ATOM     25  C   UNL     1       1.590   4.455  20.643  0.00  0.00    +0.000 A 
ATOM     26  C   UNL     1       1.457   3.445  19.697  0.00  0.00    +0.000 A 
ATOM     27  C   UNL     1       1.637   3.727  18.343  0.00  0.00    +0.000 A 
ATOM     28  C   UNL     1       1.984   5.020  17.927  0.00  0.00    +0.000 A 
ENDBRANCH  21  23
ENDBRANCH  20  21
ENDBRANCH  19  20
ENDBRANCH  15  19
TORSDOF 6
ENDMDL
MODEL 6
REMARK VINA RESULT:      -7.2      5.920     10.055
REMARK  Name = 
REMARK  7 active torsions:
REMARK  status: ('A' for Active; 'I' for Inactive)
REMARK    1  A    between atoms: C_2  and  C_3
REMARK    2  A    between atoms: C_3  and  N_4
REMARK    3  A    between atoms: C_11  and  C_12
REMARK    4  A    between atoms: C_18  and  S_19
REMARK    5  A    between atoms: S_19  and  C_20
REMARK    6  A    between atoms: C_20  and  C_21
REMARK    7  A    between atoms: C_21  and  C_23
REMARK                            x       y       z     vdW  Elec       q    Type
REMARK                         _______ _______ _______ _____ _____    ______ ____
ROOT
ATOM      1  N   UNL     1       0.650  10.670  20.356  0.00  0.00    +0.000 N 
ATOM      2  C   UNL     1       1.429  11.795  20.589  0.00  0.00    +0.000 C 
ATOM      3  O   UNL     1       1.962  12.022  21.676  0.00  0.00    +0.000 OA
ATOM      4  C   UNL     1       1.689  12.643  19.359  0.00  0.00    +0.000 C 
ATOM      5  C   UNL     1       1.922  14.103  19.646  0.00  0.00    +0.000 C 
ATOM      6  C   UNL     1       1.048  14.924  19.040  0.00  0.00    +0.000 C 
ATOM      7  C   UNL     1       1.444  16.291  18.574  0.00  0.00    +0.000 C 
ATOM      8  C   UNL     1       2.988  16.393  18.494  0.00  0.00    +0.000 C 
ATOM      9  C   UNL     1       3.590  15.511  17.381  0.00  0.00    +0.000 C 
ATOM     10  C   UNL     1       3.553  16.013  19.875  0.00  0.00    +0.000 C 
ATOM     11  C   UNL     1       3.231  14.556  20.232  0.00  0.00    +0.000 C 
ATOM     12  S   UNL     1      -0.371  14.131  18.452  0.00  0.00    +0.000 S 
ATOM     13  C   UNL     1       0.532  12.564  18.325  0.00  0.00    +0.000 C 
ATOM     14  N   UNL     1      -0.250  11.319  18.342  0.00  0.00    +0.000 NA
ATOM     15  C   UNL     1       0.390  10.441  19.028  0.00  0.00    +0.000 C 
ENDROOT
BRANCH   1  16
ATOM     16  C   UNL     1      -0.526  10.674  21.216  0.00  0.00    +0.000 C 
BRANCH  16  18
ATOM     17  C   UNL     1      -0.398   8.286  21.946  0.00  0.00    +0.000 C 
ATOM     18  C   UNL     1      -0.438   9.589  22.247  0.00  0.00    +0.000 C 
ENDBRANCH  16  18
ENDBRANCH   1  16
BRANCH  15  19
ATOM     19  S   UNL     1       1.446   9.393  18.096  0.00  0.00    +0.000 S 
BRANCH  19  20
ATOM     20  C   UNL     1       2.037   8.173  19.275  0.00  0.00    +0.000 C 
BRANCH  20  21
ATOM     21  C   UNL     1       2.587   6.955  18.569  0.00  0.00    +0.000 C 
ATOM     22  O   UNL     1       3.386   7.000  17.641  0.00  0.00    +0.000 OA
BRANCH  21  23
ATOM     23  C   UNL     1       2.088   5.623  19.001  0.00  0.00    +0.000 A 
ATOM     24  C   UNL     1       1.895   4.666  18.004  0.00  0.00    +0.000 A 
ATOM     25  C   UNL     1       1.359   3.419  18.310  0.00  0.00    +0.000 A 
ATOM     26  C   UNL     1       1.051   3.108  19.629  0.00  0.00    +0.000 A 
ATOM     27  C   UNL     1       1.278   4.042  20.639  0.00  0.00    +0.000 A 
ATOM     28  C   UNL     1       1.789   5.311  20.331  0.00  0.00    +0.000 A 
ENDBRANCH  21  23
ENDBRANCH  20  21
ENDBRANCH  19  20
ENDBRANCH  15  19
TORSDOF 6
ENDMDL
MODEL 7
REMARK VINA RESULT:      -7.2      3.805      6.954
REMARK  Name = 
REMARK  7 active torsions:
REMARK  status: ('A' for Active; 'I' for Inactive)
REMARK    1  A    between atoms: C_2  and  C_3
REMARK    2  A    between atoms: C_3  and  N_4
REMARK    3  A    between atoms: C_11  and  C_12
REMARK    4  A    between atoms: C_18  and  S_19
REMARK    5  A    between atoms: S_19  and  C_20
REMARK    6  A    between atoms: C_20  and  C_21
REMARK    7  A    between atoms: C_21  and  C_23
REMARK                            x       y       z     vdW  Elec       q    Type
REMARK                         _______ _______ _______ _____ _____    ______ ____
ROOT
ATOM      1  N   UNL     1       2.929   3.617  19.471  0.00  0.00    +0.000 N 
ATOM      2  C   UNL     1       3.460   3.323  18.223  0.00  0.00    +0.000 C 
ATOM      3  O   UNL     1       3.249   2.256  17.645  0.00  0.00    +0.000 OA
ATOM      4  C   UNL     1       4.197   4.474  17.568  0.00  0.00    +0.000 C 
ATOM      5  C   UNL     1       5.286   4.057  16.615  0.00  0.00    +0.000 C 
ATOM      6  C   UNL     1       6.504   4.518  16.944  0.00  0.00    +0.000 C 
ATOM      7  C   UNL     1       7.522   4.868  15.901  0.00  0.00    +0.000 C 
ATOM      8  C   UNL     1       6.829   5.038  14.526  0.00  0.00    +0.000 C 
ATOM      9  C   UNL     1       5.905   6.271  14.468  0.00  0.00    +0.000 C 
ATOM     10  C   UNL     1       6.051   3.742  14.232  0.00  0.00    +0.000 C 
ATOM     11  C   UNL     1       4.933   3.514  15.258  0.00  0.00    +0.000 C 
ATOM     12  S   UNL     1       6.625   5.090  18.570  0.00  0.00    +0.000 S 
ATOM     13  C   UNL     1       4.845   5.434  18.604  0.00  0.00    +0.000 C 
ATOM     14  N   UNL     1       4.183   5.492  19.915  0.00  0.00    +0.000 NA
ATOM     15  C   UNL     1       3.026   4.942  19.816  0.00  0.00    +0.000 C 
ENDROOT
BRANCH   1  16
ATOM     16  C   UNL     1       3.428   2.686  20.474  0.00  0.00    +0.000 C 
BRANCH  16  18
ATOM     17  C   UNL     1       1.219   2.601  21.642  0.00  0.00    +0.000 C 
ATOM     18  C   UNL     1       2.554   2.690  21.691  0.00  0.00    +0.000 C 
ENDBRANCH  16  18
ENDBRANCH   1  16
BRANCH  15  19
ATOM     19  S   UNL     1       1.707   6.042  19.454  0.00  0.00    +0.000 S 
BRANCH  19  20
ATOM     20  C   UNL     1       2.245   7.630  20.100  0.00  0.00    +0.000 C 
BRANCH  20  21
ATOM     21  C   UNL     1       1.261   8.723  19.751  0.00  0.00    +0.000 C 
ATOM     22  O   UNL     1       1.065   9.136  18.614  0.00  0.00    +0.000 OA
BRANCH  21  23
ATOM     23  C   UNL     1       0.521   9.367  20.868  0.00  0.00    +0.000 A 
ATOM     24  C   UNL     1      -0.186  10.533  20.570  0.00  0.00    +0.000 A 
ATOM     25  C   UNL     1      -0.844  11.241  21.570  0.00  0.00    +0.000 A 
ATOM     26  C   UNL     1      -0.831  10.761  22.875  0.00  0.00    +0.000 A 
ATOM     27  C   UNL     1      -0.162   9.576  23.176  0.00  0.00    +0.000 A 
ATOM     28  C   UNL     1       0.528   8.875  22.177  0.00  0.00    +0.000 A 
ENDBRANCH  21  23
ENDBRANCH  20  21
ENDBRANCH  19  20
ENDBRANCH  15  19
TORSDOF 6
ENDMDL
MODEL 8
REMARK VINA RESULT:      -7.1      7.904     10.196
REMARK  Name = 
REMARK  7 active torsions:
REMARK  status: ('A' for Active; 'I' for Inactive)
REMARK    1  A    between atoms: C_2  and  C_3
REMARK    2  A    between atoms: C_3  and  N_4
REMARK    3  A    between atoms: C_11  and  C_12
REMARK    4  A    between atoms: C_18  and  S_19
REMARK    5  A    between atoms: S_19  and  C_20
REMARK    6  A    between atoms: C_20  and  C_21
REMARK    7  A    between atoms: C_21  and  C_23
REMARK                            x       y       z     vdW  Elec       q    Type
REMARK                         _______ _______ _______ _____ _____    ______ ____
ROOT
ATOM      1  N   UNL     1      -0.600  11.482  19.834  0.00  0.00    +0.000 N 
ATOM      2  C   UNL     1      -1.856  11.998  20.122  0.00  0.00    +0.000 C 
ATOM      3  O   UNL     1      -2.664  12.308  19.246  0.00  0.00    +0.000 OA
ATOM      4  C   UNL     1      -2.205  12.011  21.597  0.00  0.00    +0.000 C 
ATOM      5  C   UNL     1      -3.174  13.091  22.000  0.00  0.00    +0.000 C 
ATOM      6  C   UNL     1      -2.695  13.936  22.928  0.00  0.00    +0.000 C 
ATOM      7  C   UNL     1      -3.586  14.564  23.956  0.00  0.00    +0.000 C 
ATOM      8  C   UNL     1      -4.921  13.782  24.044  0.00  0.00    +0.000 C 
ATOM      9  C   UNL     1      -4.748  12.364  24.624  0.00  0.00    +0.000 C 
ATOM     10  C   UNL     1      -5.529  13.738  22.630  0.00  0.00    +0.000 C 
ATOM     11  C   UNL     1      -4.633  12.960  21.657  0.00  0.00    +0.000 C 
ATOM     12  S   UNL     1      -0.979  13.871  23.120  0.00  0.00    +0.000 S 
ATOM     13  C   UNL     1      -0.953  12.165  22.505  0.00  0.00    +0.000 C 
ATOM     14  N   UNL     1       0.306  11.659  21.940  0.00  0.00    +0.000 NA
ATOM     15  C   UNL     1       0.033  10.928  20.919  0.00  0.00    +0.000 C 
ENDROOT
BRANCH   1  16
ATOM     16  C   UNL     1       0.195  12.451  19.092  0.00  0.00    +0.000 C 
BRANCH  16  18
ATOM     17  C   UNL     1       2.516  12.591  18.172  0.00  0.00    +0.000 C 
ATOM     18  C   UNL     1       1.522  11.871  18.705  0.00  0.00    +0.000 C 
ENDBRANCH  16  18
ENDBRANCH   1  16
BRANCH  15  19
ATOM     19  S   UNL     1      -0.138   9.214  21.254  0.00  0.00    +0.000 S 
BRANCH  19  20
ATOM     20  C   UNL     1       1.541   8.573  21.234  0.00  0.00    +0.000 C 
BRANCH  20  21
ATOM     21  C   UNL     1       1.866   7.938  19.903  0.00  0.00    +0.000 C 
ATOM     22  O   UNL     1       1.804   8.523  18.827  0.00  0.00    +0.000 OA
BRANCH  21  23
ATOM     23  C   UNL     1       2.238   6.499  19.897  0.00  0.00    +0.000 A 
ATOM     24  C   UNL     1       3.178   6.091  18.949  0.00  0.00    +0.000 A 
ATOM     25  C   UNL     1       3.526   4.750  18.824  0.00  0.00    +0.000 A 
ATOM     26  C   UNL     1       2.965   3.811  19.681  0.00  0.00    +0.000 A 
ATOM     27  C   UNL     1       2.056   4.213  20.660  0.00  0.00    +0.000 A 
ATOM     28  C   UNL     1       1.678   5.559  20.769  0.00  0.00    +0.000 A 
ENDBRANCH  21  23
ENDBRANCH  20  21
ENDBRANCH  19  20
ENDBRANCH  15  19
TORSDOF 6
ENDMDL
MODEL 9
REMARK VINA RESULT:      -7.1     10.167     13.066
REMARK  Name = 
REMARK  7 active torsions:
REMARK  status: ('A' for Active; 'I' for Inactive)
REMARK    1  A    between atoms: C_2  and  C_3
REMARK    2  A    between atoms: C_3  and  N_4
REMARK    3  A    between atoms: C_11  and  C_12
REMARK    4  A    between atoms: C_18  and  S_19
REMARK    5  A    between atoms: S_19  and  C_20
REMARK    6  A    between atoms: C_20  and  C_21
REMARK    7  A    between atoms: C_21  and  C_23
REMARK                            x       y       z     vdW  Elec       q    Type
REMARK                         _______ _______ _______ _____ _____    ______ ____
ROOT
ATOM      1  N   UNL     1      -4.725  13.607  22.885  0.00  0.00    +0.000 N 
ATOM      2  C   UNL     1      -3.690  12.741  23.206  0.00  0.00    +0.000 C 
ATOM      3  O   UNL     1      -3.489  12.340  24.353  0.00  0.00    +0.000 OA
ATOM      4  C   UNL     1      -2.919  12.215  22.011  0.00  0.00    +0.000 C 
ATOM      5  C   UNL     1      -1.486  11.854  22.302  0.00  0.00    +0.000 C 
ATOM      6  C   UNL     1      -0.592  12.533  21.565  0.00  0.00    +0.000 C 
ATOM      7  C   UNL     1       0.705  11.917  21.136  0.00  0.00    +0.000 C 
ATOM      8  C   UNL     1       0.626  10.376  21.273  0.00  0.00    +0.000 C 
ATOM      9  C   UNL     1      -0.356   9.734  20.272  0.00  0.00    +0.000 C 
ATOM     10  C   UNL     1       0.231  10.056  22.726  0.00  0.00    +0.000 C 
ATOM     11  C   UNL     1      -1.166  10.594  23.060  0.00  0.00    +0.000 C 
ATOM     12  S   UNL     1      -1.237  13.940  20.796  0.00  0.00    +0.000 S 
ATOM     13  C   UNL     1      -2.900  13.219  20.825  0.00  0.00    +0.000 C 
ATOM     14  N   UNL     1      -4.046  14.138  20.753  0.00  0.00    +0.000 NA
ATOM     15  C   UNL     1      -4.968  13.706  21.537  0.00  0.00    +0.000 C 
ENDROOT
BRANCH   1  16
ATOM     16  C   UNL     1      -4.559  14.882  23.570  0.00  0.00    +0.000 C 
BRANCH  16  18
ATOM     17  C   UNL     1      -6.031  16.884  23.848  0.00  0.00    +0.000 C 
ATOM     18  C   UNL     1      -5.881  15.556  23.777  0.00  0.00    +0.000 C 
ENDBRANCH  16  18
ENDBRANCH   1  16
BRANCH  15  19
ATOM     19  S   UNL     1      -6.160  12.663  20.782  0.00  0.00    +0.000 S 
BRANCH  19  20
ATOM     20  C   UNL     1      -5.722  12.652  19.040  0.00  0.00    +0.000 C 
BRANCH  20  21
ATOM     21  C   UNL     1      -5.650  11.241  18.504  0.00  0.00    +0.000 C 
ATOM     22  O   UNL     1      -6.462  10.362  18.768  0.00  0.00    +0.000 OA
BRANCH  21  23
ATOM     23  C   UNL     1      -4.491  10.889  17.643  0.00  0.00    +0.000 A 
ATOM     24  C   UNL     1      -4.518  11.349  16.325  0.00  0.00    +0.000 A 
ATOM     25  C   UNL     1      -3.511  11.002  15.430  0.00  0.00    +0.000 A 
ATOM     26  C   UNL     1      -2.445  10.223  15.863  0.00  0.00    +0.000 A 
ATOM     27  C   UNL     1      -2.386   9.792  17.188  0.00  0.00    +0.000 A 
ATOM     28  C   UNL     1      -3.414  10.113  18.085  0.00  0.00    +0.000 A 
ENDBRANCH  21  23
ENDBRANCH  20  21
ENDBRANCH  19  20
ENDBRANCH  15  19
TORSDOF 6
ENDMDL
