MODEL 1
REMARK VINA RESULT:      -6.3      0.000      0.000
REMARK  Name = 
REMARK  10 active torsions:
REMARK  status: ('A' for Active; 'I' for Inactive)
REMARK    1  A    between atoms: C_2  and  C_4
REMARK    2  A    between atoms: C_6  and  O_7
REMARK    3  A    between atoms: O_7  and  C_8
REMARK    4  A    between atoms: C_9  and  N_10
REMARK    5  A    between atoms: C_12  and  N_13
REMARK    6  A    between atoms: C_14  and  O_15
REMARK    7  A    between atoms: C_16  and  O_17
REMARK    8  A    between atoms: C_18  and  N_19
REMARK    9  A    between atoms: C_20  and  O_21
REMARK   10  A    between atoms: C_22  and  O_23
REMARK                            x       y       z     vdW  Elec       q    Type
REMARK                         _______ _______ _______ _____ _____    ______ ____
ROOT
ATOM      1  C   UNL     1       2.625   3.327  19.545  0.00  0.00    +0.000 C 
ATOM      2  O   UNL     1       2.947   3.562  18.169  0.00  0.00    +0.000 OA
ATOM      3  C   UNL     1       3.654   4.776  17.868  0.00  0.00    +0.000 C 
ATOM      4  C   UNL     1       2.793   5.968  18.369  0.00  0.00    +0.000 C 
ATOM      5  C   UNL     1       2.761   5.866  19.903  0.00  0.00    +0.000 C 
ATOM      6  C   UNL     1       2.084   4.550  20.304  0.00  0.00    +0.000 C 
ENDROOT
BRANCH   1   8
ATOM      7  N   UNL     1       4.758   2.041  19.525  0.00  0.00    +0.000 N 
ATOM      8  C   UNL     1       3.705   2.489  20.258  0.00  0.00    +0.000 C 
ATOM      9  O   UNL     1       3.612   2.181  21.447  0.00  0.00    +0.000 OA
ATOM     10  H   UNL     1       5.378   1.411  20.011  0.00  0.00    +0.000 HD
ATOM     11  H   UNL     1       4.654   1.878  18.525  0.00  0.00    +0.000 HD
ENDBRANCH   1   8
BRANCH   4  12
ATOM     12  N   UNL     1       3.183   7.324  17.907  0.00  0.00    +0.000 NA
ATOM     13  H   UNL     1       3.503   7.859  18.723  0.00  0.00    +0.000 HD
ATOM     14  H   UNL     1       2.350   7.831  17.601  0.00  0.00    +0.000 HD
ENDBRANCH   4  12
BRANCH   5  15
ATOM     15  O   UNL     1       2.044   6.972  20.483  0.00  0.00    +0.000 OA
ATOM     16  H   UNL     1       2.234   6.993  21.437  0.00  0.00    +0.000 HD
ENDBRANCH   5  15
BRANCH   6  17
ATOM     17  O   UNL     1       2.099   4.395  21.724  0.00  0.00    +0.000 OA
ATOM     18  H   UNL     1       2.185   3.439  21.901  0.00  0.00    +0.000 HD
ENDBRANCH   6  17
BRANCH   3  19
ATOM     19  O   UNL     1       4.981   4.729  18.376  0.00  0.00    +0.000 OA
BRANCH  19  20
ATOM     20  C   UNL     1       6.085   4.717  17.438  0.00  0.00    +0.000 C 
ATOM     21  C   UNL     1       6.671   6.123  17.116  0.00  0.00    +0.000 C 
ATOM     22  C   UNL     1       7.608   6.111  15.895  0.00  0.00    +0.000 C 
ATOM     23  C   UNL     1       6.968   5.465  14.671  0.00  0.00    +0.000 C 
ATOM     24  C   UNL     1       6.557   4.019  15.016  0.00  0.00    +0.000 C 
ATOM     25  C   UNL     1       5.545   4.010  16.176  0.00  0.00    +0.000 C 
BRANCH  21  26
ATOM     26  N   UNL     1       7.451   6.721  18.220  0.00  0.00    +0.000 NA
ATOM     27  H   UNL     1       6.901   7.419  18.720  0.00  0.00    +0.000 HD
ATOM     28  H   UNL     1       8.217   7.292  17.844  0.00  0.00    +0.000 HD
ENDBRANCH  21  26
BRANCH  23  29
ATOM     29  N   UNL     1       7.896   5.511  13.534  0.00  0.00    +0.000 NA
ATOM     30  H   UNL     1       8.413   4.633  13.458  0.00  0.00    +0.000 HD
ATOM     31  H   UNL     1       8.605   6.230  13.693  0.00  0.00    +0.000 HD
ENDBRANCH  23  29
BRANCH  24  32
ATOM     32  O   UNL     1       5.972   3.340  13.898  0.00  0.00    +0.000 OA
ATOM     33  H   UNL     1       5.233   2.801  14.236  0.00  0.00    +0.000 HD
ENDBRANCH  24  32
BRANCH  25  34
ATOM     34  O   UNL     1       5.228   2.650  16.553  0.00  0.00    +0.000 OA
ATOM     35  H   UNL     1       4.529   2.334  15.948  0.00  0.00    +0.000 HD
ENDBRANCH  25  34
ENDBRANCH  19  20
ENDBRANCH   3  19
TORSDOF 10
ENDMDL
MODEL 2
REMARK VINA RESULT:      -6.3      1.395      2.972
REMARK  Name = 
REMARK  10 active torsions:
REMARK  status: ('A' for Active; 'I' for Inactive)
REMARK    1  A    between atoms: C_2  and  C_4
REMARK    2  A    between atoms: C_6  and  O_7
REMARK    3  A    between atoms: O_7  and  C_8
REMARK    4  A    between atoms: C_9  and  N_10
REMARK    5  A    between atoms: C_12  and  N_13
REMARK    6  A    between atoms: C_14  and  O_15
REMARK    7  A    between atoms: C_16  and  O_17
REMARK    8  A    between atoms: C_18  and  N_19
REMARK    9  A    between atoms: C_20  and  O_21
REMARK   10  A    between atoms: C_22  and  O_23
REMARK                            x       y       z     vdW  Elec       q    Type
REMARK                         _______ _______ _______ _____ _____    ______ ____
ROOT
ATOM      1  C   UNL     1       2.645   4.551  20.459  0.00  0.00    +0.000 C 
ATOM      2  O   UNL     1       4.041   4.233  20.459  0.00  0.00    +0.000 OA
ATOM      3  C   UNL     1       4.518   3.416  19.378  0.00  0.00    +0.000 C 
ATOM      4  C   UNL     1       3.723   2.081  19.400  0.00  0.00    +0.000 C 
ATOM      5  C   UNL     1       2.268   2.438  19.051  0.00  0.00    +0.000 C 
ATOM      6  C   UNL     1       1.710   3.376  20.127  0.00  0.00    +0.000 C 
ENDROOT
BRANCH   1   8
ATOM      7  N   UNL     1       2.259   7.011  20.514  0.00  0.00    +0.000 N 
ATOM      8  C   UNL     1       2.355   5.891  19.752  0.00  0.00    +0.000 C 
ATOM      9  O   UNL     1       2.166   5.959  18.537  0.00  0.00    +0.000 OA
ATOM     10  H   UNL     1       1.964   7.839  20.018  0.00  0.00    +0.000 HD
ATOM     11  H   UNL     1       1.962   6.946  21.486  0.00  0.00    +0.000 HD
ENDBRANCH   1   8
BRANCH   4  12
ATOM     12  N   UNL     1       4.243   0.972  18.562  0.00  0.00    +0.000 NA
ATOM     13  H   UNL     1       3.576   0.193  18.614  0.00  0.00    +0.000 HD
ATOM     14  H   UNL     1       5.089   0.591  18.992  0.00  0.00    +0.000 HD
ENDBRANCH   4  12
BRANCH   5  15
ATOM     15  O   UNL     1       1.449   1.256  18.971  0.00  0.00    +0.000 OA
ATOM     16  H   UNL     1       0.678   1.379  19.552  0.00  0.00    +0.000 HD
ENDBRANCH   5  15
BRANCH   6  17
ATOM     17  O   UNL     1       0.380   3.778  19.796  0.00  0.00    +0.000 OA
ATOM     18  H   UNL     1       0.450   4.655  19.370  0.00  0.00    +0.000 HD
ENDBRANCH   6  17
BRANCH   3  19
ATOM     19  O   UNL     1       4.477   4.128  18.148  0.00  0.00    +0.000 OA
BRANCH  19  20
ATOM     20  C   UNL     1       5.699   4.264  17.382  0.00  0.00    +0.000 C 
ATOM     21  C   UNL     1       6.246   5.720  17.297  0.00  0.00    +0.000 C 
ATOM     22  C   UNL     1       7.342   5.882  16.229  0.00  0.00    +0.000 C 
ATOM     23  C   UNL     1       6.916   5.350  14.865  0.00  0.00    +0.000 C 
ATOM     24  C   UNL     1       6.542   3.860  14.994  0.00  0.00    +0.000 C 
ATOM     25  C   UNL     1       5.381   3.681  15.988  0.00  0.00    +0.000 C 
BRANCH  21  26
ATOM     26  N   UNL     1       6.830   6.222  18.559  0.00  0.00    +0.000 NA
ATOM     27  H   UNL     1       7.840   6.337  18.473  0.00  0.00    +0.000 HD
ATOM     28  H   UNL     1       6.764   5.504  19.289  0.00  0.00    +0.000 HD
ENDBRANCH  21  26
BRANCH  23  29
ATOM     29  N   UNL     1       7.989   5.560  13.884  0.00  0.00    +0.000 NA
ATOM     30  H   UNL     1       7.947   4.851  13.151  0.00  0.00    +0.000 HD
ATOM     31  H   UNL     1       8.899   5.432  14.333  0.00  0.00    +0.000 HD
ENDBRANCH  23  29
BRANCH  24  32
ATOM     32  O   UNL     1       6.157   3.287  13.739  0.00  0.00    +0.000 OA
ATOM     33  H   UNL     1       5.445   2.644  13.915  0.00  0.00    +0.000 HD
ENDBRANCH  24  32
BRANCH  25  34
ATOM     34  O   UNL     1       5.090   2.276  16.171  0.00  0.00    +0.000 OA
ATOM     35  H   UNL     1       4.503   2.197  16.948  0.00  0.00    +0.000 HD
ENDBRANCH  25  34
ENDBRANCH  19  20
ENDBRANCH   3  19
TORSDOF 10
ENDMDL
MODEL 3
REMARK VINA RESULT:      -6.2      2.369      5.807
REMARK  Name = 
REMARK  10 active torsions:
REMARK  status: ('A' for Active; 'I' for Inactive)
REMARK    1  A    between atoms: C_2  and  C_4
REMARK    2  A    between atoms: C_6  and  O_7
REMARK    3  A    between atoms: O_7  and  C_8
REMARK    4  A    between atoms: C_9  and  N_10
REMARK    5  A    between atoms: C_12  and  N_13
REMARK    6  A    between atoms: C_14  and  O_15
REMARK    7  A    between atoms: C_16  and  O_17
REMARK    8  A    between atoms: C_18  and  N_19
REMARK    9  A    between atoms: C_20  and  O_21
REMARK   10  A    between atoms: C_22  and  O_23
REMARK                            x       y       z     vdW  Elec       q    Type
REMARK                         _______ _______ _______ _____ _____    ______ ____
ROOT
ATOM      1  C   UNL     1       6.687   5.829  16.598  0.00  0.00    +0.000 C 
ATOM      2  O   UNL     1       6.508   4.595  17.304  0.00  0.00    +0.000 OA
ATOM      3  C   UNL     1       6.405   4.677  18.734  0.00  0.00    +0.000 C 
ATOM      4  C   UNL     1       7.699   5.351  19.269  0.00  0.00    +0.000 C 
ATOM      5  C   UNL     1       7.674   6.802  18.759  0.00  0.00    +0.000 C 
ATOM      6  C   UNL     1       7.704   6.796  17.227  0.00  0.00    +0.000 C 
ENDROOT
BRANCH   1   8
ATOM      7  N   UNL     1       4.731   7.329  16.957  0.00  0.00    +0.000 N 
ATOM      8  C   UNL     1       5.344   6.434  16.140  0.00  0.00    +0.000 C 
ATOM      9  O   UNL     1       4.801   6.094  15.088  0.00  0.00    +0.000 OA
ATOM     10  H   UNL     1       3.809   7.613  16.663  0.00  0.00    +0.000 HD
ATOM     11  H   UNL     1       4.884   7.293  17.964  0.00  0.00    +0.000 HD
ENDBRANCH   1   8
BRANCH   4  12
ATOM     12  N   UNL     1       7.944   5.277  20.731  0.00  0.00    +0.000 NA
ATOM     13  H   UNL     1       7.034   5.226  21.205  0.00  0.00    +0.000 HD
ATOM     14  H   UNL     1       8.332   6.165  21.055  0.00  0.00    +0.000 HD
ENDBRANCH   4  12
BRANCH   5  15
ATOM     15  O   UNL     1       8.799   7.548  19.259  0.00  0.00    +0.000 OA
ATOM     16  H   UNL     1       8.566   7.904  20.134  0.00  0.00    +0.000 HD
ENDBRANCH   5  15
BRANCH   6  17
ATOM     17  O   UNL     1       7.614   8.129  16.722  0.00  0.00    +0.000 OA
ATOM     18  H   UNL     1       8.202   8.679  17.275  0.00  0.00    +0.000 HD
ENDBRANCH   6  17
BRANCH   3  19
ATOM     19  O   UNL     1       5.189   5.303  19.121  0.00  0.00    +0.000 OA
BRANCH  19  20
ATOM     20  C   UNL     1       4.027   4.473  19.366  0.00  0.00    +0.000 C 
ATOM     21  C   UNL     1       4.318   2.943  19.364  0.00  0.00    +0.000 C 
ATOM     22  C   UNL     1       3.035   2.094  19.305  0.00  0.00    +0.000 C 
ATOM     23  C   UNL     1       2.114   2.503  18.161  0.00  0.00    +0.000 C 
ATOM     24  C   UNL     1       1.738   3.990  18.316  0.00  0.00    +0.000 C 
ATOM     25  C   UNL     1       3.000   4.871  18.283  0.00  0.00    +0.000 C 
BRANCH  21  26
ATOM     26  N   UNL     1       5.065   2.468  20.548  0.00  0.00    +0.000 NA
ATOM     27  H   UNL     1       4.820   3.009  21.377  0.00  0.00    +0.000 HD
ATOM     28  H   UNL     1       6.063   2.685  20.447  0.00  0.00    +0.000 HD
ENDBRANCH  21  26
BRANCH  23  29
ATOM     29  N   UNL     1       0.926   1.640  18.137  0.00  0.00    +0.000 NA
ATOM     30  H   UNL     1       1.198   0.656  18.126  0.00  0.00    +0.000 HD
ATOM     31  H   UNL     1       0.407   1.788  17.269  0.00  0.00    +0.000 HD
ENDBRANCH  23  29
BRANCH  24  32
ATOM     32  O   UNL     1       0.848   4.435  17.285  0.00  0.00    +0.000 OA
ATOM     33  H   UNL     1       1.357   5.015  16.688  0.00  0.00    +0.000 HD
ENDBRANCH  24  32
BRANCH  25  34
ATOM     34  O   UNL     1       2.652   6.255  18.516  0.00  0.00    +0.000 OA
ATOM     35  H   UNL     1       3.479   6.774  18.489  0.00  0.00    +0.000 HD
ENDBRANCH  25  34
ENDBRANCH  19  20
ENDBRANCH   3  19
TORSDOF 10
ENDMDL
MODEL 4
REMARK VINA RESULT:      -6.2      1.454      3.048
REMARK  Name = 
REMARK  10 active torsions:
REMARK  status: ('A' for Active; 'I' for Inactive)
REMARK    1  A    between atoms: C_2  and  C_4
REMARK    2  A    between atoms: C_6  and  O_7
REMARK    3  A    between atoms: O_7  and  C_8
REMARK    4  A    between atoms: C_9  and  N_10
REMARK    5  A    between atoms: C_12  and  N_13
REMARK    6  A    between atoms: C_14  and  O_15
REMARK    7  A    between atoms: C_16  and  O_17
REMARK    8  A    between atoms: C_18  and  N_19
REMARK    9  A    between atoms: C_20  and  O_21
REMARK   10  A    between atoms: C_22  and  O_23
REMARK                            x       y       z     vdW  Elec       q    Type
REMARK                         _______ _______ _______ _____ _____    ______ ____
ROOT
ATOM      1  C   UNL     1       2.045   4.336  20.903  0.00  0.00    +0.000 C 
ATOM      2  O   UNL     1       3.439   4.054  21.069  0.00  0.00    +0.000 OA
ATOM      3  C   UNL     1       4.114   3.445  19.956  0.00  0.00    +0.000 C 
ATOM      4  C   UNL     1       3.390   2.109  19.630  0.00  0.00    +0.000 C 
ATOM      5  C   UNL     1       1.989   2.489  19.121  0.00  0.00    +0.000 C 
ATOM      6  C   UNL     1       1.230   3.216  20.237  0.00  0.00    +0.000 C 
ENDROOT
BRANCH   1   8
ATOM      7  N   UNL     1       1.992   6.023  19.071  0.00  0.00    +0.000 N 
ATOM      8  C   UNL     1       1.801   5.771  20.392  0.00  0.00    +0.000 C 
ATOM      9  O   UNL     1       1.488   6.689  21.152  0.00  0.00    +0.000 OA
ATOM     10  H   UNL     1       1.923   6.994  18.809  0.00  0.00    +0.000 HD
ATOM     11  H   UNL     1       2.651   5.463  18.532  0.00  0.00    +0.000 HD
ENDBRANCH   1   8
BRANCH   4  12
ATOM     12  N   UNL     1       4.084   1.172  18.712  0.00  0.00    +0.000 NA
ATOM     13  H   UNL     1       3.508   0.326  18.624  0.00  0.00    +0.000 HD
ATOM     14  H   UNL     1       4.940   0.833  19.158  0.00  0.00    +0.000 HD
ENDBRANCH   4  12
BRANCH   5  15
ATOM     15  O   UNL     1       1.249   1.321  18.718  0.00  0.00    +0.000 OA
ATOM     16  H   UNL     1       1.479   1.117  17.795  0.00  0.00    +0.000 HD
ENDBRANCH   5  15
BRANCH   6  17
ATOM     17  O   UNL     1      -0.053   3.639  19.772  0.00  0.00    +0.000 OA
ATOM     18  H   UNL     1      -0.323   3.007  19.079  0.00  0.00    +0.000 HD
ENDBRANCH   6  17
BRANCH   3  19
ATOM     19  O   UNL     1       4.225   4.357  18.871  0.00  0.00    +0.000 OA
BRANCH  19  20
ATOM     20  C   UNL     1       5.362   4.242  17.980  0.00  0.00    +0.000 C 
ATOM     21  C   UNL     1       6.440   5.350  18.168  0.00  0.00    +0.000 C 
ATOM     22  C   UNL     1       7.458   5.391  17.014  0.00  0.00    +0.000 C 
ATOM     23  C   UNL     1       6.790   5.469  15.646  0.00  0.00    +0.000 C 
ATOM     24  C   UNL     1       5.858   4.254  15.465  0.00  0.00    +0.000 C 
ATOM     25  C   UNL     1       4.771   4.243  16.554  0.00  0.00    +0.000 C 
BRANCH  21  26
ATOM     26  N   UNL     1       7.235   5.217  19.407  0.00  0.00    +0.000 NA
ATOM     27  H   UNL     1       7.092   6.018  20.021  0.00  0.00    +0.000 HD
ATOM     28  H   UNL     1       8.237   5.296  19.195  0.00  0.00    +0.000 HD
ENDBRANCH  21  26
BRANCH  23  29
ATOM     29  N   UNL     1       7.810   5.536  14.590  0.00  0.00    +0.000 NA
ATOM     30  H   UNL     1       7.380   5.425  13.670  0.00  0.00    +0.000 HD
ATOM     31  H   UNL     1       8.458   4.751  14.684  0.00  0.00    +0.000 HD
ENDBRANCH  23  29
BRANCH  24  32
ATOM     32  O   UNL     1       5.217   4.249  14.184  0.00  0.00    +0.000 OA
ATOM     33  H   UNL     1       4.497   4.907  14.212  0.00  0.00    +0.000 HD
ENDBRANCH  24  32
BRANCH  25  34
ATOM     34  O   UNL     1       3.952   3.056  16.432  0.00  0.00    +0.000 OA
ATOM     35  H   UNL     1       3.127   3.218  16.930  0.00  0.00    +0.000 HD
ENDBRANCH  25  34
ENDBRANCH  19  20
ENDBRANCH   3  19
TORSDOF 10
ENDMDL
MODEL 5
REMARK VINA RESULT:      -6.2      1.993      2.881
REMARK  Name = 
REMARK  10 active torsions:
REMARK  status: ('A' for Active; 'I' for Inactive)
REMARK    1  A    between atoms: C_2  and  C_4
REMARK    2  A    between atoms: C_6  and  O_7
REMARK    3  A    between atoms: O_7  and  C_8
REMARK    4  A    between atoms: C_9  and  N_10
REMARK    5  A    between atoms: C_12  and  N_13
REMARK    6  A    between atoms: C_14  and  O_15
REMARK    7  A    between atoms: C_16  and  O_17
REMARK    8  A    between atoms: C_18  and  N_19
REMARK    9  A    between atoms: C_20  and  O_21
REMARK   10  A    between atoms: C_22  and  O_23
REMARK                            x       y       z     vdW  Elec       q    Type
REMARK                         _______ _______ _______ _____ _____    ______ ____
ROOT
ATOM      1  C   UNL     1       2.632   2.428  18.960  0.00  0.00    +0.000 C 
ATOM      2  O   UNL     1       2.550   2.968  17.636  0.00  0.00    +0.000 OA
ATOM      3  C   UNL     1       3.099   4.281  17.438  0.00  0.00    +0.000 C 
ATOM      4  C   UNL     1       2.365   5.256  18.400  0.00  0.00    +0.000 C 
ATOM      5  C   UNL     1       2.765   4.841  19.826  0.00  0.00    +0.000 C 
ATOM      6  C   UNL     1       2.277   3.412  20.087  0.00  0.00    +0.000 C 
ENDROOT
BRANCH   1   8
ATOM      7  N   UNL     1       4.115   0.536  18.307  0.00  0.00    +0.000 N 
ATOM      8  C   UNL     1       3.900   1.572  19.159  0.00  0.00    +0.000 C 
ATOM      9  O   UNL     1       4.684   1.774  20.087  0.00  0.00    +0.000 OA
ATOM     10  H   UNL     1       4.897  -0.055  18.544  0.00  0.00    +0.000 HD
ATOM     11  H   UNL     1       3.328   0.071  17.856  0.00  0.00    +0.000 HD
ENDBRANCH   1   8
BRANCH   4  12
ATOM     12  N   UNL     1       2.559   6.709  18.165  0.00  0.00    +0.000 NA
ATOM     13  H   UNL     1       2.166   7.217  18.967  0.00  0.00    +0.000 HD
ATOM     14  H   UNL     1       1.973   7.007  17.382  0.00  0.00    +0.000 HD
ENDBRANCH   4  12
BRANCH   5  15
ATOM     15  O   UNL     1       2.195   5.730  20.805  0.00  0.00    +0.000 OA
ATOM     16  H   UNL     1       2.751   6.527  20.854  0.00  0.00    +0.000 HD
ENDBRANCH   5  15
BRANCH   6  17
ATOM     17  O   UNL     1       2.692   2.973  21.382  0.00  0.00    +0.000 OA
ATOM     18  H   UNL     1       2.328   2.075  21.504  0.00  0.00    +0.000 HD
ENDBRANCH   6  17
BRANCH   3  19
ATOM     19  O   UNL     1       4.515   4.262  17.556  0.00  0.00    +0.000 OA
BRANCH  19  20
ATOM     20  C   UNL     1       5.189   5.454  18.030  0.00  0.00    +0.000 C 
ATOM     21  C   UNL     1       5.753   6.367  16.901  0.00  0.00    +0.000 C 
ATOM     22  C   UNL     1       6.726   7.435  17.429  0.00  0.00    +0.000 C 
ATOM     23  C   UNL     1       7.834   6.843  18.292  0.00  0.00    +0.000 C 
ATOM     24  C   UNL     1       7.206   6.089  19.481  0.00  0.00    +0.000 C 
ATOM     25  C   UNL     1       6.300   4.951  18.978  0.00  0.00    +0.000 C 
BRANCH  21  26
ATOM     26  N   UNL     1       4.717   7.100  16.142  0.00  0.00    +0.000 NA
ATOM     27  H   UNL     1       4.062   6.455  15.701  0.00  0.00    +0.000 HD
ATOM     28  H   UNL     1       5.136   7.560  15.326  0.00  0.00    +0.000 HD
ENDBRANCH  21  26
BRANCH  23  29
ATOM     29  N   UNL     1       8.746   7.904  18.741  0.00  0.00    +0.000 NA
ATOM     30  H   UNL     1       8.269   8.807  18.745  0.00  0.00    +0.000 HD
ATOM     31  H   UNL     1       9.514   8.005  18.075  0.00  0.00    +0.000 HD
ENDBRANCH  23  29
BRANCH  24  32
ATOM     32  O   UNL     1       8.195   5.528  20.352  0.00  0.00    +0.000 OA
ATOM     33  H   UNL     1       7.748   4.880  20.928  0.00  0.00    +0.000 HD
ENDBRANCH  24  32
BRANCH  25  34
ATOM     34  O   UNL     1       5.645   4.301  20.093  0.00  0.00    +0.000 OA
ATOM     35  H   UNL     1       6.312   3.745  20.540  0.00  0.00    +0.000 HD
ENDBRANCH  25  34
ENDBRANCH  19  20
ENDBRANCH   3  19
TORSDOF 10
ENDMDL
MODEL 6
REMARK VINA RESULT:      -6.2      2.199      6.059
REMARK  Name = 
REMARK  10 active torsions:
REMARK  status: ('A' for Active; 'I' for Inactive)
REMARK    1  A    between atoms: C_2  and  C_4
REMARK    2  A    between atoms: C_6  and  O_7
REMARK    3  A    between atoms: O_7  and  C_8
REMARK    4  A    between atoms: C_9  and  N_10
REMARK    5  A    between atoms: C_12  and  N_13
REMARK    6  A    between atoms: C_14  and  O_15
REMARK    7  A    between atoms: C_16  and  O_17
REMARK    8  A    between atoms: C_18  and  N_19
REMARK    9  A    between atoms: C_20  and  O_21
REMARK   10  A    between atoms: C_22  and  O_23
REMARK                            x       y       z     vdW  Elec       q    Type
REMARK                         _______ _______ _______ _____ _____    ______ ____
ROOT
ATOM      1  C   UNL     1       7.069   6.236  17.231  0.00  0.00    +0.000 C 
ATOM      2  O   UNL     1       5.782   6.864  17.221  0.00  0.00    +0.000 OA
ATOM      3  C   UNL     1       4.648   6.021  17.482  0.00  0.00    +0.000 C 
ATOM      4  C   UNL     1       4.638   4.891  16.416  0.00  0.00    +0.000 C 
ATOM      5  C   UNL     1       5.880   4.026  16.688  0.00  0.00    +0.000 C 
ATOM      6  C   UNL     1       7.138   4.883  16.503  0.00  0.00    +0.000 C 
ENDROOT
BRANCH   1   8
ATOM      7  N   UNL     1       7.491   5.324  19.509  0.00  0.00    +0.000 N 
ATOM      8  C   UNL     1       7.742   6.315  18.616  0.00  0.00    +0.000 C 
ATOM      9  O   UNL     1       8.454   7.266  18.942  0.00  0.00    +0.000 OA
ATOM     10  H   UNL     1       7.868   5.476  20.432  0.00  0.00    +0.000 HD
ATOM     11  H   UNL     1       6.614   4.806  19.468  0.00  0.00    +0.000 HD
ENDBRANCH   1   8
BRANCH   4  12
ATOM     12  N   UNL     1       3.402   4.076  16.309  0.00  0.00    +0.000 NA
ATOM     13  H   UNL     1       3.198   3.683  17.236  0.00  0.00    +0.000 HD
ATOM     14  H   UNL     1       3.589   3.250  15.737  0.00  0.00    +0.000 HD
ENDBRANCH   4  12
BRANCH   5  15
ATOM     15  O   UNL     1       5.933   2.897  15.796  0.00  0.00    +0.000 OA
ATOM     16  H   UNL     1       6.867   2.695  15.614  0.00  0.00    +0.000 HD
ENDBRANCH   5  15
BRANCH   6  17
ATOM     17  O   UNL     1       8.307   4.125  16.814  0.00  0.00    +0.000 OA
ATOM     18  H   UNL     1       9.074   4.687  16.591  0.00  0.00    +0.000 HD
ENDBRANCH   6  17
BRANCH   3  19
ATOM     19  O   UNL     1       4.644   5.581  18.834  0.00  0.00    +0.000 OA
BRANCH  19  20
ATOM     20  C   UNL     1       3.605   4.668  19.264  0.00  0.00    +0.000 C 
ATOM     21  C   UNL     1       2.402   5.353  19.979  0.00  0.00    +0.000 C 
ATOM     22  C   UNL     1       1.487   4.347  20.699  0.00  0.00    +0.000 C 
ATOM     23  C   UNL     1       2.255   3.420  21.634  0.00  0.00    +0.000 C 
ATOM     24  C   UNL     1       3.324   2.655  20.827  0.00  0.00    +0.000 C 
ATOM     25  C   UNL     1       4.311   3.638  20.173  0.00  0.00    +0.000 C 
BRANCH  21  26
ATOM     26  N   UNL     1       1.524   6.128  19.077  0.00  0.00    +0.000 NA
ATOM     27  H   UNL     1       2.072   6.658  18.400  0.00  0.00    +0.000 HD
ATOM     28  H   UNL     1       1.056   6.878  19.598  0.00  0.00    +0.000 HD
ENDBRANCH  21  26
BRANCH  23  29
ATOM     29  N   UNL     1       1.327   2.505  22.313  0.00  0.00    +0.000 NA
ATOM     30  H   UNL     1       1.472   2.533  23.323  0.00  0.00    +0.000 HD
ATOM     31  H   UNL     1       1.525   1.542  22.036  0.00  0.00    +0.000 HD
ENDBRANCH  23  29
BRANCH  24  32
ATOM     32  O   UNL     1       4.068   1.741  21.643  0.00  0.00    +0.000 OA
ATOM     33  H   UNL     1       3.620   1.687  22.508  0.00  0.00    +0.000 HD
ENDBRANCH  24  32
BRANCH  25  34
ATOM     34  O   UNL     1       5.259   2.922  19.349  0.00  0.00    +0.000 OA
ATOM     35  H   UNL     1       4.749   2.321  18.771  0.00  0.00    +0.000 HD
ENDBRANCH  25  34
ENDBRANCH  19  20
ENDBRANCH   3  19
TORSDOF 10
ENDMDL
MODEL 7
REMARK VINA RESULT:      -6.1      2.279      5.932
REMARK  Name = 
REMARK  10 active torsions:
REMARK  status: ('A' for Active; 'I' for Inactive)
REMARK    1  A    between atoms: C_2  and  C_4
REMARK    2  A    between atoms: C_6  and  O_7
REMARK    3  A    between atoms: O_7  and  C_8
REMARK    4  A    between atoms: C_9  and  N_10
REMARK    5  A    between atoms: C_12  and  N_13
REMARK    6  A    between atoms: C_14  and  O_15
REMARK    7  A    between atoms: C_16  and  O_17
REMARK    8  A    between atoms: C_18  and  N_19
REMARK    9  A    between atoms: C_20  and  O_21
REMARK   10  A    between atoms: C_22  and  O_23
REMARK                            x       y       z     vdW  Elec       q    Type
REMARK                         _______ _______ _______ _____ _____    ______ ____
ROOT
ATOM      1  C   UNL     1       6.401   5.265  16.453  0.00  0.00    +0.000 C 
ATOM      2  O   UNL     1       6.477   4.590  17.714  0.00  0.00    +0.000 OA
ATOM      3  C   UNL     1       5.252   4.462  18.454  0.00  0.00    +0.000 C 
ATOM      4  C   UNL     1       4.695   5.890  18.708  0.00  0.00    +0.000 C 
ATOM      5  C   UNL     1       4.301   6.453  17.332  0.00  0.00    +0.000 C 
ATOM      6  C   UNL     1       5.553   6.548  16.452  0.00  0.00    +0.000 C 
ENDROOT
BRANCH   1   8
ATOM      7  N   UNL     1       5.958   2.977  15.575  0.00  0.00    +0.000 N 
ATOM      8  C   UNL     1       6.179   4.285  15.283  0.00  0.00    +0.000 C 
ATOM      9  O   UNL     1       6.243   4.647  14.108  0.00  0.00    +0.000 OA
ATOM     10  H   UNL     1       5.926   2.362  14.776  0.00  0.00    +0.000 HD
ATOM     11  H   UNL     1       6.333   2.572  16.432  0.00  0.00    +0.000 HD
ENDBRANCH   1   8
BRANCH   4  12
ATOM     12  N   UNL     1       3.598   6.020  19.700  0.00  0.00    +0.000 NA
ATOM     13  H   UNL     1       3.132   5.108  19.782  0.00  0.00    +0.000 HD
ATOM     14  H   UNL     1       2.869   6.627  19.320  0.00  0.00    +0.000 HD
ENDBRANCH   4  12
BRANCH   5  15
ATOM     15  O   UNL     1       3.701   7.756  17.456  0.00  0.00    +0.000 OA
ATOM     16  H   UNL     1       3.206   7.943  16.639  0.00  0.00    +0.000 HD
ENDBRANCH   5  15
BRANCH   6  17
ATOM     17  O   UNL     1       5.208   7.006  15.144  0.00  0.00    +0.000 OA
ATOM     18  H   UNL     1       5.817   7.740  14.934  0.00  0.00    +0.000 HD
ENDBRANCH   6  17
BRANCH   3  19
ATOM     19  O   UNL     1       4.358   3.568  17.805  0.00  0.00    +0.000 OA
BRANCH  19  20
ATOM     20  C   UNL     1       3.321   2.929  18.590  0.00  0.00    +0.000 C 
ATOM     21  C   UNL     1       2.022   3.774  18.749  0.00  0.00    +0.000 C 
ATOM     22  C   UNL     1       1.083   3.221  19.836  0.00  0.00    +0.000 C 
ATOM     23  C   UNL     1       1.792   3.004  21.168  0.00  0.00    +0.000 C 
ATOM     24  C   UNL     1       2.970   2.031  20.965  0.00  0.00    +0.000 C 
ATOM     25  C   UNL     1       3.975   2.606  19.951  0.00  0.00    +0.000 C 
BRANCH  21  26
ATOM     26  N   UNL     1       1.208   3.870  17.519  0.00  0.00    +0.000 NA
ATOM     27  H   UNL     1       0.544   3.099  17.459  0.00  0.00    +0.000 HD
ATOM     28  H   UNL     1       1.794   3.703  16.693  0.00  0.00    +0.000 HD
ENDBRANCH  21  26
BRANCH  23  29
ATOM     29  N   UNL     1       0.840   2.506  22.171  0.00  0.00    +0.000 NA
ATOM     30  H   UNL     1       0.068   3.164  22.289  0.00  0.00    +0.000 HD
ATOM     31  H   UNL     1       1.295   2.453  23.084  0.00  0.00    +0.000 HD
ENDBRANCH  23  29
BRANCH  24  32
ATOM     32  O   UNL     1       3.666   1.760  22.188  0.00  0.00    +0.000 OA
ATOM     33  H   UNL     1       4.364   1.106  21.991  0.00  0.00    +0.000 HD
ENDBRANCH  24  32
BRANCH  25  34
ATOM     34  O   UNL     1       5.034   1.653  19.699  0.00  0.00    +0.000 OA
ATOM     35  H   UNL     1       5.434   1.426  20.561  0.00  0.00    +0.000 HD
ENDBRANCH  25  34
ENDBRANCH  19  20
ENDBRANCH   3  19
TORSDOF 10
ENDMDL
MODEL 8
REMARK VINA RESULT:      -6.1      2.843      5.653
REMARK  Name = 
REMARK  10 active torsions:
REMARK  status: ('A' for Active; 'I' for Inactive)
REMARK    1  A    between atoms: C_2  and  C_4
REMARK    2  A    between atoms: C_6  and  O_7
REMARK    3  A    between atoms: O_7  and  C_8
REMARK    4  A    between atoms: C_9  and  N_10
REMARK    5  A    between atoms: C_12  and  N_13
REMARK    6  A    between atoms: C_14  and  O_15
REMARK    7  A    between atoms: C_16  and  O_17
REMARK    8  A    between atoms: C_18  and  N_19
REMARK    9  A    between atoms: C_20  and  O_21
REMARK   10  A    between atoms: C_22  and  O_23
REMARK                            x       y       z     vdW  Elec       q    Type
REMARK                         _______ _______ _______ _____ _____    ______ ____
ROOT
ATOM      1  C   UNL     1       2.792   2.953  19.651  0.00  0.00    +0.000 C 
ATOM      2  O   UNL     1       3.390   4.029  20.382  0.00  0.00    +0.000 OA
ATOM      3  C   UNL     1       3.879   5.141  19.614  0.00  0.00    +0.000 C 
ATOM      4  C   UNL     1       4.934   4.600  18.609  0.00  0.00    +0.000 C 
ATOM      5  C   UNL     1       4.171   3.704  17.619  0.00  0.00    +0.000 C 
ATOM      6  C   UNL     1       3.551   2.528  18.382  0.00  0.00    +0.000 C 
ENDROOT
BRANCH   1   8
ATOM      7  N   UNL     1       0.640   3.990  20.355  0.00  0.00    +0.000 N 
ATOM      8  C   UNL     1       1.264   3.116  19.523  0.00  0.00    +0.000 C 
ATOM      9  O   UNL     1       0.601   2.448  18.729  0.00  0.00    +0.000 OA
ATOM     10  H   UNL     1      -0.367   3.981  20.304  0.00  0.00    +0.000 HD
ATOM     11  H   UNL     1       1.037   4.200  21.270  0.00  0.00    +0.000 HD
ENDBRANCH   1   8
BRANCH   4  12
ATOM     12  N   UNL     1       5.782   5.603  17.917  0.00  0.00    +0.000 NA
ATOM     13  H   UNL     1       6.761   5.424  18.173  0.00  0.00    +0.000 HD
ATOM     14  H   UNL     1       5.598   6.529  18.308  0.00  0.00    +0.000 HD
ENDBRANCH   4  12
BRANCH   5  15
ATOM     15  O   UNL     1       5.046   3.203  16.591  0.00  0.00    +0.000 OA
ATOM     16  H   UNL     1       4.520   2.659  15.980  0.00  0.00    +0.000 HD
ENDBRANCH   5  15
BRANCH   6  17
ATOM     17  O   UNL     1       2.780   1.712  17.499  0.00  0.00    +0.000 OA
ATOM     18  H   UNL     1       2.641   2.234  16.686  0.00  0.00    +0.000 HD
ENDBRANCH   6  17
BRANCH   3  19
ATOM     19  O   UNL     1       2.804   5.868  19.033  0.00  0.00    +0.000 OA
BRANCH  19  20
ATOM     20  C   UNL     1       2.599   7.244  19.436  0.00  0.00    +0.000 C 
ATOM     21  C   UNL     1       1.369   7.466  20.365  0.00  0.00    +0.000 C 
ATOM     22  C   UNL     1       0.992   8.951  20.509  0.00  0.00    +0.000 C 
ATOM     23  C   UNL     1       0.824   9.647  19.163  0.00  0.00    +0.000 C 
ATOM     24  C   UNL     1       2.135   9.526  18.361  0.00  0.00    +0.000 C 
ATOM     25  C   UNL     1       2.485   8.047  18.121  0.00  0.00    +0.000 C 
BRANCH  21  26
ATOM     26  N   UNL     1       1.551   6.958  21.741  0.00  0.00    +0.000 NA
ATOM     27  H   UNL     1       2.541   6.889  21.977  0.00  0.00    +0.000 HD
ATOM     28  H   UNL     1       1.256   5.976  21.798  0.00  0.00    +0.000 HD
ENDBRANCH  21  26
BRANCH  23  29
ATOM     29  N   UNL     1       0.437  11.050  19.365  0.00  0.00    +0.000 NA
ATOM     30  H   UNL     1       1.008  11.666  18.786  0.00  0.00    +0.000 HD
ATOM     31  H   UNL     1       0.630  11.327  20.330  0.00  0.00    +0.000 HD
ENDBRANCH  23  29
BRANCH  24  32
ATOM     32  O   UNL     1       2.057  10.185  17.091  0.00  0.00    +0.000 OA
ATOM     33  H   UNL     1       2.963  10.435  16.833  0.00  0.00    +0.000 HD
ENDBRANCH  24  32
BRANCH  25  34
ATOM     34  O   UNL     1       3.758   7.936  17.443  0.00  0.00    +0.000 OA
ATOM     35  H   UNL     1       4.448   7.851  18.129  0.00  0.00    +0.000 HD
ENDBRANCH  25  34
ENDBRANCH  19  20
ENDBRANCH   3  19
TORSDOF 10
ENDMDL
MODEL 9
REMARK VINA RESULT:      -5.9      2.149      5.981
REMARK  Name = 
REMARK  10 active torsions:
REMARK  status: ('A' for Active; 'I' for Inactive)
REMARK    1  A    between atoms: C_2  and  C_4
REMARK    2  A    between atoms: C_6  and  O_7
REMARK    3  A    between atoms: O_7  and  C_8
REMARK    4  A    between atoms: C_9  and  N_10
REMARK    5  A    between atoms: C_12  and  N_13
REMARK    6  A    between atoms: C_14  and  O_15
REMARK    7  A    between atoms: C_16  and  O_17
REMARK    8  A    between atoms: C_18  and  N_19
REMARK    9  A    between atoms: C_20  and  O_21
REMARK   10  A    between atoms: C_22  and  O_23
REMARK                            x       y       z     vdW  Elec       q    Type
REMARK                         _______ _______ _______ _____ _____    ______ ____
ROOT
ATOM      1  C   UNL     1       6.607   4.478  15.771  0.00  0.00    +0.000 C 
ATOM      2  O   UNL     1       5.955   3.569  16.665  0.00  0.00    +0.000 OA
ATOM      3  C   UNL     1       5.405   4.127  17.869  0.00  0.00    +0.000 C 
ATOM      4  C   UNL     1       6.560   4.817  18.647  0.00  0.00    +0.000 C 
ATOM      5  C   UNL     1       7.005   6.014  17.789  0.00  0.00    +0.000 C 
ATOM      6  C   UNL     1       7.537   5.500  16.447  0.00  0.00    +0.000 C 
ENDROOT
BRANCH   1   8
ATOM      7  N   UNL     1       5.194   6.294  14.817  0.00  0.00    +0.000 N 
ATOM      8  C   UNL     1       5.647   5.020  14.692  0.00  0.00    +0.000 C 
ATOM      9  O   UNL     1       5.250   4.318  13.761  0.00  0.00    +0.000 OA
ATOM     10  H   UNL     1       4.489   6.563  14.148  0.00  0.00    +0.000 HD
ATOM     11  H   UNL     1       5.120   6.724  15.738  0.00  0.00    +0.000 HD
ENDBRANCH   1   8
BRANCH   4  12
ATOM     12  N   UNL     1       6.288   5.207  20.053  0.00  0.00    +0.000 NA
ATOM     13  H   UNL     1       7.076   4.889  20.630  0.00  0.00    +0.000 HD
ATOM     14  H   UNL     1       5.498   4.663  20.408  0.00  0.00    +0.000 HD
ENDBRANCH   4  12
BRANCH   5  15
ATOM     15  O   UNL     1       8.031   6.775  18.453  0.00  0.00    +0.000 OA
ATOM     16  H   UNL     1       8.457   6.203  19.114  0.00  0.00    +0.000 HD
ENDBRANCH   5  15
BRANCH   6  17
ATOM     17  O   UNL     1       7.897   6.593  15.602  0.00  0.00    +0.000 OA
ATOM     18  H   UNL     1       7.405   7.372  15.926  0.00  0.00    +0.000 HD
ENDBRANCH   6  17
BRANCH   3  19
ATOM     19  O   UNL     1       4.287   4.956  17.579  0.00  0.00    +0.000 OA
BRANCH  19  20
ATOM     20  C   UNL     1       3.055   4.742  18.311  0.00  0.00    +0.000 C 
ATOM     21  C   UNL     1       3.121   5.147  19.814  0.00  0.00    +0.000 C 
ATOM     22  C   UNL     1       1.926   4.617  20.625  0.00  0.00    +0.000 C 
ATOM     23  C   UNL     1       1.714   3.118  20.446  0.00  0.00    +0.000 C 
ATOM     24  C   UNL     1       1.495   2.810  18.951  0.00  0.00    +0.000 C 
ATOM     25  C   UNL     1       2.720   3.245  18.127  0.00  0.00    +0.000 C 
BRANCH  21  26
ATOM     26  N   UNL     1       3.154   6.607  20.046  0.00  0.00    +0.000 NA
ATOM     27  H   UNL     1       4.069   6.902  20.386  0.00  0.00    +0.000 HD
ATOM     28  H   UNL     1       2.549   6.853  20.838  0.00  0.00    +0.000 HD
ENDBRANCH  21  26
BRANCH  23  29
ATOM     29  N   UNL     1       0.582   2.666  21.266  0.00  0.00    +0.000 NA
ATOM     30  H   UNL     1      -0.294   2.762  20.750  0.00  0.00    +0.000 HD
ATOM     31  H   UNL     1       0.483   3.272  22.084  0.00  0.00    +0.000 HD
ENDBRANCH  23  29
BRANCH  24  32
ATOM     32  O   UNL     1       1.262   1.416  18.713  0.00  0.00    +0.000 OA
ATOM     33  H   UNL     1       0.724   1.343  17.902  0.00  0.00    +0.000 HD
ENDBRANCH  24  32
BRANCH  25  34
ATOM     34  O   UNL     1       2.477   3.034  16.717  0.00  0.00    +0.000 OA
ATOM     35  H   UNL     1       2.117   3.867  16.355  0.00  0.00    +0.000 HD
ENDBRANCH  25  34
ENDBRANCH  19  20
ENDBRANCH   3  19
TORSDOF 10
ENDMDL
