MODEL 1
REMARK VINA RESULT:      -7.0      0.000      0.000
REMARK  Name = 
REMARK  4 active torsions:
REMARK  status: ('A' for Active; 'I' for Inactive)
REMARK    1  A    between atoms: N_1  and  N_2
REMARK    2  A    between atoms: C_3  and  C_5
REMARK    3  A    between atoms: N_9  and  S_10
REMARK    4  A    between atoms: S_10  and  C_13
REMARK                            x       y       z     vdW  Elec       q    Type
REMARK                         _______ _______ _______ _____ _____    ______ ____
ROOT
ATOM      1  C   UNL     1       3.191   5.424  19.750  0.00  0.00    +0.000 C 
ATOM      2  S   UNL     1       2.153   4.455  20.891  0.00  0.00    +0.000 S 
ATOM      3  C   UNL     1       1.107   3.849  19.552  0.00  0.00    +0.000 C 
ATOM      4  C   UNL     1       1.829   4.116  18.228  0.00  0.00    +0.000 C 
ATOM      5  N   UNL     1       3.194   4.663  18.473  0.00  0.00    +0.000 NA
ENDROOT
BRANCH   1   7
ATOM      6  N   UNL     1       1.889   7.247  20.781  0.00  0.00    +0.000 N 
ATOM      7  C   UNL     1       2.535   6.821  19.611  0.00  0.00    +0.000 C 
ATOM      8  O   UNL     1       2.535   7.487  18.575  0.00  0.00    +0.000 OA
ATOM      9  H   UNL     1       1.801   6.599  21.565  0.00  0.00    +0.000 HD
BRANCH   6  10
ATOM     10  N   UNL     1       1.189   8.470  20.806  0.00  0.00    +0.000 NA
ATOM     11  H   UNL     1       0.896   8.682  21.761  0.00  0.00    +0.000 HD
ATOM     12  H   UNL     1       0.322   8.348  20.265  0.00  0.00    +0.000 HD
ENDBRANCH   6  10
ENDBRANCH   1   7
BRANCH   5  13
ATOM     13  S   UNL     1       4.482   3.566  18.344  0.00  0.00    +0.000 S 
ATOM     14  O   UNL     1       5.360   3.770  19.478  0.00  0.00    +0.000 OA
ATOM     15  O   UNL     1       3.923   2.266  18.049  0.00  0.00    +0.000 OA
BRANCH  13  16
ATOM     16  C   UNL     1       5.378   4.115  16.908  0.00  0.00    +0.000 A 
ATOM     17  C   UNL     1       6.695   4.562  17.045  0.00  0.00    +0.000 A 
ATOM     18  C   UNL     1       7.424   4.924  15.908  0.00  0.00    +0.000 A 
ATOM     19  C   UNL     1       6.836   4.834  14.645  0.00  0.00    +0.000 A 
ATOM     20 CL   UNL     1       7.742   5.270  13.248  0.00  0.00    +0.000 Cl
ATOM     21  C   UNL     1       5.523   4.383  14.507  0.00  0.00    +0.000 A 
ATOM     22  C   UNL     1       4.789   4.023  15.639  0.00  0.00    +0.000 A 
ENDBRANCH  13  16
ENDBRANCH   5  13
TORSDOF 4
ENDMDL
MODEL 2
REMARK VINA RESULT:      -6.8      1.066      1.066
REMARK  Name = 
REMARK  4 active torsions:
REMARK  status: ('A' for Active; 'I' for Inactive)
REMARK    1  A    between atoms: N_1  and  N_2
REMARK    2  A    between atoms: C_3  and  C_5
REMARK    3  A    between atoms: N_9  and  S_10
REMARK    4  A    between atoms: S_10  and  C_13
REMARK                            x       y       z     vdW  Elec       q    Type
REMARK                         _______ _______ _______ _____ _____    ______ ____
ROOT
ATOM      1  C   UNL     1       3.193   5.546  19.619  0.00  0.00    +0.000 C 
ATOM      2  S   UNL     1       2.200   4.646  20.852  0.00  0.00    +0.000 S 
ATOM      3  C   UNL     1       1.125   3.938  19.589  0.00  0.00    +0.000 C 
ATOM      4  C   UNL     1       1.806   4.122  18.228  0.00  0.00    +0.000 C 
ATOM      5  N   UNL     1       3.170   4.700  18.397  0.00  0.00    +0.000 NA
ENDROOT
BRANCH   1   7
ATOM      6  N   UNL     1       2.758   7.466  18.134  0.00  0.00    +0.000 N 
ATOM      7  C   UNL     1       2.515   6.923  19.404  0.00  0.00    +0.000 C 
ATOM      8  O   UNL     1       1.859   7.515  20.264  0.00  0.00    +0.000 OA
ATOM      9  H   UNL     1       3.419   7.001  17.512  0.00  0.00    +0.000 HD
BRANCH   6  10
ATOM     10  N   UNL     1       2.263   8.743  17.797  0.00  0.00    +0.000 NA
ATOM     11  H   UNL     1       2.873   9.464  18.187  0.00  0.00    +0.000 HD
ATOM     12  H   UNL     1       1.353   8.861  18.261  0.00  0.00    +0.000 HD
ENDBRANCH   6  10
ENDBRANCH   1   7
BRANCH   5  13
ATOM     13  S   UNL     1       4.469   3.611  18.305  0.00  0.00    +0.000 S 
ATOM     14  O   UNL     1       5.331   3.845  19.445  0.00  0.00    +0.000 OA
ATOM     15  O   UNL     1       3.923   2.301  18.030  0.00  0.00    +0.000 OA
BRANCH  13  16
ATOM     16  C   UNL     1       5.377   4.139  16.870  0.00  0.00    +0.000 A 
ATOM     17  C   UNL     1       6.704   4.557  17.007  0.00  0.00    +0.000 A 
ATOM     18  C   UNL     1       7.442   4.903  15.872  0.00  0.00    +0.000 A 
ATOM     19  C   UNL     1       6.854   4.823  14.607  0.00  0.00    +0.000 A 
ATOM     20 CL   UNL     1       7.770   5.238  13.211  0.00  0.00    +0.000 Cl
ATOM     21  C   UNL     1       5.531   4.400  14.468  0.00  0.00    +0.000 A 
ATOM     22  C   UNL     1       4.789   4.058  15.600  0.00  0.00    +0.000 A 
ENDBRANCH  13  16
ENDBRANCH   5  13
TORSDOF 4
ENDMDL
MODEL 3
REMARK VINA RESULT:      -6.8      1.143      1.597
REMARK  Name = 
REMARK  4 active torsions:
REMARK  status: ('A' for Active; 'I' for Inactive)
REMARK    1  A    between atoms: N_1  and  N_2
REMARK    2  A    between atoms: C_3  and  C_5
REMARK    3  A    between atoms: N_9  and  S_10
REMARK    4  A    between atoms: S_10  and  C_13
REMARK                            x       y       z     vdW  Elec       q    Type
REMARK                         _______ _______ _______ _____ _____    ______ ____
ROOT
ATOM      1  C   UNL     1       3.220   5.725  19.549  0.00  0.00    +0.000 C 
ATOM      2  S   UNL     1       2.160   4.845  20.739  0.00  0.00    +0.000 S 
ATOM      3  C   UNL     1       1.195   4.067  19.429  0.00  0.00    +0.000 C 
ATOM      4  C   UNL     1       1.969   4.220  18.115  0.00  0.00    +0.000 C 
ATOM      5  N   UNL     1       3.305   4.836  18.360  0.00  0.00    +0.000 NA
ENDROOT
BRANCH   1   7
ATOM      6  N   UNL     1       2.825   7.563  17.953  0.00  0.00    +0.000 N 
ATOM      7  C   UNL     1       2.530   7.077  19.235  0.00  0.00    +0.000 C 
ATOM      8  O   UNL     1       1.822   7.695  20.032  0.00  0.00    +0.000 OA
ATOM      9  H   UNL     1       3.525   7.082  17.387  0.00  0.00    +0.000 HD
BRANCH   6  10
ATOM     10  N   UNL     1       2.326   8.812  17.531  0.00  0.00    +0.000 NA
ATOM     11  H   UNL     1       3.063   9.517  17.588  0.00  0.00    +0.000 HD
ATOM     12  H   UNL     1       1.603   9.106  18.201  0.00  0.00    +0.000 HD
ENDBRANCH   6  10
ENDBRANCH   1   7
BRANCH   5  13
ATOM     13  S   UNL     1       4.630   3.777  18.402  0.00  0.00    +0.000 S 
ATOM     14  O   UNL     1       5.494   4.184  19.491  0.00  0.00    +0.000 OA
ATOM     15  O   UNL     1       4.116   2.428  18.313  0.00  0.00    +0.000 OA
BRANCH  13  16
ATOM     16  C   UNL     1       5.514   4.127  16.899  0.00  0.00    +0.000 A 
ATOM     17  C   UNL     1       4.856   4.017  15.670  0.00  0.00    +0.000 A 
ATOM     18  C   UNL     1       5.528   4.362  14.493  0.00  0.00    +0.000 A 
ATOM     19  C   UNL     1       6.846   4.818  14.551  0.00  0.00    +0.000 A 
ATOM     20 CL   UNL     1       7.665   5.253  13.100  0.00  0.00    +0.000 Cl
ATOM     21  C   UNL     1       7.501   4.933  15.778  0.00  0.00    +0.000 A 
ATOM     22  C   UNL     1       6.837   4.587  16.955  0.00  0.00    +0.000 A 
ENDBRANCH  13  16
ENDBRANCH   5  13
TORSDOF 4
ENDMDL
MODEL 4
REMARK VINA RESULT:      -6.8      0.152      1.124
REMARK  Name = 
REMARK  4 active torsions:
REMARK  status: ('A' for Active; 'I' for Inactive)
REMARK    1  A    between atoms: N_1  and  N_2
REMARK    2  A    between atoms: C_3  and  C_5
REMARK    3  A    between atoms: N_9  and  S_10
REMARK    4  A    between atoms: S_10  and  C_13
REMARK                            x       y       z     vdW  Elec       q    Type
REMARK                         _______ _______ _______ _____ _____    ______ ____
ROOT
ATOM      1  C   UNL     1       3.224   5.510  19.669  0.00  0.00    +0.000 C 
ATOM      2  S   UNL     1       2.143   4.619  20.832  0.00  0.00    +0.000 S 
ATOM      3  C   UNL     1       1.122   3.955  19.502  0.00  0.00    +0.000 C 
ATOM      4  C   UNL     1       1.880   4.141  18.184  0.00  0.00    +0.000 C 
ATOM      5  N   UNL     1       3.247   4.682  18.435  0.00  0.00    +0.000 NA
ENDROOT
BRANCH   1   7
ATOM      6  N   UNL     1       1.926   7.405  20.568  0.00  0.00    +0.000 N 
ATOM      7  C   UNL     1       2.592   6.907  19.439  0.00  0.00    +0.000 C 
ATOM      8  O   UNL     1       2.625   7.515  18.367  0.00  0.00    +0.000 OA
ATOM      9  H   UNL     1       1.810   6.802  21.384  0.00  0.00    +0.000 HD
BRANCH   6  10
ATOM     10  N   UNL     1       1.244   8.637  20.510  0.00  0.00    +0.000 NA
ATOM     11  H   UNL     1       1.617   9.273  21.216  0.00  0.00    +0.000 HD
ATOM     12  H   UNL     1       0.264   8.468  20.772  0.00  0.00    +0.000 HD
ENDBRANCH   6  10
ENDBRANCH   1   7
BRANCH   5  13
ATOM     13  S   UNL     1       4.521   3.562  18.397  0.00  0.00    +0.000 S 
ATOM     14  O   UNL     1       5.381   3.824  19.533  0.00  0.00    +0.000 OA
ATOM     15  O   UNL     1       3.949   2.254  18.172  0.00  0.00    +0.000 OA
BRANCH  13  16
ATOM     16  C   UNL     1       5.450   4.010  16.947  0.00  0.00    +0.000 A 
ATOM     17  C   UNL     1       4.839   3.955  15.691  0.00  0.00    +0.000 A 
ATOM     18  C   UNL     1       5.544   4.376  14.560  0.00  0.00    +0.000 A 
ATOM     19  C   UNL     1       6.850   4.854  14.690  0.00  0.00    +0.000 A 
ATOM     20 CL   UNL     1       7.710   5.382  13.296  0.00  0.00    +0.000 Cl
ATOM     21  C   UNL     1       7.459   4.914  15.944  0.00  0.00    +0.000 A 
ATOM     22  C   UNL     1       6.761   4.491  17.077  0.00  0.00    +0.000 A 
ENDBRANCH  13  16
ENDBRANCH   5  13
TORSDOF 4
ENDMDL
MODEL 5
REMARK VINA RESULT:      -6.6      2.362      2.745
REMARK  Name = 
REMARK  4 active torsions:
REMARK  status: ('A' for Active; 'I' for Inactive)
REMARK    1  A    between atoms: N_1  and  N_2
REMARK    2  A    between atoms: C_3  and  C_5
REMARK    3  A    between atoms: N_9  and  S_10
REMARK    4  A    between atoms: S_10  and  C_13
REMARK                            x       y       z     vdW  Elec       q    Type
REMARK                         _______ _______ _______ _____ _____    ______ ____
ROOT
ATOM      1  C   UNL     1       2.873   4.214  19.974  0.00  0.00    +0.000 C 
ATOM      2  S   UNL     1       1.956   2.641  19.992  0.00  0.00    +0.000 S 
ATOM      3  C   UNL     1       1.379   2.864  18.298  0.00  0.00    +0.000 C 
ATOM      4  C   UNL     1       2.225   3.965  17.649  0.00  0.00    +0.000 C 
ATOM      5  N   UNL     1       3.317   4.398  18.567  0.00  0.00    +0.000 NA
ENDROOT
BRANCH   1   7
ATOM      6  N   UNL     1       2.479   6.592  20.498  0.00  0.00    +0.000 N 
ATOM      7  C   UNL     1       1.891   5.319  20.439  0.00  0.00    +0.000 C 
ATOM      8  O   UNL     1       0.721   5.115  20.767  0.00  0.00    +0.000 OA
ATOM      9  H   UNL     1       3.485   6.683  20.349  0.00  0.00    +0.000 HD
BRANCH   6  10
ATOM     10  N   UNL     1       1.740   7.699  20.960  0.00  0.00    +0.000 NA
ATOM     11  H   UNL     1       2.235   8.147  21.733  0.00  0.00    +0.000 HD
ATOM     12  H   UNL     1       0.858   7.347  21.356  0.00  0.00    +0.000 HD
ENDBRANCH   6  10
ENDBRANCH   1   7
BRANCH   5  13
ATOM     13  S   UNL     1       4.861   3.764  18.258  0.00  0.00    +0.000 S 
ATOM     14  O   UNL     1       5.320   3.098  19.460  0.00  0.00    +0.000 OA
ATOM     15  O   UNL     1       4.805   3.074  16.989  0.00  0.00    +0.000 OA
BRANCH  13  16
ATOM     16  C   UNL     1       5.889   5.202  18.055  0.00  0.00    +0.000 A 
ATOM     17  C   UNL     1       5.454   6.252  17.241  0.00  0.00    +0.000 A 
ATOM     18  C   UNL     1       6.226   7.412  17.138  0.00  0.00    +0.000 A 
ATOM     19  C   UNL     1       7.422   7.520  17.852  0.00  0.00    +0.000 A 
ATOM     20 CL   UNL     1       8.363   8.956  17.732  0.00  0.00    +0.000 Cl
ATOM     21  C   UNL     1       7.854   6.475  18.670  0.00  0.00    +0.000 A 
ATOM     22  C   UNL     1       7.088   5.312  18.773  0.00  0.00    +0.000 A 
ENDBRANCH  13  16
ENDBRANCH   5  13
TORSDOF 4
ENDMDL
MODEL 6
REMARK VINA RESULT:      -6.6      2.408      2.594
REMARK  Name = 
REMARK  4 active torsions:
REMARK  status: ('A' for Active; 'I' for Inactive)
REMARK    1  A    between atoms: N_1  and  N_2
REMARK    2  A    between atoms: C_3  and  C_5
REMARK    3  A    between atoms: N_9  and  S_10
REMARK    4  A    between atoms: S_10  and  C_13
REMARK                            x       y       z     vdW  Elec       q    Type
REMARK                         _______ _______ _______ _____ _____    ______ ____
ROOT
ATOM      1  C   UNL     1       2.907   4.293  19.959  0.00  0.00    +0.000 C 
ATOM      2  S   UNL     1       2.081   2.674  20.074  0.00  0.00    +0.000 S 
ATOM      3  C   UNL     1       1.437   2.792  18.394  0.00  0.00    +0.000 C 
ATOM      4  C   UNL     1       2.197   3.909  17.671  0.00  0.00    +0.000 C 
ATOM      5  N   UNL     1       3.293   4.441  18.531  0.00  0.00    +0.000 NA
ENDROOT
BRANCH   1   7
ATOM      6  N   UNL     1       2.432   6.645  20.528  0.00  0.00    +0.000 N 
ATOM      7  C   UNL     1       1.879   5.361  20.413  0.00  0.00    +0.000 C 
ATOM      8  O   UNL     1       0.703   5.119  20.689  0.00  0.00    +0.000 OA
ATOM      9  H   UNL     1       3.440   6.765  20.422  0.00  0.00    +0.000 HD
BRANCH   6  10
ATOM     10  N   UNL     1       1.648   7.722  20.990  0.00  0.00    +0.000 NA
ATOM     11  H   UNL     1       2.009   8.054  21.885  0.00  0.00    +0.000 HD
ATOM     12  H   UNL     1       0.703   7.364  21.182  0.00  0.00    +0.000 HD
ENDBRANCH   6  10
ENDBRANCH   1   7
BRANCH   5  13
ATOM     13  S   UNL     1       4.859   3.881  18.194  0.00  0.00    +0.000 S 
ATOM     14  O   UNL     1       5.327   3.139  19.346  0.00  0.00    +0.000 OA
ATOM     15  O   UNL     1       4.837   3.288  16.875  0.00  0.00    +0.000 OA
BRANCH  13  16
ATOM     16  C   UNL     1       5.842   5.361  18.113  0.00  0.00    +0.000 A 
ATOM     17  C   UNL     1       7.053   5.424  18.809  0.00  0.00    +0.000 A 
ATOM     18  C   UNL     1       7.861   6.558  18.688  0.00  0.00    +0.000 A 
ATOM     19  C   UNL     1       7.459   7.617  17.871  0.00  0.00    +0.000 A 
ATOM     20 CL   UNL     1       8.464   9.006  17.717  0.00  0.00    +0.000 Cl
ATOM     21  C   UNL     1       6.253   7.553  17.173  0.00  0.00    +0.000 A 
ATOM     22  C   UNL     1       5.440   6.424  17.292  0.00  0.00    +0.000 A 
ENDBRANCH  13  16
ENDBRANCH   5  13
TORSDOF 4
ENDMDL
MODEL 7
REMARK VINA RESULT:      -6.4      2.221      2.573
REMARK  Name = 
REMARK  4 active torsions:
REMARK  status: ('A' for Active; 'I' for Inactive)
REMARK    1  A    between atoms: N_1  and  N_2
REMARK    2  A    between atoms: C_3  and  C_5
REMARK    3  A    between atoms: N_9  and  S_10
REMARK    4  A    between atoms: S_10  and  C_13
REMARK                            x       y       z     vdW  Elec       q    Type
REMARK                         _______ _______ _______ _____ _____    ______ ____
ROOT
ATOM      1  C   UNL     1       2.973   5.227  20.062  0.00  0.00    +0.000 C 
ATOM      2  S   UNL     1       2.229   3.945  21.118  0.00  0.00    +0.000 S 
ATOM      3  C   UNL     1       1.226   3.297  19.766  0.00  0.00    +0.000 C 
ATOM      4  C   UNL     1       1.783   3.856  18.453  0.00  0.00    +0.000 C 
ATOM      5  N   UNL     1       3.031   4.635  18.700  0.00  0.00    +0.000 NA
ENDROOT
BRANCH   1   7
ATOM      6  N   UNL     1       2.344   7.434  19.159  0.00  0.00    +0.000 N 
ATOM      7  C   UNL     1       2.049   6.470  20.134  0.00  0.00    +0.000 C 
ATOM      8  O   UNL     1       1.167   6.630  20.979  0.00  0.00    +0.000 OA
ATOM      9  H   UNL     1       3.171   7.314  18.573  0.00  0.00    +0.000 HD
BRANCH   6  10
ATOM     10  N   UNL     1       1.636   8.653  19.124  0.00  0.00    +0.000 NA
ATOM     11  H   UNL     1       1.829   9.140  18.247  0.00  0.00    +0.000 HD
ATOM     12  H   UNL     1       2.009   9.256  19.869  0.00  0.00    +0.000 HD
ENDBRANCH   6  10
ENDBRANCH   1   7
BRANCH   5  13
ATOM     13  S   UNL     1       4.495   3.843  18.369  0.00  0.00    +0.000 S 
ATOM     14  O   UNL     1       4.906   3.143  19.568  0.00  0.00    +0.000 OA
ATOM     15  O   UNL     1       4.345   3.153  17.108  0.00  0.00    +0.000 OA
BRANCH  13  16
ATOM     16  C   UNL     1       5.661   5.166  18.134  0.00  0.00    +0.000 A 
ATOM     17  C   UNL     1       5.342   6.223  17.275  0.00  0.00    +0.000 A 
ATOM     18  C   UNL     1       6.225   7.298  17.146  0.00  0.00    +0.000 A 
ATOM     19  C   UNL     1       7.415   7.316  17.876  0.00  0.00    +0.000 A 
ATOM     20 CL   UNL     1       8.494   8.648  17.722  0.00  0.00    +0.000 Cl
ATOM     21  C   UNL     1       7.731   6.264  18.737  0.00  0.00    +0.000 A 
ATOM     22  C   UNL     1       6.855   5.185  18.868  0.00  0.00    +0.000 A 
ENDBRANCH  13  16
ENDBRANCH   5  13
TORSDOF 4
ENDMDL
MODEL 8
REMARK VINA RESULT:      -6.4      2.989      4.206
REMARK  Name = 
REMARK  4 active torsions:
REMARK  status: ('A' for Active; 'I' for Inactive)
REMARK    1  A    between atoms: N_1  and  N_2
REMARK    2  A    between atoms: C_3  and  C_5
REMARK    3  A    between atoms: N_9  and  S_10
REMARK    4  A    between atoms: S_10  and  C_13
REMARK                            x       y       z     vdW  Elec       q    Type
REMARK                         _______ _______ _______ _____ _____    ______ ____
ROOT
ATOM      1  C   UNL     1       3.185   2.635  19.629  0.00  0.00    +0.000 C 
ATOM      2  S   UNL     1       1.390   2.347  19.741  0.00  0.00    +0.000 S 
ATOM      3  C   UNL     1       1.104   3.934  20.548  0.00  0.00    +0.000 C 
ATOM      4  C   UNL     1       2.358   4.794  20.361  0.00  0.00    +0.000 C 
ATOM      5  N   UNL     1       3.343   4.105  19.479  0.00  0.00    +0.000 NA
ENDROOT
BRANCH   1   7
ATOM      6  N   UNL     1       5.126   1.628  20.770  0.00  0.00    +0.000 N 
ATOM      7  C   UNL     1       3.815   2.098  20.939  0.00  0.00    +0.000 C 
ATOM      8  O   UNL     1       3.227   2.043  22.020  0.00  0.00    +0.000 OA
ATOM      9  H   UNL     1       5.516   1.569  19.828  0.00  0.00    +0.000 HD
BRANCH   6  10
ATOM     10  N   UNL     1       5.823   1.050  21.851  0.00  0.00    +0.000 NA
ATOM     11  H   UNL     1       5.766   0.032  21.793  0.00  0.00    +0.000 HD
ATOM     12  H   UNL     1       5.334   1.311  22.717  0.00  0.00    +0.000 HD
ENDBRANCH   6  10
ENDBRANCH   1   7
BRANCH   5  13
ATOM     13  S   UNL     1       3.396   4.617  17.861  0.00  0.00    +0.000 S 
ATOM     14  O   UNL     1       3.659   3.458  17.034  0.00  0.00    +0.000 OA
ATOM     15  O   UNL     1       2.246   5.461  17.631  0.00  0.00    +0.000 OA
BRANCH  13  16
ATOM     16  C   UNL     1       4.851   5.637  17.776  0.00  0.00    +0.000 A 
ATOM     17  C   UNL     1       4.833   6.801  17.001  0.00  0.00    +0.000 A 
ATOM     18  C   UNL     1       5.950   7.642  16.992  0.00  0.00    +0.000 A 
ATOM     19  C   UNL     1       7.072   7.319  17.758  0.00  0.00    +0.000 A 
ATOM     20 CL   UNL     1       8.440   8.364  17.752  0.00  0.00    +0.000 Cl
ATOM     21  C   UNL     1       7.088   6.161  18.536  0.00  0.00    +0.000 A 
ATOM     22  C   UNL     1       5.977   5.316  18.546  0.00  0.00    +0.000 A 
ENDBRANCH  13  16
ENDBRANCH   5  13
TORSDOF 4
ENDMDL
MODEL 9
REMARK VINA RESULT:      -6.4      3.754      6.370
REMARK  Name = 
REMARK  4 active torsions:
REMARK  status: ('A' for Active; 'I' for Inactive)
REMARK    1  A    between atoms: N_1  and  N_2
REMARK    2  A    between atoms: C_3  and  C_5
REMARK    3  A    between atoms: N_9  and  S_10
REMARK    4  A    between atoms: S_10  and  C_13
REMARK                            x       y       z     vdW  Elec       q    Type
REMARK                         _______ _______ _______ _____ _____    ______ ____
ROOT
ATOM      1  C   UNL     1       6.119   4.422  16.628  0.00  0.00    +0.000 C 
ATOM      2  S   UNL     1       7.500   4.751  17.769  0.00  0.00    +0.000 S 
ATOM      3  C   UNL     1       7.188   6.527  17.765  0.00  0.00    +0.000 C 
ATOM      4  C   UNL     1       5.792   6.762  17.179  0.00  0.00    +0.000 C 
ATOM      5  N   UNL     1       5.102   5.465  16.926  0.00  0.00    +0.000 NA
ENDROOT
BRANCH   1   7
ATOM      6  N   UNL     1       6.123   3.598  14.304  0.00  0.00    +0.000 N 
ATOM      7  C   UNL     1       6.682   4.532  15.188  0.00  0.00    +0.000 C 
ATOM      8  O   UNL     1       7.561   5.325  14.845  0.00  0.00    +0.000 OA
ATOM      9  H   UNL     1       5.502   2.875  14.670  0.00  0.00    +0.000 HD
BRANCH   6  10
ATOM     10  N   UNL     1       6.569   3.522  12.968  0.00  0.00    +0.000 NA
ATOM     11  H   UNL     1       7.411   4.088  12.853  0.00  0.00    +0.000 HD
ATOM     12  H   UNL     1       5.853   3.956  12.371  0.00  0.00    +0.000 HD
ENDBRANCH   6  10
ENDBRANCH   1   7
BRANCH   5  13
ATOM     13  S   UNL     1       3.957   4.980  18.080  0.00  0.00    +0.000 S 
ATOM     14  O   UNL     1       2.991   4.125  17.421  0.00  0.00    +0.000 OA
ATOM     15  O   UNL     1       4.677   4.537  19.253  0.00  0.00    +0.000 OA
BRANCH  13  16
ATOM     16  C   UNL     1       3.099   6.481  18.499  0.00  0.00    +0.000 A 
ATOM     17  C   UNL     1       2.877   7.447  17.513  0.00  0.00    +0.000 A 
ATOM     18  C   UNL     1       2.140   8.594  17.823  0.00  0.00    +0.000 A 
ATOM     19  C   UNL     1       1.625   8.766  19.110  0.00  0.00    +0.000 A 
ATOM     20 CL   UNL     1       0.708  10.174  19.482  0.00  0.00    +0.000 Cl
ATOM     21  C   UNL     1       1.842   7.799  20.093  0.00  0.00    +0.000 A 
ATOM     22  C   UNL     1       2.580   6.654  19.790  0.00  0.00    +0.000 A 
ENDBRANCH  13  16
ENDBRANCH   5  13
TORSDOF 4
ENDMDL
