MODEL 1
REMARK VINA RESULT:      -6.8      0.000      0.000
REMARK  Name = 
REMARK  4 active torsions:
REMARK  status: ('A' for Active; 'I' for Inactive)
REMARK    1  A    between atoms: C_1  and  C_2
REMARK    2  A    between atoms: C_5  and  N_6
REMARK    3  A    between atoms: C_7  and  S_8
REMARK    4  A    between atoms: N_9  and  N_10
REMARK                            x       y       z     vdW  Elec       q    Type
REMARK                         _______ _______ _______ _____ _____    ______ ____
ROOT
ATOM      1  N   UNL     1       5.245   3.755  17.766  0.00  0.00    +0.000 N 
ATOM      2  C   UNL     1       4.223   3.350  18.585  0.00  0.00    +0.000 C 
ATOM      3  N   UNL     1       3.705   4.060  19.539  0.00  0.00    +0.000 NA
ATOM      4  H   UNL     1       5.394   3.175  16.952  0.00  0.00    +0.000 HD
ENDROOT
BRANCH   1   9
ATOM      5  C   UNL     1       8.205   8.666  17.862  0.00  0.00    +0.000 C 
ATOM      6  C   UNL     1       7.457   7.367  17.849  0.00  0.00    +0.000 A 
ATOM      7  C   UNL     1       7.864   6.286  18.636  0.00  0.00    +0.000 A 
ATOM      8  C   UNL     1       7.146   5.081  18.620  0.00  0.00    +0.000 A 
ATOM      9  C   UNL     1       6.023   4.923  17.805  0.00  0.00    +0.000 A 
ATOM     10  C   UNL     1       5.624   6.015  17.018  0.00  0.00    +0.000 A 
ATOM     11  C   UNL     1       6.330   7.223  17.039  0.00  0.00    +0.000 A 
ENDBRANCH   1   9
BRANCH   3  12
ATOM     12  N   UNL     1       2.708   3.594  20.334  0.00  0.00    +0.000 N 
ATOM     13  C   UNL     1       1.342   3.597  20.193  0.00  0.00    +0.000 A 
ATOM     14  N   UNL     1       0.771   2.952  21.184  0.00  0.00    +0.000 NA
ATOM     15  N   UNL     1       1.772   2.436  21.970  0.00  0.00    +0.000 NA
ATOM     16  C   UNL     1       2.915   2.793  21.429  0.00  0.00    +0.000 A 
ENDBRANCH   3  12
BRANCH   2  17
ATOM     17  S   UNL     1       3.657   1.767  18.053  0.00  0.00    +0.000 S 
ATOM     18  H   UNL     1       2.369   1.968  18.368  0.00  0.00    +0.000 HD
ENDBRANCH   2  17
TORSDOF 3
ENDMDL
MODEL 2
REMARK VINA RESULT:      -6.6      0.090      1.204
REMARK  Name = 
REMARK  4 active torsions:
REMARK  status: ('A' for Active; 'I' for Inactive)
REMARK    1  A    between atoms: C_1  and  C_2
REMARK    2  A    between atoms: C_5  and  N_6
REMARK    3  A    between atoms: C_7  and  S_8
REMARK    4  A    between atoms: N_9  and  N_10
REMARK                            x       y       z     vdW  Elec       q    Type
REMARK                         _______ _______ _______ _____ _____    ______ ____
ROOT
ATOM      1  N   UNL     1       5.206   3.810  17.794  0.00  0.00    +0.000 N 
ATOM      2  C   UNL     1       4.199   3.370  18.613  0.00  0.00    +0.000 C 
ATOM      3  N   UNL     1       3.622   4.079  19.533  0.00  0.00    +0.000 NA
ATOM      4  H   UNL     1       5.405   3.211  17.003  0.00  0.00    +0.000 HD
ENDROOT
BRANCH   1   9
ATOM      5  C   UNL     1       8.295   8.640  17.885  0.00  0.00    +0.000 C 
ATOM      6  C   UNL     1       7.463   7.394  17.849  0.00  0.00    +0.000 A 
ATOM      7  C   UNL     1       6.334   7.298  17.032  0.00  0.00    +0.000 A 
ATOM      8  C   UNL     1       5.573   6.120  17.001  0.00  0.00    +0.000 A 
ATOM      9  C   UNL     1       5.908   5.025  17.800  0.00  0.00    +0.000 A 
ATOM     10  C   UNL     1       7.044   5.134  18.618  0.00  0.00    +0.000 A 
ATOM     11  C   UNL     1       7.814   6.301  18.643  0.00  0.00    +0.000 A 
ENDBRANCH   1   9
BRANCH   3  12
ATOM     12  N   UNL     1       2.643   3.580  20.330  0.00  0.00    +0.000 N 
ATOM     13  C   UNL     1       1.281   3.506  20.179  0.00  0.00    +0.000 A 
ATOM     14  N   UNL     1       0.736   2.855  21.181  0.00  0.00    +0.000 NA
ATOM     15  N   UNL     1       1.755   2.414  21.987  0.00  0.00    +0.000 NA
ATOM     16  C   UNL     1       2.883   2.818  21.447  0.00  0.00    +0.000 A 
ENDBRANCH   3  12
BRANCH   2  17
ATOM     17  S   UNL     1       3.743   1.736  18.132  0.00  0.00    +0.000 S 
ATOM     18  H   UNL     1       4.503   1.107  19.040  0.00  0.00    +0.000 HD
ENDBRANCH   2  17
TORSDOF 3
ENDMDL
MODEL 3
REMARK VINA RESULT:      -6.1      3.665      5.685
REMARK  Name = 
REMARK  4 active torsions:
REMARK  status: ('A' for Active; 'I' for Inactive)
REMARK    1  A    between atoms: C_1  and  C_2
REMARK    2  A    between atoms: C_5  and  N_6
REMARK    3  A    between atoms: C_7  and  S_8
REMARK    4  A    between atoms: N_9  and  N_10
REMARK                            x       y       z     vdW  Elec       q    Type
REMARK                         _______ _______ _______ _____ _____    ______ ____
ROOT
ATOM      1  N   UNL     1       2.602   5.501  18.390  0.00  0.00    +0.000 N 
ATOM      2  C   UNL     1       3.789   5.029  17.891  0.00  0.00    +0.000 C 
ATOM      3  N   UNL     1       4.868   5.733  17.741  0.00  0.00    +0.000 NA
ATOM      4  H   UNL     1       1.927   4.789  18.632  0.00  0.00    +0.000 HD
ENDROOT
BRANCH   1   9
ATOM      5  C   UNL     1       0.975  10.865  19.601  0.00  0.00    +0.000 C 
ATOM      6  C   UNL     1       1.408   9.459  19.315  0.00  0.00    +0.000 A 
ATOM      7  C   UNL     1       1.526   8.513  20.337  0.00  0.00    +0.000 A 
ATOM      8  C   UNL     1       1.922   7.198  20.051  0.00  0.00    +0.000 A 
ATOM      9  C   UNL     1       2.230   6.807  18.746  0.00  0.00    +0.000 A 
ATOM     10  C   UNL     1       2.108   7.766  17.728  0.00  0.00    +0.000 A 
ATOM     11  C   UNL     1       1.703   9.075  18.006  0.00  0.00    +0.000 A 
ENDBRANCH   1   9
BRANCH   3  12
ATOM     12  N   UNL     1       6.008   5.213  17.218  0.00  0.00    +0.000 N 
ATOM     13  C   UNL     1       6.513   5.202  15.942  0.00  0.00    +0.000 A 
ATOM     14  N   UNL     1       7.706   4.652  15.918  0.00  0.00    +0.000 NA
ATOM     15  N   UNL     1       8.046   4.354  17.214  0.00  0.00    +0.000 NA
ATOM     16  C   UNL     1       7.045   4.730  17.977  0.00  0.00    +0.000 A 
ENDBRANCH   3  12
BRANCH   2  17
ATOM     17  S   UNL     1       3.639   3.295  17.605  0.00  0.00    +0.000 S 
ATOM     18  H   UNL     1       2.502   3.139  18.298  0.00  0.00    +0.000 HD
ENDBRANCH   2  17
TORSDOF 3
ENDMDL
MODEL 4
REMARK VINA RESULT:      -6.0      3.611      5.737
REMARK  Name = 
REMARK  4 active torsions:
REMARK  status: ('A' for Active; 'I' for Inactive)
REMARK    1  A    between atoms: C_1  and  C_2
REMARK    2  A    between atoms: C_5  and  N_6
REMARK    3  A    between atoms: C_7  and  S_8
REMARK    4  A    between atoms: N_9  and  N_10
REMARK                            x       y       z     vdW  Elec       q    Type
REMARK                         _______ _______ _______ _____ _____    ______ ____
ROOT
ATOM      1  N   UNL     1       2.795   5.445  18.907  0.00  0.00    +0.000 N 
ATOM      2  C   UNL     1       3.958   4.965  18.362  0.00  0.00    +0.000 C 
ATOM      3  N   UNL     1       4.913   5.698  17.878  0.00  0.00    +0.000 NA
ATOM      4  H   UNL     1       2.251   4.764  19.419  0.00  0.00    +0.000 HD
ENDROOT
BRANCH   1   9
ATOM      5  C   UNL     1       0.893  10.824  19.484  0.00  0.00    +0.000 C 
ATOM      6  C   UNL     1       1.385   9.420  19.301  0.00  0.00    +0.000 A 
ATOM      7  C   UNL     1       1.812   8.956  18.055  0.00  0.00    +0.000 A 
ATOM      8  C   UNL     1       2.280   7.642  17.904  0.00  0.00    +0.000 A 
ATOM      9  C   UNL     1       2.311   6.760  18.985  0.00  0.00    +0.000 A 
ATOM     10  C   UNL     1       1.879   7.237  20.233  0.00  0.00    +0.000 A 
ATOM     11  C   UNL     1       1.422   8.549  20.392  0.00  0.00    +0.000 A 
ENDBRANCH   1   9
BRANCH   3  12
ATOM     12  N   UNL     1       6.034   5.163  17.329  0.00  0.00    +0.000 N 
ATOM     13  C   UNL     1       6.453   5.044  16.028  0.00  0.00    +0.000 A 
ATOM     14  N   UNL     1       7.659   4.527  15.973  0.00  0.00    +0.000 NA
ATOM     15  N   UNL     1       8.095   4.363  17.264  0.00  0.00    +0.000 NA
ATOM     16  C   UNL     1       7.134   4.783  18.056  0.00  0.00    +0.000 A 
ENDBRANCH   3  12
BRANCH   2  17
ATOM     17  S   UNL     1       3.991   3.211  18.537  0.00  0.00    +0.000 S 
ATOM     18  H   UNL     1       2.805   3.112  19.154  0.00  0.00    +0.000 HD
ENDBRANCH   2  17
TORSDOF 3
ENDMDL
MODEL 5
REMARK VINA RESULT:      -6.0      1.105      1.755
REMARK  Name = 
REMARK  4 active torsions:
REMARK  status: ('A' for Active; 'I' for Inactive)
REMARK    1  A    between atoms: C_1  and  C_2
REMARK    2  A    between atoms: C_5  and  N_6
REMARK    3  A    between atoms: C_7  and  S_8
REMARK    4  A    between atoms: N_9  and  N_10
REMARK                            x       y       z     vdW  Elec       q    Type
REMARK                         _______ _______ _______ _____ _____    ______ ____
ROOT
ATOM      1  N   UNL     1       5.867   3.816  18.849  0.00  0.00    +0.000 N 
ATOM      2  C   UNL     1       4.572   3.415  19.055  0.00  0.00    +0.000 C 
ATOM      3  N   UNL     1       3.524   4.155  18.868  0.00  0.00    +0.000 NA
ATOM      4  H   UNL     1       6.549   3.069  18.843  0.00  0.00    +0.000 HD
ENDROOT
BRANCH   1   9
ATOM      5  C   UNL     1       8.194   8.888  17.529  0.00  0.00    +0.000 C 
ATOM      6  C   UNL     1       7.559   7.571  17.860  0.00  0.00    +0.000 A 
ATOM      7  C   UNL     1       6.416   7.127  17.190  0.00  0.00    +0.000 A 
ATOM      8  C   UNL     1       5.840   5.888  17.505  0.00  0.00    +0.000 A 
ATOM      9  C   UNL     1       6.378   5.078  18.507  0.00  0.00    +0.000 A 
ATOM     10  C   UNL     1       7.526   5.535  19.174  0.00  0.00    +0.000 A 
ATOM     11  C   UNL     1       8.111   6.765  18.856  0.00  0.00    +0.000 A 
ENDBRANCH   1   9
BRANCH   3  12
ATOM     12  N   UNL     1       2.265   3.709  19.112  0.00  0.00    +0.000 N 
ATOM     13  C   UNL     1       1.420   2.902  18.393  0.00  0.00    +0.000 A 
ATOM     14  N   UNL     1       0.317   2.665  19.066  0.00  0.00    +0.000 NA
ATOM     15  N   UNL     1       0.450   3.262  20.295  0.00  0.00    +0.000 NA
ATOM     16  C   UNL     1       1.628   3.843  20.321  0.00  0.00    +0.000 A 
ENDBRANCH   3  12
BRANCH   2  17
ATOM     17  S   UNL     1       4.565   1.708  19.496  0.00  0.00    +0.000 S 
ATOM     18  H   UNL     1       5.897   1.558  19.490  0.00  0.00    +0.000 HD
ENDBRANCH   2  17
TORSDOF 3
ENDMDL
MODEL 6
REMARK VINA RESULT:      -6.0      4.191      6.334
REMARK  Name = 
REMARK  4 active torsions:
REMARK  status: ('A' for Active; 'I' for Inactive)
REMARK    1  A    between atoms: C_1  and  C_2
REMARK    2  A    between atoms: C_5  and  N_6
REMARK    3  A    between atoms: C_7  and  S_8
REMARK    4  A    between atoms: N_9  and  N_10
REMARK                            x       y       z     vdW  Elec       q    Type
REMARK                         _______ _______ _______ _____ _____    ______ ____
ROOT
ATOM      1  N   UNL     1       3.032   6.311  19.212  0.00  0.00    +0.000 N 
ATOM      2  C   UNL     1       4.037   5.898  18.375  0.00  0.00    +0.000 C 
ATOM      3  N   UNL     1       4.537   6.601  17.407  0.00  0.00    +0.000 NA
ATOM      4  H   UNL     1       2.898   5.737  20.033  0.00  0.00    +0.000 HD
ENDROOT
BRANCH   1   9
ATOM      5  C   UNL     1      -0.073  11.130  19.340  0.00  0.00    +0.000 C 
ATOM      6  C   UNL     1       0.734   9.869  19.275  0.00  0.00    +0.000 A 
ATOM      7  C   UNL     1       1.288   9.422  18.073  0.00  0.00    +0.000 A 
ATOM      8  C   UNL     1       2.050   8.245  18.031  0.00  0.00    +0.000 A 
ATOM      9  C   UNL     1       2.256   7.480  19.181  0.00  0.00    +0.000 A 
ATOM     10  C   UNL     1       1.695   7.939  20.383  0.00  0.00    +0.000 A 
ATOM     11  C   UNL     1       0.943   9.118  20.433  0.00  0.00    +0.000 A 
ENDBRANCH   1   9
BRANCH   3  12
ATOM     12  N   UNL     1       5.517   6.127  16.595  0.00  0.00    +0.000 N 
ATOM     13  C   UNL     1       5.484   5.579  15.337  0.00  0.00    +0.000 A 
ATOM     14  N   UNL     1       6.700   5.339  14.902  0.00  0.00    +0.000 NA
ATOM     15  N   UNL     1       7.576   5.804  15.852  0.00  0.00    +0.000 NA
ATOM     16  C   UNL     1       6.858   6.305  16.832  0.00  0.00    +0.000 A 
ENDBRANCH   3  12
BRANCH   2  17
ATOM     17  S   UNL     1       4.610   4.317  18.907  0.00  0.00    +0.000 S 
ATOM     18  H   UNL     1       3.684   4.149  19.860  0.00  0.00    +0.000 HD
ENDBRANCH   2  17
TORSDOF 3
ENDMDL
MODEL 7
REMARK VINA RESULT:      -6.0      4.139      6.197
REMARK  Name = 
REMARK  4 active torsions:
REMARK  status: ('A' for Active; 'I' for Inactive)
REMARK    1  A    between atoms: C_1  and  C_2
REMARK    2  A    between atoms: C_5  and  N_6
REMARK    3  A    between atoms: C_7  and  S_8
REMARK    4  A    between atoms: N_9  and  N_10
REMARK                            x       y       z     vdW  Elec       q    Type
REMARK                         _______ _______ _______ _____ _____    ______ ____
ROOT
ATOM      1  N   UNL     1       2.937   6.163  19.054  0.00  0.00    +0.000 N 
ATOM      2  C   UNL     1       3.939   5.762  18.209  0.00  0.00    +0.000 C 
ATOM      3  N   UNL     1       4.549   6.528  17.358  0.00  0.00    +0.000 NA
ATOM      4  H   UNL     1       2.710   5.507  19.789  0.00  0.00    +0.000 HD
ENDROOT
BRANCH   1   9
ATOM      5  C   UNL     1       0.152  11.174  19.167  0.00  0.00    +0.000 C 
ATOM      6  C   UNL     1       0.884   9.866  19.169  0.00  0.00    +0.000 A 
ATOM      7  C   UNL     1       1.038   9.122  20.341  0.00  0.00    +0.000 A 
ATOM      8  C   UNL     1       1.716   7.894  20.324  0.00  0.00    +0.000 A 
ATOM      9  C   UNL     1       2.273   7.396  19.144  0.00  0.00    +0.000 A 
ATOM     10  C   UNL     1       2.113   8.154  17.973  0.00  0.00    +0.000 A 
ATOM     11  C   UNL     1       1.427   9.373  17.982  0.00  0.00    +0.000 A 
ENDBRANCH   1   9
BRANCH   3  12
ATOM     12  N   UNL     1       5.521   6.066  16.530  0.00  0.00    +0.000 N 
ATOM     13  C   UNL     1       5.481   5.586  15.244  0.00  0.00    +0.000 A 
ATOM     14  N   UNL     1       6.693   5.330  14.806  0.00  0.00    +0.000 NA
ATOM     15  N   UNL     1       7.574   5.716  15.785  0.00  0.00    +0.000 NA
ATOM     16  C   UNL     1       6.864   6.188  16.785  0.00  0.00    +0.000 A 
ENDBRANCH   3  12
BRANCH   2  17
ATOM     17  S   UNL     1       4.339   4.079  18.554  0.00  0.00    +0.000 S 
ATOM     18  H   UNL     1       5.020   4.328  19.681  0.00  0.00    +0.000 HD
ENDBRANCH   2  17
TORSDOF 3
ENDMDL
MODEL 8
REMARK VINA RESULT:      -6.0      2.605      6.371
REMARK  Name = 
REMARK  4 active torsions:
REMARK  status: ('A' for Active; 'I' for Inactive)
REMARK    1  A    between atoms: C_1  and  C_2
REMARK    2  A    between atoms: C_5  and  N_6
REMARK    3  A    between atoms: C_7  and  S_8
REMARK    4  A    between atoms: N_9  and  N_10
REMARK                            x       y       z     vdW  Elec       q    Type
REMARK                         _______ _______ _______ _____ _____    ______ ____
ROOT
ATOM      1  N   UNL     1       4.653   3.386  17.482  0.00  0.00    +0.000 N 
ATOM      2  C   UNL     1       5.548   4.413  17.319  0.00  0.00    +0.000 C 
ATOM      3  N   UNL     1       5.784   5.342  18.192  0.00  0.00    +0.000 NA
ATOM      4  H   UNL     1       4.733   2.639  16.806  0.00  0.00    +0.000 HD
ENDROOT
BRANCH   1   9
ATOM      5  C   UNL     1       1.112   2.440  21.893  0.00  0.00    +0.000 C 
ATOM      6  C   UNL     1       2.013   2.686  20.720  0.00  0.00    +0.000 A 
ATOM      7  C   UNL     1       1.510   3.158  19.505  0.00  0.00    +0.000 A 
ATOM      8  C   UNL     1       2.368   3.394  18.420  0.00  0.00    +0.000 A 
ATOM      9  C   UNL     1       3.738   3.143  18.519  0.00  0.00    +0.000 A 
ATOM     10  C   UNL     1       4.232   2.668  19.744  0.00  0.00    +0.000 A 
ATOM     11  C   UNL     1       3.382   2.443  20.832  0.00  0.00    +0.000 A 
ENDBRANCH   1   9
BRANCH   3  12
ATOM     12  N   UNL     1       6.667   6.348  17.964  0.00  0.00    +0.000 N 
ATOM     13  C   UNL     1       6.610   7.455  17.155  0.00  0.00    +0.000 A 
ATOM     14  N   UNL     1       7.674   8.208  17.320  0.00  0.00    +0.000 NA
ATOM     15  N   UNL     1       8.429   7.638  18.314  0.00  0.00    +0.000 NA
ATOM     16  C   UNL     1       7.797   6.557  18.714  0.00  0.00    +0.000 A 
ENDBRANCH   3  12
BRANCH   2  17
ATOM     17  S   UNL     1       6.401   4.190  15.792  0.00  0.00    +0.000 S 
ATOM     18  H   UNL     1       6.078   5.385  15.278  0.00  0.00    +0.000 HD
ENDBRANCH   2  17
TORSDOF 3
ENDMDL
MODEL 9
REMARK VINA RESULT:      -5.9      1.093      1.228
REMARK  Name = 
REMARK  4 active torsions:
REMARK  status: ('A' for Active; 'I' for Inactive)
REMARK    1  A    between atoms: C_1  and  C_2
REMARK    2  A    between atoms: C_5  and  N_6
REMARK    3  A    between atoms: C_7  and  S_8
REMARK    4  A    between atoms: N_9  and  N_10
REMARK                            x       y       z     vdW  Elec       q    Type
REMARK                         _______ _______ _______ _____ _____    ______ ____
ROOT
ATOM      1  N   UNL     1       6.044   3.889  18.846  0.00  0.00    +0.000 N 
ATOM      2  C   UNL     1       4.737   3.574  19.120  0.00  0.00    +0.000 C 
ATOM      3  N   UNL     1       3.741   4.401  19.050  0.00  0.00    +0.000 NA
ATOM      4  H   UNL     1       6.662   3.095  18.749  0.00  0.00    +0.000 HD
ENDROOT
BRANCH   1   9
ATOM      5  C   UNL     1       8.193   9.038  17.522  0.00  0.00    +0.000 C 
ATOM      6  C   UNL     1       7.659   7.684  17.883  0.00  0.00    +0.000 A 
ATOM      7  C   UNL     1       8.238   6.922  18.901  0.00  0.00    +0.000 A 
ATOM      8  C   UNL     1       7.719   5.662  19.233  0.00  0.00    +0.000 A 
ATOM      9  C   UNL     1       6.628   5.128  18.543  0.00  0.00    +0.000 A 
ATOM     10  C   UNL     1       6.055   5.903  17.522  0.00  0.00    +0.000 A 
ATOM     11  C   UNL     1       6.562   7.165  17.194  0.00  0.00    +0.000 A 
ENDBRANCH   1   9
BRANCH   3  12
ATOM     12  N   UNL     1       2.469   4.036  19.357  0.00  0.00    +0.000 N 
ATOM     13  C   UNL     1       1.516   3.344  18.652  0.00  0.00    +0.000 A 
ATOM     14  N   UNL     1       0.445   3.147  19.387  0.00  0.00    +0.000 NA
ATOM     15  N   UNL     1       0.708   3.649  20.638  0.00  0.00    +0.000 NA
ATOM     16  C   UNL     1       1.928   4.136  20.615  0.00  0.00    +0.000 A 
ENDBRANCH   3  12
BRANCH   2  17
ATOM     17  S   UNL     1       4.624   1.848  19.460  0.00  0.00    +0.000 S 
ATOM     18  H   UNL     1       5.804   1.522  18.913  0.00  0.00    +0.000 HD
ENDBRANCH   2  17
TORSDOF 3
ENDMDL
