MODEL 1
REMARK VINA RESULT:      -7.9      0.000      0.000
REMARK  Name = 
REMARK  11 active torsions:
REMARK  status: ('A' for Active; 'I' for Inactive)
REMARK    1  A    between atoms: C_1  and  C_2
REMARK    2  A    between atoms: C_2  and  O_3
REMARK    3  A    between atoms: O_3  and  C_4
REMARK    4  A    between atoms: C_4  and  C_5
REMARK    5  A    between atoms: C_4  and  C_25
REMARK    6  A    between atoms: C_5  and  C_6
REMARK    7  A    between atoms: C_10  and  C_11
REMARK    8  A    between atoms: C_14  and  C_15
REMARK    9  A    between atoms: C_18  and  O_19
REMARK   10  A    between atoms: O_19  and  C_20
REMARK   11  A    between atoms: C_25  and  O_27
REMARK                            x       y       z     vdW  Elec       q    Type
REMARK                         _______ _______ _______ _____ _____    ______ ____
ROOT
ATOM      1  C   UNL     1       4.177   4.796  18.287  0.00  0.00    +0.000 A 
ATOM      2  C   UNL     1       3.622   4.135  19.392  0.00  0.00    +0.000 A 
ATOM      3  C   UNL     1       2.737   4.779  20.250  0.00  0.00    +0.000 A 
ATOM      4  C   UNL     1       2.350   6.088  19.992  0.00  0.00    +0.000 A 
ATOM      5  C   UNL     1       2.828   6.745  18.855  0.00  0.00    +0.000 A 
ATOM      6  C   UNL     1       3.742   6.103  18.010  0.00  0.00    +0.000 A 
ENDROOT
BRANCH   5   7
ATOM      7  C   UNL     1       2.337   8.100  18.518  0.00  0.00    +0.000 C 
ATOM      8  N   UNL     1       2.594   8.699  17.402  0.00  0.00    +0.000 NA
ATOM      9  O   UNL     1       1.904   9.934  17.408  0.00  0.00    +0.000 OA
ATOM     10  C   UNL     1       1.302  10.135  18.696  0.00  0.00    +0.000 C 
ATOM     11  C   UNL     1       1.457   8.841  19.456  0.00  0.00    +0.000 C 
BRANCH  10  12
ATOM     12  C   UNL     1      -0.154  10.535  18.578  0.00  0.00    +0.000 A 
ATOM     13  C   UNL     1      -0.711  11.518  19.408  0.00  0.00    +0.000 A 
ATOM     14  C   UNL     1      -2.052  11.885  19.272  0.00  0.00    +0.000 A 
ATOM     15  C   UNL     1      -2.851  11.302  18.290  0.00  0.00    +0.000 A 
ATOM     16  C   UNL     1      -2.306  10.333  17.449  0.00  0.00    +0.000 A 
ATOM     17  C   UNL     1      -0.964   9.957  17.589  0.00  0.00    +0.000 A 
BRANCH  15  18
ATOM     18  O   UNL     1      -4.151  11.726  18.274  0.00  0.00    +0.000 OA
ATOM     19  C   UNL     1      -4.996  11.102  17.316  0.00  0.00    +0.000 C 
ENDBRANCH  15  18
ENDBRANCH  10  12
ENDBRANCH   5   7
BRANCH   1  20
ATOM     20  C   UNL     1       5.195   4.152  17.363  0.00  0.00    +0.000 C 
BRANCH  20  21
ATOM     21  C   UNL     1       6.310   5.058  16.802  0.00  0.00    +0.000 C 
BRANCH  21  22
ATOM     22  C   UNL     1       7.469   5.113  17.807  0.00  0.00    +0.000 C 
ATOM     23  O   UNL     1       7.646   6.006  18.621  0.00  0.00    +0.000 OA
BRANCH  22  24
ATOM     24  O   UNL     1       8.298   4.042  17.693  0.00  0.00    +0.000 OA
ATOM     25  H   UNL     1       8.138   3.458  18.468  0.00  0.00    +0.000 HD
ENDBRANCH  22  24
ENDBRANCH  21  22
BRANCH  21  26
ATOM     26  O   UNL     1       6.833   4.655  15.516  0.00  0.00    +0.000 OA
BRANCH  26  28
ATOM     27  C   UNL     1       6.222   3.815  13.359  0.00  0.00    +0.000 C 
ATOM     28  C   UNL     1       5.909   4.832  14.440  0.00  0.00    +0.000 C 
ENDBRANCH  26  28
ENDBRANCH  21  26
ENDBRANCH  20  21
ENDBRANCH   1  20
TORSDOF 9
ENDMDL
MODEL 2
REMARK VINA RESULT:      -7.8      2.576      3.868
REMARK  Name = 
REMARK  11 active torsions:
REMARK  status: ('A' for Active; 'I' for Inactive)
REMARK    1  A    between atoms: C_1  and  C_2
REMARK    2  A    between atoms: C_2  and  O_3
REMARK    3  A    between atoms: O_3  and  C_4
REMARK    4  A    between atoms: C_4  and  C_5
REMARK    5  A    between atoms: C_4  and  C_25
REMARK    6  A    between atoms: C_5  and  C_6
REMARK    7  A    between atoms: C_10  and  C_11
REMARK    8  A    between atoms: C_14  and  C_15
REMARK    9  A    between atoms: C_18  and  O_19
REMARK   10  A    between atoms: O_19  and  C_20
REMARK   11  A    between atoms: C_25  and  O_27
REMARK                            x       y       z     vdW  Elec       q    Type
REMARK                         _______ _______ _______ _____ _____    ______ ____
ROOT
ATOM      1  C   UNL     1       4.127   6.302  17.301  0.00  0.00    +0.000 A 
ATOM      2  C   UNL     1       3.878   5.096  17.972  0.00  0.00    +0.000 A 
ATOM      3  C   UNL     1       3.004   5.036  19.052  0.00  0.00    +0.000 A 
ATOM      4  C   UNL     1       2.320   6.177  19.454  0.00  0.00    +0.000 A 
ATOM      5  C   UNL     1       2.490   7.375  18.754  0.00  0.00    +0.000 A 
ATOM      6  C   UNL     1       3.394   7.437  17.686  0.00  0.00    +0.000 A 
ENDROOT
BRANCH   5   7
ATOM      7  C   UNL     1       1.686   8.564  19.111  0.00  0.00    +0.000 C 
ATOM      8  N   UNL     1       1.276   8.820  20.310  0.00  0.00    +0.000 NA
ATOM      9  O   UNL     1       0.606  10.064  20.279  0.00  0.00    +0.000 OA
ATOM     10  C   UNL     1       0.494  10.511  18.918  0.00  0.00    +0.000 C 
ATOM     11  C   UNL     1       1.338   9.579  18.085  0.00  0.00    +0.000 C 
BRANCH  10  12
ATOM     12  C   UNL     1       0.940  11.950  18.761  0.00  0.00    +0.000 A 
ATOM     13  C   UNL     1       0.065  13.016  19.008  0.00  0.00    +0.000 A 
ATOM     14  C   UNL     1       0.501  14.337  18.875  0.00  0.00    +0.000 A 
ATOM     15  C   UNL     1       1.820  14.616  18.522  0.00  0.00    +0.000 A 
ATOM     16  C   UNL     1       2.704  13.564  18.287  0.00  0.00    +0.000 A 
ATOM     17  C   UNL     1       2.268  12.239  18.412  0.00  0.00    +0.000 A 
BRANCH  15  18
ATOM     18  O   UNL     1       2.117  15.946  18.399  0.00  0.00    +0.000 OA
ATOM     19  C   UNL     1       3.323  16.251  17.710  0.00  0.00    +0.000 C 
ENDBRANCH  15  18
ENDBRANCH  10  12
ENDBRANCH   5   7
BRANCH   1  20
ATOM     20  C   UNL     1       5.121   6.425  16.160  0.00  0.00    +0.000 C 
BRANCH  20  21
ATOM     21  C   UNL     1       6.513   5.793  16.367  0.00  0.00    +0.000 C 
BRANCH  21  22
ATOM     22  C   UNL     1       6.824   4.861  15.188  0.00  0.00    +0.000 C 
ATOM     23  O   UNL     1       6.329   3.756  15.021  0.00  0.00    +0.000 OA
BRANCH  22  24
ATOM     24  O   UNL     1       7.727   5.403  14.329  0.00  0.00    +0.000 OA
ATOM     25  H   UNL     1       8.625   5.238  14.698  0.00  0.00    +0.000 HD
ENDBRANCH  22  24
ENDBRANCH  21  22
BRANCH  21  26
ATOM     26  O   UNL     1       7.597   6.739  16.504  0.00  0.00    +0.000 OA
BRANCH  26  28
ATOM     27  C   UNL     1       7.703   6.089  18.807  0.00  0.00    +0.000 C 
ATOM     28  C   UNL     1       7.748   7.249  17.831  0.00  0.00    +0.000 C 
ENDBRANCH  26  28
ENDBRANCH  21  26
ENDBRANCH  20  21
ENDBRANCH   1  20
TORSDOF 9
ENDMDL
MODEL 3
REMARK VINA RESULT:      -7.6      1.771      2.476
REMARK  Name = 
REMARK  11 active torsions:
REMARK  status: ('A' for Active; 'I' for Inactive)
REMARK    1  A    between atoms: C_1  and  C_2
REMARK    2  A    between atoms: C_2  and  O_3
REMARK    3  A    between atoms: O_3  and  C_4
REMARK    4  A    between atoms: C_4  and  C_5
REMARK    5  A    between atoms: C_4  and  C_25
REMARK    6  A    between atoms: C_5  and  C_6
REMARK    7  A    between atoms: C_10  and  C_11
REMARK    8  A    between atoms: C_14  and  C_15
REMARK    9  A    between atoms: C_18  and  O_19
REMARK   10  A    between atoms: O_19  and  C_20
REMARK   11  A    between atoms: C_25  and  O_27
REMARK                            x       y       z     vdW  Elec       q    Type
REMARK                         _______ _______ _______ _____ _____    ______ ____
ROOT
ATOM      1  C   UNL     1       3.714   4.642  19.400  0.00  0.00    +0.000 A 
ATOM      2  C   UNL     1       2.959   4.122  20.461  0.00  0.00    +0.000 A 
ATOM      3  C   UNL     1       1.983   4.884  21.095  0.00  0.00    +0.000 A 
ATOM      4  C   UNL     1       1.708   6.169  20.648  0.00  0.00    +0.000 A 
ATOM      5  C   UNL     1       2.392   6.684  19.543  0.00  0.00    +0.000 A 
ATOM      6  C   UNL     1       3.394   5.925  18.926  0.00  0.00    +0.000 A 
ENDROOT
BRANCH   5   7
ATOM      7  C   UNL     1       2.028   8.011  18.996  0.00  0.00    +0.000 C 
ATOM      8  N   UNL     1       2.371   8.420  17.819  0.00  0.00    +0.000 NA
ATOM      9  O   UNL     1       1.788   9.693  17.620  0.00  0.00    +0.000 OA
ATOM     10  C   UNL     1       1.164  10.126  18.839  0.00  0.00    +0.000 C 
ATOM     11  C   UNL     1       1.184   8.948  19.781  0.00  0.00    +0.000 C 
BRANCH  10  12
ATOM     12  C   UNL     1      -0.249  10.619  18.602  0.00  0.00    +0.000 A 
ATOM     13  C   UNL     1      -1.080  10.017  17.648  0.00  0.00    +0.000 A 
ATOM     14  C   UNL     1      -2.387  10.475  17.456  0.00  0.00    +0.000 A 
ATOM     15  C   UNL     1      -2.894  11.517  18.231  0.00  0.00    +0.000 A 
ATOM     16  C   UNL     1      -2.082  12.114  19.194  0.00  0.00    +0.000 A 
ATOM     17  C   UNL     1      -0.769  11.662  19.382  0.00  0.00    +0.000 A 
BRANCH  15  18
ATOM     18  O   UNL     1      -4.176  11.890  17.931  0.00  0.00    +0.000 OA
ATOM     19  C   UNL     1      -4.688  11.411  16.695  0.00  0.00    +0.000 C 
ENDBRANCH  15  18
ENDBRANCH  10  12
ENDBRANCH   5   7
BRANCH   1  20
ATOM     20  C   UNL     1       4.831   3.869  18.722  0.00  0.00    +0.000 C 
BRANCH  20  21
ATOM     21  C   UNL     1       4.506   3.199  17.371  0.00  0.00    +0.000 C 
BRANCH  21  22
ATOM     22  C   UNL     1       3.104   2.578  17.441  0.00  0.00    +0.000 C 
ATOM     23  O   UNL     1       2.096   3.071  16.958  0.00  0.00    +0.000 OA
BRANCH  22  24
ATOM     24  O   UNL     1       3.099   1.397  18.112  0.00  0.00    +0.000 OA
ATOM     25  H   UNL     1       2.742   0.710  17.504  0.00  0.00    +0.000 HD
ENDBRANCH  22  24
ENDBRANCH  21  22
BRANCH  21  26
ATOM     26  O   UNL     1       4.563   4.078  16.225  0.00  0.00    +0.000 OA
BRANCH  26  28
ATOM     27  C   UNL     1       5.217   6.335  15.764  0.00  0.00    +0.000 C 
ATOM     28  C   UNL     1       5.678   4.972  16.243  0.00  0.00    +0.000 C 
ENDBRANCH  26  28
ENDBRANCH  21  26
ENDBRANCH  20  21
ENDBRANCH   1  20
TORSDOF 9
ENDMDL
MODEL 4
REMARK VINA RESULT:      -7.6      0.584      1.085
REMARK  Name = 
REMARK  11 active torsions:
REMARK  status: ('A' for Active; 'I' for Inactive)
REMARK    1  A    between atoms: C_1  and  C_2
REMARK    2  A    between atoms: C_2  and  O_3
REMARK    3  A    between atoms: O_3  and  C_4
REMARK    4  A    between atoms: C_4  and  C_5
REMARK    5  A    between atoms: C_4  and  C_25
REMARK    6  A    between atoms: C_5  and  C_6
REMARK    7  A    between atoms: C_10  and  C_11
REMARK    8  A    between atoms: C_14  and  C_15
REMARK    9  A    between atoms: C_18  and  O_19
REMARK   10  A    between atoms: O_19  and  C_20
REMARK   11  A    between atoms: C_25  and  O_27
REMARK                            x       y       z     vdW  Elec       q    Type
REMARK                         _______ _______ _______ _____ _____    ______ ____
ROOT
ATOM      1  C   UNL     1       3.727   4.820  18.062  0.00  0.00    +0.000 A 
ATOM      2  C   UNL     1       3.368   4.222  19.278  0.00  0.00    +0.000 A 
ATOM      3  C   UNL     1       2.696   4.936  20.265  0.00  0.00    +0.000 A 
ATOM      4  C   UNL     1       2.326   6.255  20.035  0.00  0.00    +0.000 A 
ATOM      5  C   UNL     1       2.603   6.852  18.802  0.00  0.00    +0.000 A 
ATOM      6  C   UNL     1       3.305   6.139  17.823  0.00  0.00    +0.000 A 
ENDROOT
BRANCH   5   7
ATOM      7  C   UNL     1       2.117   8.220  18.514  0.00  0.00    +0.000 C 
ATOM      8  N   UNL     1       2.374   8.857  17.419  0.00  0.00    +0.000 NA
ATOM      9  O   UNL     1       1.690  10.093  17.470  0.00  0.00    +0.000 OA
ATOM     10  C   UNL     1       1.090  10.253  18.765  0.00  0.00    +0.000 C 
ATOM     11  C   UNL     1       1.241   8.932  19.479  0.00  0.00    +0.000 C 
BRANCH  10  12
ATOM     12  C   UNL     1      -0.364  10.662  18.664  0.00  0.00    +0.000 A 
ATOM     13  C   UNL     1      -1.288   9.899  17.937  0.00  0.00    +0.000 A 
ATOM     14  C   UNL     1      -2.629  10.284  17.870  0.00  0.00    +0.000 A 
ATOM     15  C   UNL     1      -3.078  11.416  18.550  0.00  0.00    +0.000 A 
ATOM     16  C   UNL     1      -2.171  12.175  19.289  0.00  0.00    +0.000 A 
ATOM     17  C   UNL     1      -0.824  11.796  19.350  0.00  0.00    +0.000 A 
BRANCH  15  18
ATOM     18  O   UNL     1      -4.405  11.702  18.386  0.00  0.00    +0.000 OA
ATOM     19  C   UNL     1      -4.836  11.903  17.047  0.00  0.00    +0.000 C 
ENDBRANCH  15  18
ENDBRANCH  10  12
ENDBRANCH   5   7
BRANCH   1  20
ATOM     20  C   UNL     1       4.516   4.098  16.985  0.00  0.00    +0.000 C 
BRANCH  20  21
ATOM     21  C   UNL     1       5.815   4.769  16.493  0.00  0.00    +0.000 C 
BRANCH  21  22
ATOM     22  C   UNL     1       6.641   5.219  17.706  0.00  0.00    +0.000 C 
ATOM     23  O   UNL     1       6.831   6.382  18.029  0.00  0.00    +0.000 OA
BRANCH  22  24
ATOM     24  O   UNL     1       7.151   4.167  18.398  0.00  0.00    +0.000 OA
ATOM     25  H   UNL     1       8.076   4.029  18.091  0.00  0.00    +0.000 HD
ENDBRANCH  22  24
ENDBRANCH  21  22
BRANCH  21  26
ATOM     26  O   UNL     1       6.647   3.940  15.650  0.00  0.00    +0.000 OA
BRANCH  26  28
ATOM     27  C   UNL     1       5.981   3.894  13.351  0.00  0.00    +0.000 C 
ATOM     28  C   UNL     1       6.918   4.514  14.370  0.00  0.00    +0.000 C 
ENDBRANCH  26  28
ENDBRANCH  21  26
ENDBRANCH  20  21
ENDBRANCH   1  20
TORSDOF 9
ENDMDL
MODEL 5
REMARK VINA RESULT:      -7.5      0.945      2.243
REMARK  Name = 
REMARK  11 active torsions:
REMARK  status: ('A' for Active; 'I' for Inactive)
REMARK    1  A    between atoms: C_1  and  C_2
REMARK    2  A    between atoms: C_2  and  O_3
REMARK    3  A    between atoms: O_3  and  C_4
REMARK    4  A    between atoms: C_4  and  C_5
REMARK    5  A    between atoms: C_4  and  C_25
REMARK    6  A    between atoms: C_5  and  C_6
REMARK    7  A    between atoms: C_10  and  C_11
REMARK    8  A    between atoms: C_14  and  C_15
REMARK    9  A    between atoms: C_18  and  O_19
REMARK   10  A    between atoms: O_19  and  C_20
REMARK   11  A    between atoms: C_25  and  O_27
REMARK                            x       y       z     vdW  Elec       q    Type
REMARK                         _______ _______ _______ _____ _____    ______ ____
ROOT
ATOM      1  C   UNL     1       3.941   4.713  17.743  0.00  0.00    +0.000 A 
ATOM      2  C   UNL     1       3.547   4.044  18.911  0.00  0.00    +0.000 A 
ATOM      3  C   UNL     1       2.858   4.704  19.924  0.00  0.00    +0.000 A 
ATOM      4  C   UNL     1       2.506   6.038  19.768  0.00  0.00    +0.000 A 
ATOM      5  C   UNL     1       2.817   6.707  18.581  0.00  0.00    +0.000 A 
ATOM      6  C   UNL     1       3.537   6.048  17.576  0.00  0.00    +0.000 A 
ENDROOT
BRANCH   5   7
ATOM      7  C   UNL     1       2.351   8.095  18.366  0.00  0.00    +0.000 C 
ATOM      8  N   UNL     1       2.713   8.827  17.364  0.00  0.00    +0.000 NA
ATOM      9  O   UNL     1       2.016  10.054  17.453  0.00  0.00    +0.000 OA
ATOM     10  C   UNL     1       1.286  10.098  18.690  0.00  0.00    +0.000 C 
ATOM     11  C   UNL     1       1.376   8.719  19.296  0.00  0.00    +0.000 C 
BRANCH  10  12
ATOM     12  C   UNL     1      -0.154  10.514  18.478  0.00  0.00    +0.000 A 
ATOM     13  C   UNL     1      -1.029   9.746  17.698  0.00  0.00    +0.000 A 
ATOM     14  C   UNL     1      -2.359  10.138  17.528  0.00  0.00    +0.000 A 
ATOM     15  C   UNL     1      -2.846  11.284  18.156  0.00  0.00    +0.000 A 
ATOM     16  C   UNL     1      -1.990  12.049  18.946  0.00  0.00    +0.000 A 
ATOM     17  C   UNL     1      -0.654  11.662  19.110  0.00  0.00    +0.000 A 
BRANCH  15  18
ATOM     18  O   UNL     1      -4.156  11.575  17.892  0.00  0.00    +0.000 OA
ATOM     19  C   UNL     1      -4.969  11.857  19.024  0.00  0.00    +0.000 C 
ENDBRANCH  15  18
ENDBRANCH  10  12
ENDBRANCH   5   7
BRANCH   1  20
ATOM     20  C   UNL     1       4.748   4.050  16.642  0.00  0.00    +0.000 C 
BRANCH  20  21
ATOM     21  C   UNL     1       6.199   4.534  16.442  0.00  0.00    +0.000 C 
BRANCH  21  22
ATOM     22  C   UNL     1       6.543   4.494  14.947  0.00  0.00    +0.000 C 
ATOM     23  O   UNL     1       5.927   3.858  14.105  0.00  0.00    +0.000 OA
BRANCH  22  24
ATOM     24  O   UNL     1       7.629   5.254  14.650  0.00  0.00    +0.000 OA
ATOM     25  H   UNL     1       7.476   6.151  15.025  0.00  0.00    +0.000 HD
ENDBRANCH  22  24
ENDBRANCH  21  22
BRANCH  21  26
ATOM     26  O   UNL     1       6.472   5.862  16.942  0.00  0.00    +0.000 OA
BRANCH  26  28
ATOM     27  C   UNL     1       6.904   5.596  19.282  0.00  0.00    +0.000 C 
ATOM     28  C   UNL     1       7.508   5.903  17.926  0.00  0.00    +0.000 C 
ENDBRANCH  26  28
ENDBRANCH  21  26
ENDBRANCH  20  21
ENDBRANCH   1  20
TORSDOF 9
ENDMDL
MODEL 6
REMARK VINA RESULT:      -7.5      2.529      3.793
REMARK  Name = 
REMARK  11 active torsions:
REMARK  status: ('A' for Active; 'I' for Inactive)
REMARK    1  A    between atoms: C_1  and  C_2
REMARK    2  A    between atoms: C_2  and  O_3
REMARK    3  A    between atoms: O_3  and  C_4
REMARK    4  A    between atoms: C_4  and  C_5
REMARK    5  A    between atoms: C_4  and  C_25
REMARK    6  A    between atoms: C_5  and  C_6
REMARK    7  A    between atoms: C_10  and  C_11
REMARK    8  A    between atoms: C_14  and  C_15
REMARK    9  A    between atoms: C_18  and  O_19
REMARK   10  A    between atoms: O_19  and  C_20
REMARK   11  A    between atoms: C_25  and  O_27
REMARK                            x       y       z     vdW  Elec       q    Type
REMARK                         _______ _______ _______ _____ _____    ______ ____
ROOT
ATOM      1  C   UNL     1       4.505   5.514  17.279  0.00  0.00    +0.000 A 
ATOM      2  C   UNL     1       4.615   4.451  18.187  0.00  0.00    +0.000 A 
ATOM      3  C   UNL     1       4.019   4.507  19.442  0.00  0.00    +0.000 A 
ATOM      4  C   UNL     1       3.258   5.613  19.799  0.00  0.00    +0.000 A 
ATOM      5  C   UNL     1       3.067   6.653  18.885  0.00  0.00    +0.000 A 
ATOM      6  C   UNL     1       3.693   6.605  17.633  0.00  0.00    +0.000 A 
ENDROOT
BRANCH   5   7
ATOM      7  C   UNL     1       2.171   7.782  19.220  0.00  0.00    +0.000 C 
ATOM      8  N   UNL     1       1.680   7.983  20.399  0.00  0.00    +0.000 NA
ATOM      9  O   UNL     1       0.937   9.184  20.356  0.00  0.00    +0.000 OA
ATOM     10  C   UNL     1       0.873   9.656  19.001  0.00  0.00    +0.000 C 
ATOM     11  C   UNL     1       1.819   8.799  18.197  0.00  0.00    +0.000 C 
BRANCH  10  12
ATOM     12  C   UNL     1       1.236  11.123  18.899  0.00  0.00    +0.000 A 
ATOM     13  C   UNL     1       0.567  12.094  19.655  0.00  0.00    +0.000 A 
ATOM     14  C   UNL     1       0.928  13.441  19.561  0.00  0.00    +0.000 A 
ATOM     15  C   UNL     1       1.980  13.836  18.736  0.00  0.00    +0.000 A 
ATOM     16  C   UNL     1       2.664  12.878  17.989  0.00  0.00    +0.000 A 
ATOM     17  C   UNL     1       2.297  11.529  18.076  0.00  0.00    +0.000 A 
BRANCH  15  18
ATOM     18  O   UNL     1       2.221  15.183  18.710  0.00  0.00    +0.000 OA
ATOM     19  C   UNL     1       3.352  15.596  17.955  0.00  0.00    +0.000 C 
ENDBRANCH  15  18
ENDBRANCH  10  12
ENDBRANCH   5   7
BRANCH   1  20
ATOM     20  C   UNL     1       5.192   5.522  15.925  0.00  0.00    +0.000 C 
BRANCH  20  21
ATOM     21  C   UNL     1       6.726   5.370  15.912  0.00  0.00    +0.000 C 
BRANCH  21  22
ATOM     22  C   UNL     1       7.172   4.863  14.534  0.00  0.00    +0.000 C 
ATOM     23  O   UNL     1       6.672   3.917  13.943  0.00  0.00    +0.000 OA
BRANCH  22  24
ATOM     24  O   UNL     1       8.202   5.590  14.028  0.00  0.00    +0.000 OA
ATOM     25  H   UNL     1       9.016   5.336  14.520  0.00  0.00    +0.000 HD
ENDBRANCH  22  24
ENDBRANCH  21  22
BRANCH  21  26
ATOM     26  O   UNL     1       7.460   6.577  16.218  0.00  0.00    +0.000 OA
BRANCH  26  28
ATOM     27  C   UNL     1       7.997   8.288  17.805  0.00  0.00    +0.000 C 
ATOM     28  C   UNL     1       7.565   6.846  17.617  0.00  0.00    +0.000 C 
ENDBRANCH  26  28
ENDBRANCH  21  26
ENDBRANCH  20  21
ENDBRANCH   1  20
TORSDOF 9
ENDMDL
MODEL 7
REMARK VINA RESULT:      -7.5      0.987      1.209
REMARK  Name = 
REMARK  11 active torsions:
REMARK  status: ('A' for Active; 'I' for Inactive)
REMARK    1  A    between atoms: C_1  and  C_2
REMARK    2  A    between atoms: C_2  and  O_3
REMARK    3  A    between atoms: O_3  and  C_4
REMARK    4  A    between atoms: C_4  and  C_5
REMARK    5  A    between atoms: C_4  and  C_25
REMARK    6  A    between atoms: C_5  and  C_6
REMARK    7  A    between atoms: C_10  and  C_11
REMARK    8  A    between atoms: C_14  and  C_15
REMARK    9  A    between atoms: C_18  and  O_19
REMARK   10  A    between atoms: O_19  and  C_20
REMARK   11  A    between atoms: C_25  and  O_27
REMARK                            x       y       z     vdW  Elec       q    Type
REMARK                         _______ _______ _______ _____ _____    ______ ____
ROOT
ATOM      1  C   UNL     1       4.479   5.300  18.273  0.00  0.00    +0.000 A 
ATOM      2  C   UNL     1       3.541   4.258  18.259  0.00  0.00    +0.000 A 
ATOM      3  C   UNL     1       2.175   4.513  18.337  0.00  0.00    +0.000 A 
ATOM      4  C   UNL     1       1.716   5.823  18.382  0.00  0.00    +0.000 A 
ATOM      5  C   UNL     1       2.625   6.883  18.319  0.00  0.00    +0.000 A 
ATOM      6  C   UNL     1       4.001   6.621  18.270  0.00  0.00    +0.000 A 
ENDROOT
BRANCH   5   7
ATOM      7  C   UNL     1       2.136   8.278  18.259  0.00  0.00    +0.000 C 
ATOM      8  N   UNL     1       2.477   9.119  17.338  0.00  0.00    +0.000 NA
ATOM      9  O   UNL     1       1.763  10.318  17.565  0.00  0.00    +0.000 OA
ATOM     10  C   UNL     1       1.045  10.217  18.805  0.00  0.00    +0.000 C 
ATOM     11  C   UNL     1       1.160   8.782  19.258  0.00  0.00    +0.000 C 
BRANCH  10  12
ATOM     12  C   UNL     1      -0.404  10.631  18.650  0.00  0.00    +0.000 A 
ATOM     13  C   UNL     1      -0.944  11.688  19.395  0.00  0.00    +0.000 A 
ATOM     14  C   UNL     1      -2.278  12.067  19.225  0.00  0.00    +0.000 A 
ATOM     15  C   UNL     1      -3.086  11.420  18.290  0.00  0.00    +0.000 A 
ATOM     16  C   UNL     1      -2.556  10.376  17.533  0.00  0.00    +0.000 A 
ATOM     17  C   UNL     1      -1.221   9.989  17.708  0.00  0.00    +0.000 A 
BRANCH  15  18
ATOM     18  O   UNL     1      -4.378  11.864  18.236  0.00  0.00    +0.000 OA
ATOM     19  C   UNL     1      -5.383  10.860  18.280  0.00  0.00    +0.000 C 
ENDBRANCH  15  18
ENDBRANCH  10  12
ENDBRANCH   5   7
BRANCH   1  20
ATOM     20  C   UNL     1       5.978   5.065  18.254  0.00  0.00    +0.000 C 
BRANCH  20  21
ATOM     21  C   UNL     1       6.788   5.769  17.147  0.00  0.00    +0.000 C 
BRANCH  21  22
ATOM     22  C   UNL     1       7.646   6.876  17.776  0.00  0.00    +0.000 C 
ATOM     23  O   UNL     1       7.867   7.964  17.266  0.00  0.00    +0.000 OA
BRANCH  22  24
ATOM     24  O   UNL     1       8.148   6.511  18.985  0.00  0.00    +0.000 OA
ATOM     25  H   UNL     1       7.531   6.843  19.676  0.00  0.00    +0.000 HD
ENDBRANCH  22  24
ENDBRANCH  21  22
BRANCH  21  26
ATOM     26  O   UNL     1       7.649   4.902  16.376  0.00  0.00    +0.000 OA
BRANCH  26  28
ATOM     27  C   UNL     1       5.857   5.205  14.817  0.00  0.00    +0.000 C 
ATOM     28  C   UNL     1       7.004   4.310  15.246  0.00  0.00    +0.000 C 
ENDBRANCH  26  28
ENDBRANCH  21  26
ENDBRANCH  20  21
ENDBRANCH   1  20
TORSDOF 9
ENDMDL
MODEL 8
REMARK VINA RESULT:      -7.5      3.291      4.280
REMARK  Name = 
REMARK  11 active torsions:
REMARK  status: ('A' for Active; 'I' for Inactive)
REMARK    1  A    between atoms: C_1  and  C_2
REMARK    2  A    between atoms: C_2  and  O_3
REMARK    3  A    between atoms: O_3  and  C_4
REMARK    4  A    between atoms: C_4  and  C_5
REMARK    5  A    between atoms: C_4  and  C_25
REMARK    6  A    between atoms: C_5  and  C_6
REMARK    7  A    between atoms: C_10  and  C_11
REMARK    8  A    between atoms: C_14  and  C_15
REMARK    9  A    between atoms: C_18  and  O_19
REMARK   10  A    between atoms: O_19  and  C_20
REMARK   11  A    between atoms: C_25  and  O_27
REMARK                            x       y       z     vdW  Elec       q    Type
REMARK                         _______ _______ _______ _____ _____    ______ ____
ROOT
ATOM      1  C   UNL     1       2.687   7.016  18.981  0.00  0.00    +0.000 A 
ATOM      2  C   UNL     1       2.666   7.801  17.819  0.00  0.00    +0.000 A 
ATOM      3  C   UNL     1       1.958   8.997  17.766  0.00  0.00    +0.000 A 
ATOM      4  C   UNL     1       1.294   9.459  18.895  0.00  0.00    +0.000 A 
ATOM      5  C   UNL     1       1.363   8.737  20.090  0.00  0.00    +0.000 A 
ATOM      6  C   UNL     1       2.052   7.518  20.130  0.00  0.00    +0.000 A 
ENDROOT
BRANCH   5   7
ATOM      7  C   UNL     1       0.747   9.278  21.322  0.00  0.00    +0.000 C 
ATOM      8  N   UNL     1       1.365   9.364  22.454  0.00  0.00    +0.000 NA
ATOM      9  O   UNL     1       0.493   9.991  23.373  0.00  0.00    +0.000 OA
ATOM     10  C   UNL     1      -0.797  10.163  22.764  0.00  0.00    +0.000 C 
ATOM     11  C   UNL     1      -0.639   9.810  21.306  0.00  0.00    +0.000 C 
BRANCH  10  12
ATOM     12  C   UNL     1      -1.316  11.576  22.936  0.00  0.00    +0.000 A 
ATOM     13  C   UNL     1      -0.572  12.683  22.506  0.00  0.00    +0.000 A 
ATOM     14  C   UNL     1      -1.076  13.978  22.658  0.00  0.00    +0.000 A 
ATOM     15  C   UNL     1      -2.338  14.187  23.212  0.00  0.00    +0.000 A 
ATOM     16  C   UNL     1      -3.093  13.093  23.630  0.00  0.00    +0.000 A 
ATOM     17  C   UNL     1      -2.587  11.795  23.487  0.00  0.00    +0.000 A 
BRANCH  15  18
ATOM     18  O   UNL     1      -2.708  15.499  23.330  0.00  0.00    +0.000 OA
ATOM     19  C   UNL     1      -3.454  16.034  22.245  0.00  0.00    +0.000 C 
ENDBRANCH  15  18
ENDBRANCH  10  12
ENDBRANCH   5   7
BRANCH   1  20
ATOM     20  C   UNL     1       3.392   5.674  19.062  0.00  0.00    +0.000 C 
BRANCH  20  21
ATOM     21  C   UNL     1       4.730   5.535  18.308  0.00  0.00    +0.000 C 
BRANCH  21  22
ATOM     22  C   UNL     1       5.732   4.782  19.194  0.00  0.00    +0.000 C 
ATOM     23  O   UNL     1       6.695   5.290  19.747  0.00  0.00    +0.000 OA
BRANCH  22  24
ATOM     24  O   UNL     1       5.431   3.461  19.302  0.00  0.00    +0.000 OA
ATOM     25  H   UNL     1       4.487   3.349  19.045  0.00  0.00    +0.000 HD
ENDBRANCH  22  24
ENDBRANCH  21  22
BRANCH  21  26
ATOM     26  O   UNL     1       4.644   4.859  17.033  0.00  0.00    +0.000 OA
BRANCH  26  28
ATOM     27  C   UNL     1       5.541   4.694  14.819  0.00  0.00    +0.000 C 
ATOM     28  C   UNL     1       5.864   4.878  16.290  0.00  0.00    +0.000 C 
ENDBRANCH  26  28
ENDBRANCH  21  26
ENDBRANCH  20  21
ENDBRANCH   1  20
TORSDOF 9
ENDMDL
MODEL 9
REMARK VINA RESULT:      -7.4      3.758      5.340
REMARK  Name = 
REMARK  11 active torsions:
REMARK  status: ('A' for Active; 'I' for Inactive)
REMARK    1  A    between atoms: C_1  and  C_2
REMARK    2  A    between atoms: C_2  and  O_3
REMARK    3  A    between atoms: O_3  and  C_4
REMARK    4  A    between atoms: C_4  and  C_5
REMARK    5  A    between atoms: C_4  and  C_25
REMARK    6  A    between atoms: C_5  and  C_6
REMARK    7  A    between atoms: C_10  and  C_11
REMARK    8  A    between atoms: C_14  and  C_15
REMARK    9  A    between atoms: C_18  and  O_19
REMARK   10  A    between atoms: O_19  and  C_20
REMARK   11  A    between atoms: C_25  and  O_27
REMARK                            x       y       z     vdW  Elec       q    Type
REMARK                         _______ _______ _______ _____ _____    ______ ____
ROOT
ATOM      1  C   UNL     1       2.773   6.791  19.170  0.00  0.00    +0.000 A 
ATOM      2  C   UNL     1       2.759   7.512  17.967  0.00  0.00    +0.000 A 
ATOM      3  C   UNL     1       2.044   8.699  17.844  0.00  0.00    +0.000 A 
ATOM      4  C   UNL     1       1.364   9.215  18.939  0.00  0.00    +0.000 A 
ATOM      5  C   UNL     1       1.425   8.558  20.171  0.00  0.00    +0.000 A 
ATOM      6  C   UNL     1       2.122   7.348  20.283  0.00  0.00    +0.000 A 
ENDROOT
BRANCH   5   7
ATOM      7  C   UNL     1       0.793   9.159  21.366  0.00  0.00    +0.000 C 
ATOM      8  N   UNL     1       1.396   9.306  22.500  0.00  0.00    +0.000 NA
ATOM      9  O   UNL     1       0.510   9.976  23.375  0.00  0.00    +0.000 OA
ATOM     10  C   UNL     1      -0.772  10.112  22.742  0.00  0.00    +0.000 C 
ATOM     11  C   UNL     1      -0.594   9.685  21.306  0.00  0.00    +0.000 C 
BRANCH  10  12
ATOM     12  C   UNL     1      -1.297  11.530  22.835  0.00  0.00    +0.000 A 
ATOM     13  C   UNL     1      -2.527  11.814  23.443  0.00  0.00    +0.000 A 
ATOM     14  C   UNL     1      -2.986  13.130  23.535  0.00  0.00    +0.000 A 
ATOM     15  C   UNL     1      -2.214  14.186  23.050  0.00  0.00    +0.000 A 
ATOM     16  C   UNL     1      -0.982  13.918  22.456  0.00  0.00    +0.000 A 
ATOM     17  C   UNL     1      -0.524  12.598  22.355  0.00  0.00    +0.000 A 
BRANCH  15  18
ATOM     18  O   UNL     1      -2.783  15.423  23.176  0.00  0.00    +0.000 OA
ATOM     19  C   UNL     1      -1.894  16.485  23.498  0.00  0.00    +0.000 C 
ENDBRANCH  15  18
ENDBRANCH  10  12
ENDBRANCH   5   7
BRANCH   1  20
ATOM     20  C   UNL     1       3.487   5.461  19.329  0.00  0.00    +0.000 C 
BRANCH  20  21
ATOM     21  C   UNL     1       2.637   4.183  19.184  0.00  0.00    +0.000 C 
BRANCH  21  22
ATOM     22  C   UNL     1       2.414   3.892  17.693  0.00  0.00    +0.000 C 
ATOM     23  O   UNL     1       3.293   3.579  16.904  0.00  0.00    +0.000 OA
BRANCH  22  24
ATOM     24  O   UNL     1       1.111   4.022  17.334  0.00  0.00    +0.000 OA
ATOM     25  H   UNL     1       1.065   4.690  16.612  0.00  0.00    +0.000 HD
ENDBRANCH  22  24
ENDBRANCH  21  22
BRANCH  21  26
ATOM     26  O   UNL     1       3.197   3.004  19.804  0.00  0.00    +0.000 OA
BRANCH  26  28
ATOM     27  C   UNL     1       1.243   3.004  21.188  0.00  0.00    +0.000 C 
ATOM     28  C   UNL     1       2.744   2.789  21.142  0.00  0.00    +0.000 C 
ENDBRANCH  26  28
ENDBRANCH  21  26
ENDBRANCH  20  21
ENDBRANCH   1  20
TORSDOF 9
ENDMDL
