MODEL 1
REMARK VINA RESULT:      -7.1      0.000      0.000
REMARK  Name = 
REMARK  1 active torsions:
REMARK  status: ('A' for Active; 'I' for Inactive)
REMARK    1  A    between atoms: C_5  and  C_6
REMARK                            x       y       z     vdW  Elec       q    Type
REMARK                         _______ _______ _______ _____ _____    ______ ____
ROOT
ATOM      1  O   UNL     1      10.211  17.361  16.995  0.00  0.00    +0.000 OA
ATOM      2  C   UNL     1      10.528  16.200  17.238  0.00  0.00    +0.000 C 
ATOM      3  C   UNL     1      11.913  15.701  16.898  0.00  0.00    +0.000 C 
ATOM      4  S   UNL     1      12.029  14.003  17.442  0.00  0.00    +0.000 S 
ATOM      5  C   UNL     1      10.230  13.853  17.672  0.00  0.00    +0.000 C 
ATOM      6  N   UNL     1       9.692  15.199  17.742  0.00  0.00    +0.000 N 
ATOM      7  C   UNL     1       8.323  15.360  17.943  0.00  0.00    +0.000 A 
ATOM      8  N   UNL     1       7.533  14.398  17.581  0.00  0.00    +0.000 NA
ATOM      9  N   UNL     1       6.155  14.446  17.720  0.00  0.00    +0.000 NA
ATOM     10  C   UNL     1       5.615  15.433  18.341  0.00  0.00    +0.000 A 
ATOM     11  C   UNL     1       4.197  15.595  18.621  0.00  0.00    +0.000 A 
ATOM     12  C   UNL     1       3.091  14.839  18.288  0.00  0.00    +0.000 A 
ATOM     13  C   UNL     1       1.860  15.303  18.753  0.00  0.00    +0.000 A 
ATOM     14 CL   UNL     1       0.426  14.425  18.381  0.00  0.00    +0.000 Cl
ATOM     15  C   UNL     1       1.762  16.478  19.524  0.00  0.00    +0.000 A 
ATOM     16  C   UNL     1       2.906  17.221  19.843  0.00  0.00    +0.000 A 
ATOM     17  C   UNL     1       4.126  16.768  19.382  0.00  0.00    +0.000 A 
ATOM     18  N   UNL     1       5.369  17.394  19.581  0.00  0.00    +0.000 NA
ATOM     19  C   UNL     1       6.218  16.629  18.965  0.00  0.00    +0.000 A 
ATOM     20  S   UNL     1       7.867  16.839  18.723  0.00  0.00    +0.000 S 
ENDROOT
BRANCH   5  21
ATOM     21  C   UNL     1       9.935  12.979  18.889  0.00  0.00    +0.000 A 
ATOM     22  C   UNL     1       9.603  11.636  18.697  0.00  0.00    +0.000 A 
ATOM     23  C   UNL     1       9.412  10.819  19.808  0.00  0.00    +0.000 A 
ATOM     24  C   UNL     1       9.555  11.356  21.079  0.00  0.00    +0.000 A 
ATOM     25  C   UNL     1       9.876  12.698  21.191  0.00  0.00    +0.000 A 
ATOM     26  N   UNL     1      10.072  13.520  20.132  0.00  0.00    +0.000 NA
ENDBRANCH   5  21
TORSDOF 1
ENDMDL
MODEL 2
REMARK VINA RESULT:      -7.1      7.203     10.453
REMARK  Name = 
REMARK  1 active torsions:
REMARK  status: ('A' for Active; 'I' for Inactive)
REMARK    1  A    between atoms: C_5  and  C_6
REMARK                            x       y       z     vdW  Elec       q    Type
REMARK                         _______ _______ _______ _____ _____    ______ ____
ROOT
ATOM      1  O   UNL     1       3.115  13.518  18.446  0.00  0.00    +0.000 OA
ATOM      2  C   UNL     1       1.941  13.716  18.747  0.00  0.00    +0.000 C 
ATOM      3  C   UNL     1       1.422  15.125  18.911  0.00  0.00    +0.000 C 
ATOM      4  S   UNL     1      -0.322  15.023  19.286  0.00  0.00    +0.000 S 
ATOM      5  C   UNL     1      -0.238  13.242  19.647  0.00  0.00    +0.000 C 
ATOM      6  N   UNL     1       0.988  12.741  19.055  0.00  0.00    +0.000 N 
ATOM      7  C   UNL     1       1.276  11.382  19.171  0.00  0.00    +0.000 A 
ATOM      8  N   UNL     1       0.757  10.727  20.161  0.00  0.00    +0.000 NA
ATOM      9  N   UNL     1       0.978   9.378  20.386  0.00  0.00    +0.000 NA
ATOM     10  C   UNL     1       1.636   8.691  19.522  0.00  0.00    +0.000 A 
ATOM     11  C   UNL     1       1.898   7.261  19.585  0.00  0.00    +0.000 A 
ATOM     12  C   UNL     1       1.599   6.303  20.531  0.00  0.00    +0.000 A 
ATOM     13  C   UNL     1       2.000   4.998  20.240  0.00  0.00    +0.000 A 
ATOM     14 CL   UNL     1       1.672   3.737  21.367  0.00  0.00    +0.000 Cl
ATOM     15  C   UNL     1       2.671   4.687  19.042  0.00  0.00    +0.000 A 
ATOM     16  C   UNL     1       2.959   5.686  18.103  0.00  0.00    +0.000 A 
ATOM     17  C   UNL     1       2.566   6.979  18.388  0.00  0.00    +0.000 A 
ATOM     18  N   UNL     1       2.791   8.108  17.581  0.00  0.00    +0.000 NA
ATOM     19  C   UNL     1       2.268   9.091  18.248  0.00  0.00    +0.000 A 
ATOM     20  S   UNL     1       2.270  10.735  17.907  0.00  0.00    +0.000 S 
ENDROOT
BRANCH   5  21
ATOM     21  C   UNL     1      -1.513  12.555  19.163  0.00  0.00    +0.000 A 
ATOM     22  C   UNL     1      -2.642  12.556  19.986  0.00  0.00    +0.000 A 
ATOM     23  C   UNL     1      -3.827  12.001  19.514  0.00  0.00    +0.000 A 
ATOM     24  C   UNL     1      -3.863  11.459  18.237  0.00  0.00    +0.000 A 
ATOM     25  C   UNL     1      -2.702  11.486  17.482  0.00  0.00    +0.000 A 
ATOM     26  N   UNL     1      -1.533  12.021  17.910  0.00  0.00    +0.000 NA
ENDBRANCH   5  21
TORSDOF 1
ENDMDL
MODEL 3
REMARK VINA RESULT:      -7.0      0.615      1.021
REMARK  Name = 
REMARK  1 active torsions:
REMARK  status: ('A' for Active; 'I' for Inactive)
REMARK    1  A    between atoms: C_5  and  C_6
REMARK                            x       y       z     vdW  Elec       q    Type
REMARK                         _______ _______ _______ _____ _____    ______ ____
ROOT
ATOM      1  O   UNL     1      10.210  17.164  16.821  0.00  0.00    +0.000 OA
ATOM      2  C   UNL     1      10.564  16.065  17.239  0.00  0.00    +0.000 C 
ATOM      3  C   UNL     1      11.976  15.579  17.008  0.00  0.00    +0.000 C 
ATOM      4  S   UNL     1      12.139  13.985  17.801  0.00  0.00    +0.000 S 
ATOM      5  C   UNL     1      10.341  13.798  18.010  0.00  0.00    +0.000 C 
ATOM      6  N   UNL     1       9.752  15.116  17.868  0.00  0.00    +0.000 N 
ATOM      7  C   UNL     1       8.373  15.248  18.013  0.00  0.00    +0.000 A 
ATOM      8  N   UNL     1       7.630  14.213  17.781  0.00  0.00    +0.000 NA
ATOM      9  N   UNL     1       6.248  14.224  17.881  0.00  0.00    +0.000 NA
ATOM     10  C   UNL     1       5.654  15.269  18.336  0.00  0.00    +0.000 A 
ATOM     11  C   UNL     1       4.223  15.413  18.558  0.00  0.00    +0.000 A 
ATOM     12  C   UNL     1       3.157  14.571  18.316  0.00  0.00    +0.000 A 
ATOM     13  C   UNL     1       1.897  15.047  18.681  0.00  0.00    +0.000 A 
ATOM     14 CL   UNL     1       0.507  14.066  18.412  0.00  0.00    +0.000 Cl
ATOM     15  C   UNL     1       1.733  16.318  19.266  0.00  0.00    +0.000 A 
ATOM     16  C   UNL     1       2.839  17.146  19.496  0.00  0.00    +0.000 A 
ATOM     17  C   UNL     1       4.088  16.680  19.135  0.00  0.00    +0.000 A 
ATOM     18  N   UNL     1       5.301  17.379  19.266  0.00  0.00    +0.000 NA
ATOM     19  C   UNL     1       6.195  16.567  18.789  0.00  0.00    +0.000 A 
ATOM     20  S   UNL     1       7.840  16.806  18.554  0.00  0.00    +0.000 S 
ENDROOT
BRANCH   5  21
ATOM     21  C   UNL     1      10.045  13.102  19.337  0.00  0.00    +0.000 A 
ATOM     22  C   UNL     1      10.073  13.847  20.518  0.00  0.00    +0.000 A 
ATOM     23  C   UNL     1       9.725  13.233  21.717  0.00  0.00    +0.000 A 
ATOM     24  C   UNL     1       9.360  11.894  21.714  0.00  0.00    +0.000 A 
ATOM     25  C   UNL     1       9.365  11.217  20.506  0.00  0.00    +0.000 A 
ATOM     26  N   UNL     1       9.694  11.786  19.321  0.00  0.00    +0.000 NA
ENDBRANCH   5  21
TORSDOF 1
ENDMDL
MODEL 4
REMARK VINA RESULT:      -6.8      1.410      1.560
REMARK  Name = 
REMARK  1 active torsions:
REMARK  status: ('A' for Active; 'I' for Inactive)
REMARK    1  A    between atoms: C_5  and  C_6
REMARK                            x       y       z     vdW  Elec       q    Type
REMARK                         _______ _______ _______ _____ _____    ______ ____
ROOT
ATOM      1  O   UNL     1       8.879  18.630  18.168  0.00  0.00    +0.000 OA
ATOM      2  C   UNL     1       9.536  17.614  17.961  0.00  0.00    +0.000 C 
ATOM      3  C   UNL     1      10.952  17.713  17.443  0.00  0.00    +0.000 C 
ATOM      4  S   UNL     1      11.604  16.053  17.321  0.00  0.00    +0.000 S 
ATOM      5  C   UNL     1       9.962  15.292  17.503  0.00  0.00    +0.000 C 
ATOM      6  N   UNL     1       9.082  16.296  18.072  0.00  0.00    +0.000 N 
ATOM      7  C   UNL     1       7.759  15.950  18.337  0.00  0.00    +0.000 A 
ATOM      8  N   UNL     1       7.231  14.982  17.656  0.00  0.00    +0.000 NA
ATOM      9  N   UNL     1       5.923  14.554  17.822  0.00  0.00    +0.000 NA
ATOM     10  C   UNL     1       5.210  15.049  18.770  0.00  0.00    +0.000 A 
ATOM     11  C   UNL     1       3.849  14.662  19.109  0.00  0.00    +0.000 A 
ATOM     12  C   UNL     1       2.966  13.770  18.535  0.00  0.00    +0.000 A 
ATOM     13  C   UNL     1       1.723  13.643  19.156  0.00  0.00    +0.000 A 
ATOM     14 CL   UNL     1       0.556  12.555  18.506  0.00  0.00    +0.000 Cl
ATOM     15  C   UNL     1       1.397  14.387  20.306  0.00  0.00    +0.000 A 
ATOM     16  C   UNL     1       2.318  15.285  20.861  0.00  0.00    +0.000 A 
ATOM     17  C   UNL     1       3.549  15.416  20.249  0.00  0.00    +0.000 A 
ATOM     18  N   UNL     1       4.583  16.282  20.648  0.00  0.00    +0.000 NA
ATOM     19  C   UNL     1       5.528  16.077  19.782  0.00  0.00    +0.000 A 
ATOM     20  S   UNL     1       7.008  16.851  19.612  0.00  0.00    +0.000 S 
ENDROOT
BRANCH   5  21
ATOM     21  C   UNL     1      10.076  14.004  18.316  0.00  0.00    +0.000 A 
ATOM     22  C   UNL     1       9.969  12.774  17.662  0.00  0.00    +0.000 A 
ATOM     23  C   UNL     1      10.152  11.601  18.388  0.00  0.00    +0.000 A 
ATOM     24  C   UNL     1      10.438  11.678  19.743  0.00  0.00    +0.000 A 
ATOM     25  C   UNL     1      10.521  12.932  20.325  0.00  0.00    +0.000 A 
ATOM     26  N   UNL     1      10.351  14.093  19.648  0.00  0.00    +0.000 NA
ENDBRANCH   5  21
TORSDOF 1
ENDMDL
MODEL 5
REMARK VINA RESULT:      -6.6      6.941      9.741
REMARK  Name = 
REMARK  1 active torsions:
REMARK  status: ('A' for Active; 'I' for Inactive)
REMARK    1  A    between atoms: C_5  and  C_6
REMARK                            x       y       z     vdW  Elec       q    Type
REMARK                         _______ _______ _______ _____ _____    ______ ____
ROOT
ATOM      1  O   UNL     1      -2.389  12.205  20.883  0.00  0.00    +0.000 OA
ATOM      2  C   UNL     1      -1.587  13.061  20.519  0.00  0.00    +0.000 C 
ATOM      3  C   UNL     1      -1.999  14.513  20.454  0.00  0.00    +0.000 C 
ATOM      4  S   UNL     1      -0.571  15.462  19.947  0.00  0.00    +0.000 S 
ATOM      5  C   UNL     1       0.346  13.980  19.424  0.00  0.00    +0.000 C 
ATOM      6  N   UNL     1      -0.290  12.837  20.051  0.00  0.00    +0.000 N 
ATOM      7  C   UNL     1       0.247  11.570  19.827  0.00  0.00    +0.000 A 
ATOM      8  N   UNL     1       0.932  11.378  18.744  0.00  0.00    +0.000 NA
ATOM      9  N   UNL     1       1.505  10.162  18.407  0.00  0.00    +0.000 NA
ATOM     10  C   UNL     1       1.467   9.190  19.246  0.00  0.00    +0.000 A 
ATOM     11  C   UNL     1       2.073   7.879  19.066  0.00  0.00    +0.000 A 
ATOM     12  C   UNL     1       2.760   7.310  18.013  0.00  0.00    +0.000 A 
ATOM     13  C   UNL     1       3.221   6.007  18.206  0.00  0.00    +0.000 A 
ATOM     14 CL   UNL     1       4.084   5.215  16.943  0.00  0.00    +0.000 Cl
ATOM     15  C   UNL     1       2.994   5.319  19.414  0.00  0.00    +0.000 A 
ATOM     16  C   UNL     1       2.292   5.928  20.462  0.00  0.00    +0.000 A 
ATOM     17  C   UNL     1       1.832   7.217  20.275  0.00  0.00    +0.000 A 
ATOM     18  N   UNL     1       1.090   7.973  21.201  0.00  0.00    +0.000 NA
ATOM     19  C   UNL     1       0.871   9.100  20.595  0.00  0.00    +0.000 A 
ATOM     20  S   UNL     1      -0.039  10.421  21.091  0.00  0.00    +0.000 S 
ENDROOT
BRANCH   5  21
ATOM     21  C   UNL     1       1.829  14.149  19.748  0.00  0.00    +0.000 A 
ATOM     22  C   UNL     1       2.712  14.506  18.726  0.00  0.00    +0.000 A 
ATOM     23  C   UNL     1       4.049  14.738  19.034  0.00  0.00    +0.000 A 
ATOM     24  C   UNL     1       4.475  14.610  20.349  0.00  0.00    +0.000 A 
ATOM     25  C   UNL     1       3.544  14.244  21.306  0.00  0.00    +0.000 A 
ATOM     26  N   UNL     1       2.236  14.015  21.041  0.00  0.00    +0.000 NA
ENDBRANCH   5  21
TORSDOF 1
ENDMDL
MODEL 6
REMARK VINA RESULT:      -6.5      6.852      9.761
REMARK  Name = 
REMARK  1 active torsions:
REMARK  status: ('A' for Active; 'I' for Inactive)
REMARK    1  A    between atoms: C_5  and  C_6
REMARK                            x       y       z     vdW  Elec       q    Type
REMARK                         _______ _______ _______ _____ _____    ______ ____
ROOT
ATOM      1  O   UNL     1      -2.399  11.912  20.829  0.00  0.00    +0.000 OA
ATOM      2  C   UNL     1      -1.661  12.843  20.518  0.00  0.00    +0.000 C 
ATOM      3  C   UNL     1      -2.175  14.263  20.541  0.00  0.00    +0.000 C 
ATOM      4  S   UNL     1      -0.820  15.339  20.093  0.00  0.00    +0.000 S 
ATOM      5  C   UNL     1       0.199  13.961  19.482  0.00  0.00    +0.000 C 
ATOM      6  N   UNL     1      -0.352  12.739  20.039  0.00  0.00    +0.000 N 
ATOM      7  C   UNL     1       0.272  11.530  19.739  0.00  0.00    +0.000 A 
ATOM      8  N   UNL     1       0.966  11.453  18.648  0.00  0.00    +0.000 NA
ATOM      9  N   UNL     1       1.622  10.303  18.238  0.00  0.00    +0.000 NA
ATOM     10  C   UNL     1       1.656   9.281  19.017  0.00  0.00    +0.000 A 
ATOM     11  C   UNL     1       2.352   8.030  18.759  0.00  0.00    +0.000 A 
ATOM     12  C   UNL     1       3.074   7.576  17.674  0.00  0.00    +0.000 A 
ATOM     13  C   UNL     1       3.627   6.299  17.788  0.00  0.00    +0.000 A 
ATOM     14 CL   UNL     1       4.540   5.649  16.481  0.00  0.00    +0.000 Cl
ATOM     15  C   UNL     1       3.454   5.526  18.952  0.00  0.00    +0.000 A 
ATOM     16  C   UNL     1       2.713   6.019  20.034  0.00  0.00    +0.000 A 
ATOM     17  C   UNL     1       2.163   7.281  19.925  0.00  0.00    +0.000 A 
ATOM     18  N   UNL     1       1.372   7.925  20.894  0.00  0.00    +0.000 NA
ATOM     19  C   UNL     1       1.071   9.068  20.357  0.00  0.00    +0.000 A 
ATOM     20  S   UNL     1       0.072  10.289  20.932  0.00  0.00    +0.000 S 
ENDROOT
BRANCH   5  21
ATOM     21  C   UNL     1       1.667  14.215  19.818  0.00  0.00    +0.000 A 
ATOM     22  C   UNL     1       2.084  14.138  21.149  0.00  0.00    +0.000 A 
ATOM     23  C   UNL     1       3.435  14.290  21.447  0.00  0.00    +0.000 A 
ATOM     24  C   UNL     1       4.337  14.514  20.417  0.00  0.00    +0.000 A 
ATOM     25  C   UNL     1       3.849  14.587  19.123  0.00  0.00    +0.000 A 
ATOM     26  N   UNL     1       2.542  14.440  18.798  0.00  0.00    +0.000 NA
ENDBRANCH   5  21
TORSDOF 1
ENDMDL
MODEL 7
REMARK VINA RESULT:      -6.4      6.250      8.744
REMARK  Name = 
REMARK  1 active torsions:
REMARK  status: ('A' for Active; 'I' for Inactive)
REMARK    1  A    between atoms: C_5  and  C_6
REMARK                            x       y       z     vdW  Elec       q    Type
REMARK                         _______ _______ _______ _____ _____    ______ ____
ROOT
ATOM      1  O   UNL     1       3.493  13.793  21.829  0.00  0.00    +0.000 OA
ATOM      2  C   UNL     1       3.239  14.928  21.432  0.00  0.00    +0.000 C 
ATOM      3  C   UNL     1       4.035  16.108  21.939  0.00  0.00    +0.000 C 
ATOM      4  S   UNL     1       3.429  17.570  21.107  0.00  0.00    +0.000 S 
ATOM      5  C   UNL     1       1.939  16.721  20.497  0.00  0.00    +0.000 C 
ATOM      6  N   UNL     1       2.190  15.295  20.585  0.00  0.00    +0.000 N 
ATOM      7  C   UNL     1       1.200  14.417  20.148  0.00  0.00    +0.000 A 
ATOM      8  N   UNL     1      -0.028  14.828  20.150  0.00  0.00    +0.000 NA
ATOM      9  N   UNL     1      -1.098  14.044  19.749  0.00  0.00    +0.000 NA
ATOM     10  C   UNL     1      -0.878  12.885  19.238  0.00  0.00    +0.000 A 
ATOM     11  C   UNL     1      -1.886  11.974  18.717  0.00  0.00    +0.000 A 
ATOM     12  C   UNL     1      -3.263  12.042  18.667  0.00  0.00    +0.000 A 
ATOM     13  C   UNL     1      -3.915  10.966  18.064  0.00  0.00    +0.000 A 
ATOM     14 CL   UNL     1      -5.635  10.963  17.961  0.00  0.00    +0.000 Cl
ATOM     15  C   UNL     1      -3.198   9.876  17.535  0.00  0.00    +0.000 A 
ATOM     16  C   UNL     1      -1.799   9.840  17.603  0.00  0.00    +0.000 A 
ATOM     17  C   UNL     1      -1.149  10.902  18.202  0.00  0.00    +0.000 A 
ATOM     18  N   UNL     1       0.240  11.025  18.382  0.00  0.00    +0.000 NA
ATOM     19  C   UNL     1       0.386  12.161  18.994  0.00  0.00    +0.000 A 
ATOM     20  S   UNL     1       1.779  12.878  19.598  0.00  0.00    +0.000 S 
ENDROOT
BRANCH   5  21
ATOM     21  C   UNL     1       1.593  17.227  19.098  0.00  0.00    +0.000 A 
ATOM     22  C   UNL     1       0.392  17.914  18.901  0.00  0.00    +0.000 A 
ATOM     23  C   UNL     1       0.111  18.445  17.646  0.00  0.00    +0.000 A 
ATOM     24  C   UNL     1       1.029  18.281  16.618  0.00  0.00    +0.000 A 
ATOM     25  C   UNL     1       2.193  17.581  16.886  0.00  0.00    +0.000 A 
ATOM     26  N   UNL     1       2.499  17.054  18.096  0.00  0.00    +0.000 NA
ENDBRANCH   5  21
TORSDOF 1
ENDMDL
MODEL 8
REMARK VINA RESULT:      -6.4      1.372      1.599
REMARK  Name = 
REMARK  1 active torsions:
REMARK  status: ('A' for Active; 'I' for Inactive)
REMARK    1  A    between atoms: C_5  and  C_6
REMARK                            x       y       z     vdW  Elec       q    Type
REMARK                         _______ _______ _______ _____ _____    ______ ____
ROOT
ATOM      1  O   UNL     1       9.745  17.801  19.046  0.00  0.00    +0.000 OA
ATOM      2  C   UNL     1      10.199  16.720  18.678  0.00  0.00    +0.000 C 
ATOM      3  C   UNL     1      11.626  16.617  18.194  0.00  0.00    +0.000 C 
ATOM      4  S   UNL     1      11.946  14.902  17.804  0.00  0.00    +0.000 S 
ATOM      5  C   UNL     1      10.180  14.464  17.847  0.00  0.00    +0.000 C 
ATOM      6  N   UNL     1       9.493  15.519  18.567  0.00  0.00    +0.000 N 
ATOM      7  C   UNL     1       8.117  15.406  18.762  0.00  0.00    +0.000 A 
ATOM      8  N   UNL     1       7.438  14.684  17.928  0.00  0.00    +0.000 NA
ATOM      9  N   UNL     1       6.066  14.505  18.011  0.00  0.00    +0.000 NA
ATOM     10  C   UNL     1       5.427  14.974  19.023  0.00  0.00    +0.000 A 
ATOM     11  C   UNL     1       4.004  14.816  19.284  0.00  0.00    +0.000 A 
ATOM     12  C   UNL     1       2.988  14.222  18.565  0.00  0.00    +0.000 A 
ATOM     13  C   UNL     1       1.720  14.247  19.147  0.00  0.00    +0.000 A 
ATOM     14 CL   UNL     1       0.390  13.532  18.318  0.00  0.00    +0.000 Cl
ATOM     15  C   UNL     1       1.500  14.847  20.402  0.00  0.00    +0.000 A 
ATOM     16  C   UNL     1       2.556  15.442  21.104  0.00  0.00    +0.000 A 
ATOM     17  C   UNL     1       3.812  15.422  20.531  0.00  0.00    +0.000 A 
ATOM     18  N   UNL     1       4.979  15.989  21.075  0.00  0.00    +0.000 NA
ATOM     19  C   UNL     1       5.899  15.741  20.194  0.00  0.00    +0.000 A 
ATOM     20  S   UNL     1       7.508  16.222  20.164  0.00  0.00    +0.000 S 
ENDROOT
BRANCH   5  21
ATOM     21  C   UNL     1      10.009  13.066  18.437  0.00  0.00    +0.000 A 
ATOM     22  C   UNL     1      10.445  12.820  19.741  0.00  0.00    +0.000 A 
ATOM     23  C   UNL     1      10.218  11.570  20.309  0.00  0.00    +0.000 A 
ATOM     24  C   UNL     1       9.564  10.596  19.567  0.00  0.00    +0.000 A 
ATOM     25  C   UNL     1       9.170  10.909  18.278  0.00  0.00    +0.000 A 
ATOM     26  N   UNL     1       9.372  12.116  17.697  0.00  0.00    +0.000 NA
ENDBRANCH   5  21
TORSDOF 1
ENDMDL
MODEL 9
REMARK VINA RESULT:      -6.3      2.399      3.070
REMARK  Name = 
REMARK  1 active torsions:
REMARK  status: ('A' for Active; 'I' for Inactive)
REMARK    1  A    between atoms: C_5  and  C_6
REMARK                            x       y       z     vdW  Elec       q    Type
REMARK                         _______ _______ _______ _____ _____    ______ ____
ROOT
ATOM      1  O   UNL     1       6.736  18.270  19.494  0.00  0.00    +0.000 OA
ATOM      2  C   UNL     1       7.513  17.438  19.033  0.00  0.00    +0.000 C 
ATOM      3  C   UNL     1       8.880  17.858  18.546  0.00  0.00    +0.000 C 
ATOM      4  S   UNL     1       9.741  16.387  18.008  0.00  0.00    +0.000 S 
ATOM      5  C   UNL     1       8.223  15.383  18.006  0.00  0.00    +0.000 C 
ATOM      6  N   UNL     1       7.243  16.084  18.814  0.00  0.00    +0.000 N 
ATOM      7  C   UNL     1       5.990  15.502  18.994  0.00  0.00    +0.000 A 
ATOM      8  N   UNL     1       5.567  14.669  18.096  0.00  0.00    +0.000 NA
ATOM      9  N   UNL     1       4.335  14.036  18.159  0.00  0.00    +0.000 NA
ATOM     10  C   UNL     1       3.603  14.178  19.206  0.00  0.00    +0.000 A 
ATOM     11  C   UNL     1       2.321  13.533  19.448  0.00  0.00    +0.000 A 
ATOM     12  C   UNL     1       1.541  12.697  18.676  0.00  0.00    +0.000 A 
ATOM     13  C   UNL     1       0.353  12.249  19.254  0.00  0.00    +0.000 A 
ATOM     14 CL   UNL     1      -0.685  11.204  18.360  0.00  0.00    +0.000 Cl
ATOM     15  C   UNL     1      -0.020  12.633  20.556  0.00  0.00    +0.000 A 
ATOM     16  C   UNL     1       0.796  13.484  21.311  0.00  0.00    +0.000 A 
ATOM     17  C   UNL     1       1.972  13.932  20.743  0.00  0.00    +0.000 A 
ATOM     18  N   UNL     1       2.897  14.808  21.339  0.00  0.00    +0.000 NA
ATOM     19  C   UNL     1       3.824  14.957  20.442  0.00  0.00    +0.000 A 
ATOM     20  S   UNL     1       5.180  15.947  20.460  0.00  0.00    +0.000 S 
ENDROOT
BRANCH   5  21
ATOM     21  C   UNL     1       8.542  13.963  18.469  0.00  0.00    +0.000 A 
ATOM     22  C   UNL     1       8.546  12.927  17.533  0.00  0.00    +0.000 A 
ATOM     23  C   UNL     1       8.914  11.647  17.938  0.00  0.00    +0.000 A 
ATOM     24  C   UNL     1       9.268  11.429  19.262  0.00  0.00    +0.000 A 
ATOM     25  C   UNL     1       9.231  12.504  20.135  0.00  0.00    +0.000 A 
ATOM     26  N   UNL     1       8.882  13.761  19.773  0.00  0.00    +0.000 NA
ENDBRANCH   5  21
TORSDOF 1
ENDMDL
