MODEL 1
REMARK VINA RESULT:      -6.5      0.000      0.000
REMARK  Name = 
REMARK  15 active torsions:
REMARK  status: ('A' for Active; 'I' for Inactive)
REMARK    1  A    between atoms: CD1_1  and  CG_2
REMARK    2  A    between atoms: CG_2  and  CD2_3
REMARK    3  A    between atoms: CG_2  and  CB_4
REMARK    4  A    between atoms: CB_4  and  CA_5
REMARK    5  A    between atoms: CA_5  and  N_6
REMARK    6  A    between atoms: CA_5  and  C_17
REMARK    7  A    between atoms: C_7  and  O_9
REMARK    8  A    between atoms: O_9  and  C_10
REMARK    9  A    between atoms: C_10  and  C_11
REMARK   10  A    between atoms: N_19  and  C_20
REMARK   11  A    between atoms: C_20  and  C_21
REMARK   12  A    between atoms: C_20  and  C_23
REMARK   13  A    between atoms: C_23  and  C_24
REMARK   14  A    between atoms: C_23  and  C_25
REMARK   15  A    between atoms: C_23  and  C_26
REMARK                            x       y       z     vdW  Elec       q    Type
REMARK                         _______ _______ _______ _____ _____    ______ ____
ROOT
ATOM      1  CA  LEU A   1       2.060   7.141  20.345  0.00  0.00    +0.000 C 
ENDROOT
BRANCH   1   2
ATOM      2  N   LEU A   1       1.632   7.671  19.052  0.00  0.00    +0.000 N 
ATOM      3  C   UNK A   0       2.461   8.044  18.034  0.00  0.00    +0.000 C 
ATOM      4  O   UNK A   0       2.108   8.880  17.211  0.00  0.00    +0.000 OA
ATOM      5  H   LEU A   1       0.741   8.151  19.041  0.00  0.00    +0.000 HD
BRANCH   3   6
ATOM      6  O   UNK A   0       3.652   7.408  18.039  0.00  0.00    +0.000 OA
BRANCH   6   7
ATOM      7  C   UNK A   0       4.172   7.078  16.741  0.00  0.00    +0.000 C 
BRANCH   7   8
ATOM      8  C   UNK A   0       5.398   6.223  16.932  0.00  0.00    +0.000 A 
ATOM      9  C   UNK A   0       5.520   4.977  16.303  0.00  0.00    +0.000 A 
ATOM     10  C   UNK A   0       6.649   4.185  16.521  0.00  0.00    +0.000 A 
ATOM     11  C   UNK A   0       7.661   4.629  17.372  0.00  0.00    +0.000 A 
ATOM     12  C   UNK A   0       7.549   5.868  17.999  0.00  0.00    +0.000 A 
ATOM     13  C   UNK A   0       6.424   6.661  17.781  0.00  0.00    +0.000 A 
ENDBRANCH   7   8
ENDBRANCH   6   7
ENDBRANCH   3   6
ENDBRANCH   1   2
BRANCH   1  14
ATOM     14  C   LEU A   1       1.933   5.599  20.265  0.00  0.00    +0.000 C 
ATOM     15  O   LEU A   1       0.937   5.001  20.674  0.00  0.00    +0.000 OA
ATOM     16  N   UNK A   2       3.010   4.942  19.699  0.00  0.00    +0.000 N 
ATOM     17  H   UNK A   2       3.901   5.425  19.689  0.00  0.00    +0.000 HD
BRANCH  16  18
ATOM     18  C   UNK A   2       3.052   3.478  19.598  0.00  0.00    +0.000 C 
BRANCH  18  19
ATOM     19  C   UNK A   2       2.314   2.929  18.336  0.00  0.00    +0.000 C 
ATOM     20  C   UNK A   2       2.037   4.072  17.336  0.00  0.00    +0.000 C 
ATOM     21  C   UNK A   2       3.209   1.892  17.626  0.00  0.00    +0.000 C 
ATOM     22  C   UNK A   2       0.970   2.256  18.679  0.00  0.00    +0.000 C 
ENDBRANCH  18  19
BRANCH  18  23
ATOM     23  C   UNK A   2       4.515   3.038  19.642  0.00  0.00    +0.000 C 
ATOM     24  O   UNK A   2       5.467   3.820  19.701  0.00  0.00    +0.000 OA
ENDBRANCH  18  23
ENDBRANCH  16  18
ENDBRANCH   1  14
BRANCH   1  25
ATOM     25  CB  LEU A   1       1.137   7.728  21.434  0.00  0.00    +0.000 C 
BRANCH  25  27
ATOM     26  CD1 LEU A   1      -0.141   9.716  20.485  0.00  0.00    +0.000 C 
ATOM     27  CG  LEU A   1       0.972   9.251  21.422  0.00  0.00    +0.000 C 
ATOM     28  CD2 LEU A   1       0.681   9.756  22.845  0.00  0.00    +0.000 C 
ENDBRANCH  25  27
ENDBRANCH   1  25
TORSDOF 10
ENDMDL
MODEL 2
REMARK VINA RESULT:      -6.5      2.117      6.055
REMARK  Name = 
REMARK  15 active torsions:
REMARK  status: ('A' for Active; 'I' for Inactive)
REMARK    1  A    between atoms: CD1_1  and  CG_2
REMARK    2  A    between atoms: CG_2  and  CD2_3
REMARK    3  A    between atoms: CG_2  and  CB_4
REMARK    4  A    between atoms: CB_4  and  CA_5
REMARK    5  A    between atoms: CA_5  and  N_6
REMARK    6  A    between atoms: CA_5  and  C_17
REMARK    7  A    between atoms: C_7  and  O_9
REMARK    8  A    between atoms: O_9  and  C_10
REMARK    9  A    between atoms: C_10  and  C_11
REMARK   10  A    between atoms: N_19  and  C_20
REMARK   11  A    between atoms: C_20  and  C_21
REMARK   12  A    between atoms: C_20  and  C_23
REMARK   13  A    between atoms: C_23  and  C_24
REMARK   14  A    between atoms: C_23  and  C_25
REMARK   15  A    between atoms: C_23  and  C_26
REMARK                            x       y       z     vdW  Elec       q    Type
REMARK                         _______ _______ _______ _____ _____    ______ ____
ROOT
ATOM      1  CA  LEU A   1       5.549   4.866  16.104  0.00  0.00    +0.000 C 
ENDROOT
BRANCH   1   2
ATOM      2  N   LEU A   1       6.531   5.857  16.538  0.00  0.00    +0.000 N 
ATOM      3  C   UNK A   0       6.245   7.036  17.164  0.00  0.00    +0.000 C 
ATOM      4  O   UNK A   0       7.006   7.993  17.079  0.00  0.00    +0.000 OA
ATOM      5  H   LEU A   1       7.402   5.878  16.021  0.00  0.00    +0.000 HD
BRANCH   3   6
ATOM      6  O   UNK A   0       5.087   7.019  17.857  0.00  0.00    +0.000 OA
BRANCH   6   7
ATOM      7  C   UNK A   0       3.930   7.445  17.120  0.00  0.00    +0.000 C 
BRANCH   7   8
ATOM      8  C   UNK A   0       2.920   7.978  18.103  0.00  0.00    +0.000 A 
ATOM      9  C   UNK A   0       2.694   7.341  19.330  0.00  0.00    +0.000 A 
ATOM     10  C   UNK A   0       1.727   7.830  20.212  0.00  0.00    +0.000 A 
ATOM     11  C   UNK A   0       0.978   8.957  19.872  0.00  0.00    +0.000 A 
ATOM     12  C   UNK A   0       1.198   9.598  18.655  0.00  0.00    +0.000 A 
ATOM     13  C   UNK A   0       2.164   9.112  17.774  0.00  0.00    +0.000 A 
ENDBRANCH   7   8
ENDBRANCH   6   7
ENDBRANCH   3   6
ENDBRANCH   1   2
BRANCH   1  14
ATOM     14  C   LEU A   1       5.081   4.110  17.372  0.00  0.00    +0.000 C 
ATOM     15  O   LEU A   1       5.852   3.825  18.288  0.00  0.00    +0.000 OA
ATOM     16  N   UNK A   2       3.739   3.781  17.406  0.00  0.00    +0.000 N 
ATOM     17  H   UNK A   2       3.243   3.740  16.523  0.00  0.00    +0.000 HD
BRANCH  16  18
ATOM     18  C   UNK A   2       3.160   3.023  18.523  0.00  0.00    +0.000 C 
BRANCH  18  19
ATOM     19  C   UNK A   2       1.688   3.435  18.845  0.00  0.00    +0.000 C 
ATOM     20  C   UNK A   2       0.762   2.201  18.796  0.00  0.00    +0.000 C 
ATOM     21  C   UNK A   2       1.616   4.018  20.273  0.00  0.00    +0.000 C 
ATOM     22  C   UNK A   2       1.136   4.487  17.863  0.00  0.00    +0.000 C 
ENDBRANCH  18  19
BRANCH  18  23
ATOM     23  C   UNK A   2       3.280   1.534  18.202  0.00  0.00    +0.000 C 
ATOM     24  O   UNK A   2       4.142   0.793  18.685  0.00  0.00    +0.000 OA
ENDBRANCH  18  23
ENDBRANCH  16  18
ENDBRANCH   1  14
BRANCH   1  25
ATOM     25  CB  LEU A   1       6.237   3.916  15.101  0.00  0.00    +0.000 C 
BRANCH  25  27
ATOM     26  CD1 LEU A   1       7.731   5.020  13.357  0.00  0.00    +0.000 C 
ATOM     27  CG  LEU A   1       6.355   4.431  13.662  0.00  0.00    +0.000 C 
ATOM     28  CD2 LEU A   1       6.060   3.291  12.674  0.00  0.00    +0.000 C 
ENDBRANCH  25  27
ENDBRANCH   1  25
TORSDOF 10
ENDMDL
MODEL 3
REMARK VINA RESULT:      -6.4      1.598      6.332
REMARK  Name = 
REMARK  15 active torsions:
REMARK  status: ('A' for Active; 'I' for Inactive)
REMARK    1  A    between atoms: CD1_1  and  CG_2
REMARK    2  A    between atoms: CG_2  and  CD2_3
REMARK    3  A    between atoms: CG_2  and  CB_4
REMARK    4  A    between atoms: CB_4  and  CA_5
REMARK    5  A    between atoms: CA_5  and  N_6
REMARK    6  A    between atoms: CA_5  and  C_17
REMARK    7  A    between atoms: C_7  and  O_9
REMARK    8  A    between atoms: O_9  and  C_10
REMARK    9  A    between atoms: C_10  and  C_11
REMARK   10  A    between atoms: N_19  and  C_20
REMARK   11  A    between atoms: C_20  and  C_21
REMARK   12  A    between atoms: C_20  and  C_23
REMARK   13  A    between atoms: C_23  and  C_24
REMARK   14  A    between atoms: C_23  and  C_25
REMARK   15  A    between atoms: C_23  and  C_26
REMARK                            x       y       z     vdW  Elec       q    Type
REMARK                         _______ _______ _______ _____ _____    ______ ____
ROOT
ATOM      1  CA  LEU A   1       2.719   5.475  20.297  0.00  0.00    +0.000 C 
ENDROOT
BRANCH   1   2
ATOM      2  N   LEU A   1       2.706   6.780  19.640  0.00  0.00    +0.000 N 
ATOM      3  C   UNK A   0       1.802   7.776  19.871  0.00  0.00    +0.000 C 
ATOM      4  O   UNK A   0       1.552   8.610  19.010  0.00  0.00    +0.000 OA
ATOM      5  H   LEU A   1       3.116   6.816  18.715  0.00  0.00    +0.000 HD
BRANCH   3   6
ATOM      6  O   UNK A   0       1.251   7.737  21.103  0.00  0.00    +0.000 OA
BRANCH   6   7
ATOM      7  C   UNK A   0       1.716   8.748  22.011  0.00  0.00    +0.000 C 
BRANCH   7   8
ATOM      8  C   UNK A   0       0.650   9.809  22.114  0.00  0.00    +0.000 A 
ATOM      9  C   UNK A   0       0.656  10.930  21.274  0.00  0.00    +0.000 A 
ATOM     10  C   UNK A   0      -0.320  11.919  21.410  0.00  0.00    +0.000 A 
ATOM     11  C   UNK A   0      -1.307  11.797  22.388  0.00  0.00    +0.000 A 
ATOM     12  C   UNK A   0      -1.322  10.684  23.226  0.00  0.00    +0.000 A 
ATOM     13  C   UNK A   0      -0.350   9.695  23.091  0.00  0.00    +0.000 A 
ENDBRANCH   7   8
ENDBRANCH   6   7
ENDBRANCH   3   6
ENDBRANCH   1   2
BRANCH   1  14
ATOM     14  C   LEU A   1       3.971   4.722  19.783  0.00  0.00    +0.000 C 
ATOM     15  O   LEU A   1       4.261   3.590  20.170  0.00  0.00    +0.000 OA
ATOM     16  N   UNK A   2       4.737   5.405  18.858  0.00  0.00    +0.000 N 
ATOM     17  H   UNK A   2       4.648   6.415  18.829  0.00  0.00    +0.000 HD
BRANCH  16  18
ATOM     18  C   UNK A   2       5.979   4.837  18.315  0.00  0.00    +0.000 C 
BRANCH  18  19
ATOM     19  C   UNK A   2       6.034   4.863  16.755  0.00  0.00    +0.000 C 
ATOM     20  C   UNK A   2       5.102   3.782  16.167  0.00  0.00    +0.000 C 
ATOM     21  C   UNK A   2       5.542   6.234  16.244  0.00  0.00    +0.000 C 
ATOM     22  C   UNK A   2       7.454   4.621  16.206  0.00  0.00    +0.000 C 
ENDBRANCH  18  19
BRANCH  18  23
ATOM     23  C   UNK A   2       7.158   5.581  18.942  0.00  0.00    +0.000 C 
ATOM     24  O   UNK A   2       7.507   5.451  20.118  0.00  0.00    +0.000 OA
ENDBRANCH  18  23
ENDBRANCH  16  18
ENDBRANCH   1  14
BRANCH   1  25
ATOM     25  CB  LEU A   1       1.419   4.733  19.918  0.00  0.00    +0.000 C 
BRANCH  25  27
ATOM     26  CD1 LEU A   1       0.581   2.501  19.021  0.00  0.00    +0.000 C 
ATOM     27  CG  LEU A   1       1.552   3.664  18.828  0.00  0.00    +0.000 C 
ATOM     28  CD2 LEU A   1       1.319   4.296  17.446  0.00  0.00    +0.000 C 
ENDBRANCH  25  27
ENDBRANCH   1  25
TORSDOF 10
ENDMDL
MODEL 4
REMARK VINA RESULT:      -6.4      0.737      1.226
REMARK  Name = 
REMARK  15 active torsions:
REMARK  status: ('A' for Active; 'I' for Inactive)
REMARK    1  A    between atoms: CD1_1  and  CG_2
REMARK    2  A    between atoms: CG_2  and  CD2_3
REMARK    3  A    between atoms: CG_2  and  CB_4
REMARK    4  A    between atoms: CB_4  and  CA_5
REMARK    5  A    between atoms: CA_5  and  N_6
REMARK    6  A    between atoms: CA_5  and  C_17
REMARK    7  A    between atoms: C_7  and  O_9
REMARK    8  A    between atoms: O_9  and  C_10
REMARK    9  A    between atoms: C_10  and  C_11
REMARK   10  A    between atoms: N_19  and  C_20
REMARK   11  A    between atoms: C_20  and  C_21
REMARK   12  A    between atoms: C_20  and  C_23
REMARK   13  A    between atoms: C_23  and  C_24
REMARK   14  A    between atoms: C_23  and  C_25
REMARK   15  A    between atoms: C_23  and  C_26
REMARK                            x       y       z     vdW  Elec       q    Type
REMARK                         _______ _______ _______ _____ _____    ______ ____
ROOT
ATOM      1  CA  LEU A   1       2.378   7.263  20.337  0.00  0.00    +0.000 C 
ENDROOT
BRANCH   1   2
ATOM      2  N   LEU A   1       1.885   7.829  19.083  0.00  0.00    +0.000 N 
ATOM      3  C   UNK A   0       2.608   7.959  17.933  0.00  0.00    +0.000 C 
ATOM      4  O   UNK A   0       2.329   8.823  17.110  0.00  0.00    +0.000 OA
ATOM      5  H   LEU A   1       1.134   8.503  19.164  0.00  0.00    +0.000 HD
BRANCH   3   6
ATOM      6  O   UNK A   0       3.612   7.064  17.815  0.00  0.00    +0.000 OA
BRANCH   6   7
ATOM      7  C   UNK A   0       4.747   7.518  17.062  0.00  0.00    +0.000 C 
BRANCH   7   8
ATOM      8  C   UNK A   0       5.513   6.308  16.595  0.00  0.00    +0.000 A 
ATOM      9  C   UNK A   0       6.542   5.755  17.369  0.00  0.00    +0.000 A 
ATOM     10  C   UNK A   0       7.263   4.655  16.901  0.00  0.00    +0.000 A 
ATOM     11  C   UNK A   0       6.964   4.100  15.657  0.00  0.00    +0.000 A 
ATOM     12  C   UNK A   0       5.941   4.642  14.882  0.00  0.00    +0.000 A 
ATOM     13  C   UNK A   0       5.219   5.739  15.348  0.00  0.00    +0.000 A 
ENDBRANCH   7   8
ENDBRANCH   6   7
ENDBRANCH   3   6
ENDBRANCH   1   2
BRANCH   1  14
ATOM     14  C   LEU A   1       2.059   5.748  20.305  0.00  0.00    +0.000 C 
ATOM     15  O   LEU A   1       1.032   5.283  20.802  0.00  0.00    +0.000 OA
ATOM     16  N   UNK A   2       3.000   4.955  19.677  0.00  0.00    +0.000 N 
ATOM     17  H   UNK A   2       3.941   5.324  19.588  0.00  0.00    +0.000 HD
BRANCH  16  18
ATOM     18  C   UNK A   2       2.856   3.494  19.609  0.00  0.00    +0.000 C 
BRANCH  18  19
ATOM     19  C   UNK A   2       1.998   3.019  18.394  0.00  0.00    +0.000 C 
ATOM     20  C   UNK A   2       1.621   4.220  17.500  0.00  0.00    +0.000 C 
ATOM     21  C   UNK A   2       2.822   2.036  17.535  0.00  0.00    +0.000 C 
ATOM     22  C   UNK A   2       0.696   2.314  18.824  0.00  0.00    +0.000 C 
ENDBRANCH  18  19
BRANCH  18  23
ATOM     23  C   UNK A   2       4.254   2.876  19.600  0.00  0.00    +0.000 C 
ATOM     24  O   UNK A   2       5.295   3.528  19.720  0.00  0.00    +0.000 OA
ENDBRANCH  18  23
ENDBRANCH  16  18
ENDBRANCH   1  14
BRANCH   1  25
ATOM     25  CB  LEU A   1       1.651   7.969  21.502  0.00  0.00    +0.000 C 
BRANCH  25  27
ATOM     26  CD1 LEU A   1      -0.763   8.638  21.965  0.00  0.00    +0.000 C 
ATOM     27  CG  LEU A   1       0.479   8.875  21.108  0.00  0.00    +0.000 C 
ATOM     28  CD2 LEU A   1       0.900  10.350  21.221  0.00  0.00    +0.000 C 
ENDBRANCH  25  27
ENDBRANCH   1  25
TORSDOF 10
ENDMDL
MODEL 5
REMARK VINA RESULT:      -6.4      3.260      6.826
REMARK  Name = 
REMARK  15 active torsions:
REMARK  status: ('A' for Active; 'I' for Inactive)
REMARK    1  A    between atoms: CD1_1  and  CG_2
REMARK    2  A    between atoms: CG_2  and  CD2_3
REMARK    3  A    between atoms: CG_2  and  CB_4
REMARK    4  A    between atoms: CB_4  and  CA_5
REMARK    5  A    between atoms: CA_5  and  N_6
REMARK    6  A    between atoms: CA_5  and  C_17
REMARK    7  A    between atoms: C_7  and  O_9
REMARK    8  A    between atoms: O_9  and  C_10
REMARK    9  A    between atoms: C_10  and  C_11
REMARK   10  A    between atoms: N_19  and  C_20
REMARK   11  A    between atoms: C_20  and  C_21
REMARK   12  A    between atoms: C_20  and  C_23
REMARK   13  A    between atoms: C_23  and  C_24
REMARK   14  A    between atoms: C_23  and  C_25
REMARK   15  A    between atoms: C_23  and  C_26
REMARK                            x       y       z     vdW  Elec       q    Type
REMARK                         _______ _______ _______ _____ _____    ______ ____
ROOT
ATOM      1  CA  LEU A   1       5.601   5.073  16.641  0.00  0.00    +0.000 C 
ENDROOT
BRANCH   1   2
ATOM      2  N   LEU A   1       5.501   4.007  17.635  0.00  0.00    +0.000 N 
ATOM      3  C   UNK A   0       4.696   4.022  18.736  0.00  0.00    +0.000 C 
ATOM      4  O   UNK A   0       4.981   3.369  19.733  0.00  0.00    +0.000 OA
ATOM      5  H   LEU A   1       6.320   3.422  17.744  0.00  0.00    +0.000 HD
BRANCH   3   6
ATOM      6  O   UNK A   0       3.600   4.799  18.601  0.00  0.00    +0.000 OA
BRANCH   6   7
ATOM      7  C   UNK A   0       3.163   5.451  19.803  0.00  0.00    +0.000 C 
BRANCH   7   8
ATOM      8  C   UNK A   0       2.532   6.765  19.419  0.00  0.00    +0.000 A 
ATOM      9  C   UNK A   0       2.649   7.276  18.120  0.00  0.00    +0.000 A 
ATOM     10  C   UNK A   0       2.088   8.512  17.795  0.00  0.00    +0.000 A 
ATOM     11  C   UNK A   0       1.407   9.247  18.766  0.00  0.00    +0.000 A 
ATOM     12  C   UNK A   0       1.283   8.746  20.059  0.00  0.00    +0.000 A 
ATOM     13  C   UNK A   0       1.842   7.511  20.385  0.00  0.00    +0.000 A 
ENDBRANCH   7   8
ENDBRANCH   6   7
ENDBRANCH   3   6
ENDBRANCH   1   2
BRANCH   1  14
ATOM     14  C   LEU A   1       6.714   4.661  15.646  0.00  0.00    +0.000 C 
ATOM     15  O   LEU A   1       7.834   4.313  16.022  0.00  0.00    +0.000 OA
ATOM     16  N   UNK A   2       6.364   4.704  14.310  0.00  0.00    +0.000 N 
ATOM     17  H   UNK A   2       5.579   5.292  14.050  0.00  0.00    +0.000 HD
BRANCH  16  18
ATOM     18  C   UNK A   2       7.328   4.385  13.250  0.00  0.00    +0.000 C 
BRANCH  18  19
ATOM     19  C   UNK A   2       6.672   3.697  12.011  0.00  0.00    +0.000 C 
ATOM     20  C   UNK A   2       5.170   3.447  12.268  0.00  0.00    +0.000 C 
ATOM     21  C   UNK A   2       6.789   4.626  10.783  0.00  0.00    +0.000 C 
ATOM     22  C   UNK A   2       7.329   2.347  11.662  0.00  0.00    +0.000 C 
ENDBRANCH  18  19
BRANCH  18  23
ATOM     23  C   UNK A   2       8.062   5.670  12.869  0.00  0.00    +0.000 C 
ATOM     24  O   UNK A   2       9.084   6.072  13.433  0.00  0.00    +0.000 OA
ENDBRANCH  18  23
ENDBRANCH  16  18
ENDBRANCH   1  14
BRANCH   1  25
ATOM     25  CB  LEU A   1       5.959   6.383  17.377  0.00  0.00    +0.000 C 
BRANCH  25  27
ATOM     26  CD1 LEU A   1       7.849   8.085  17.526  0.00  0.00    +0.000 C 
ATOM     27  CG  LEU A   1       7.450   6.615  17.644  0.00  0.00    +0.000 C 
ATOM     28  CD2 LEU A   1       7.814   6.102  19.047  0.00  0.00    +0.000 C 
ENDBRANCH  25  27
ENDBRANCH   1  25
TORSDOF 10
ENDMDL
MODEL 6
REMARK VINA RESULT:      -6.4      1.014      1.614
REMARK  Name = 
REMARK  15 active torsions:
REMARK  status: ('A' for Active; 'I' for Inactive)
REMARK    1  A    between atoms: CD1_1  and  CG_2
REMARK    2  A    between atoms: CG_2  and  CD2_3
REMARK    3  A    between atoms: CG_2  and  CB_4
REMARK    4  A    between atoms: CB_4  and  CA_5
REMARK    5  A    between atoms: CA_5  and  N_6
REMARK    6  A    between atoms: CA_5  and  C_17
REMARK    7  A    between atoms: C_7  and  O_9
REMARK    8  A    between atoms: O_9  and  C_10
REMARK    9  A    between atoms: C_10  and  C_11
REMARK   10  A    between atoms: N_19  and  C_20
REMARK   11  A    between atoms: C_20  and  C_21
REMARK   12  A    between atoms: C_20  and  C_23
REMARK   13  A    between atoms: C_23  and  C_24
REMARK   14  A    between atoms: C_23  and  C_25
REMARK   15  A    between atoms: C_23  and  C_26
REMARK                            x       y       z     vdW  Elec       q    Type
REMARK                         _______ _______ _______ _____ _____    ______ ____
ROOT
ATOM      1  CA  LEU A   1       2.374   7.237  20.384  0.00  0.00    +0.000 C 
ENDROOT
BRANCH   1   2
ATOM      2  N   LEU A   1       1.928   7.820  19.121  0.00  0.00    +0.000 N 
ATOM      3  C   UNK A   0       2.678   7.918  17.985  0.00  0.00    +0.000 C 
ATOM      4  O   UNK A   0       2.450   8.790  17.155  0.00  0.00    +0.000 OA
ATOM      5  H   LEU A   1       1.204   8.524  19.186  0.00  0.00    +0.000 HD
BRANCH   3   6
ATOM      6  O   UNK A   0       3.646   6.982  17.887  0.00  0.00    +0.000 OA
BRANCH   6   7
ATOM      7  C   UNK A   0       4.711   7.300  16.978  0.00  0.00    +0.000 C 
BRANCH   7   8
ATOM      8  C   UNK A   0       5.151   6.024  16.308  0.00  0.00    +0.000 A 
ATOM      9  C   UNK A   0       5.329   4.843  17.040  0.00  0.00    +0.000 A 
ATOM     10  C   UNK A   0       5.772   3.680  16.406  0.00  0.00    +0.000 A 
ATOM     11  C   UNK A   0       6.043   3.690  15.037  0.00  0.00    +0.000 A 
ATOM     12  C   UNK A   0       5.865   4.859  14.301  0.00  0.00    +0.000 A 
ATOM     13  C   UNK A   0       5.422   6.021  14.932  0.00  0.00    +0.000 A 
ENDBRANCH   7   8
ENDBRANCH   6   7
ENDBRANCH   3   6
ENDBRANCH   1   2
BRANCH   1  14
ATOM     14  C   LEU A   1       1.970   5.742  20.359  0.00  0.00    +0.000 C 
ATOM     15  O   LEU A   1       0.866   5.354  20.743  0.00  0.00    +0.000 OA
ATOM     16  N   UNK A   2       2.929   4.874  19.872  0.00  0.00    +0.000 N 
ATOM     17  H   UNK A   2       3.894   5.186  19.886  0.00  0.00    +0.000 HD
BRANCH  16  18
ATOM     18  C   UNK A   2       2.706   3.423  19.831  0.00  0.00    +0.000 C 
BRANCH  18  19
ATOM     19  C   UNK A   2       2.019   2.946  18.512  0.00  0.00    +0.000 C 
ATOM     20  C   UNK A   2       2.883   1.874  17.813  0.00  0.00    +0.000 C 
ATOM     21  C   UNK A   2       0.655   2.305  18.845  0.00  0.00    +0.000 C 
ATOM     22  C   UNK A   2       1.784   4.097  17.514  0.00  0.00    +0.000 C 
ENDBRANCH  18  19
BRANCH  18  23
ATOM     23  C   UNK A   2       4.048   2.727  20.062  0.00  0.00    +0.000 C 
ATOM     24  O   UNK A   2       5.143   3.265  19.876  0.00  0.00    +0.000 OA
ENDBRANCH  18  23
ENDBRANCH  16  18
ENDBRANCH   1  14
BRANCH   1  25
ATOM     25  CB  LEU A   1       1.674   7.991  21.535  0.00  0.00    +0.000 C 
BRANCH  25  27
ATOM     26  CD1 LEU A   1      -0.732   8.678  22.018  0.00  0.00    +0.000 C 
ATOM     27  CG  LEU A   1       0.495   8.883  21.131  0.00  0.00    +0.000 C 
ATOM     28  CD2 LEU A   1       0.917  10.361  21.184  0.00  0.00    +0.000 C 
ENDBRANCH  25  27
ENDBRANCH   1  25
TORSDOF 10
ENDMDL
MODEL 7
REMARK VINA RESULT:      -6.4      3.241      5.414
REMARK  Name = 
REMARK  15 active torsions:
REMARK  status: ('A' for Active; 'I' for Inactive)
REMARK    1  A    between atoms: CD1_1  and  CG_2
REMARK    2  A    between atoms: CG_2  and  CD2_3
REMARK    3  A    between atoms: CG_2  and  CB_4
REMARK    4  A    between atoms: CB_4  and  CA_5
REMARK    5  A    between atoms: CA_5  and  N_6
REMARK    6  A    between atoms: CA_5  and  C_17
REMARK    7  A    between atoms: C_7  and  O_9
REMARK    8  A    between atoms: O_9  and  C_10
REMARK    9  A    between atoms: C_10  and  C_11
REMARK   10  A    between atoms: N_19  and  C_20
REMARK   11  A    between atoms: C_20  and  C_21
REMARK   12  A    between atoms: C_20  and  C_23
REMARK   13  A    between atoms: C_23  and  C_24
REMARK   14  A    between atoms: C_23  and  C_25
REMARK   15  A    between atoms: C_23  and  C_26
REMARK                            x       y       z     vdW  Elec       q    Type
REMARK                         _______ _______ _______ _____ _____    ______ ____
ROOT
ATOM      1  CA  LEU A   1       5.698   4.369  17.473  0.00  0.00    +0.000 C 
ENDROOT
BRANCH   1   2
ATOM      2  N   LEU A   1       5.079   5.300  16.531  0.00  0.00    +0.000 N 
ATOM      3  C   UNK A   0       5.556   5.605  15.289  0.00  0.00    +0.000 C 
ATOM      4  O   UNK A   0       5.293   6.679  14.762  0.00  0.00    +0.000 OA
ATOM      5  H   LEU A   1       4.517   6.036  16.938  0.00  0.00    +0.000 HD
BRANCH   3   6
ATOM      6  O   UNK A   0       6.306   4.628  14.737  0.00  0.00    +0.000 OA
BRANCH   6   7
ATOM      7  C   UNK A   0       6.803   4.912  13.420  0.00  0.00    +0.000 C 
BRANCH   7   8
ATOM      8  C   UNK A   0       6.499   3.726  12.540  0.00  0.00    +0.000 A 
ATOM      9  C   UNK A   0       7.526   2.977  11.950  0.00  0.00    +0.000 A 
ATOM     10  C   UNK A   0       7.223   1.904  11.110  0.00  0.00    +0.000 A 
ATOM     11  C   UNK A   0       5.892   1.574  10.850  0.00  0.00    +0.000 A 
ATOM     12  C   UNK A   0       4.865   2.312  11.435  0.00  0.00    +0.000 A 
ATOM     13  C   UNK A   0       5.166   3.382  12.276  0.00  0.00    +0.000 A 
ENDBRANCH   7   8
ENDBRANCH   6   7
ENDBRANCH   3   6
ENDBRANCH   1   2
BRANCH   1  14
ATOM     14  C   LEU A   1       4.861   4.422  18.775  0.00  0.00    +0.000 C 
ATOM     15  O   LEU A   1       4.679   5.470  19.396  0.00  0.00    +0.000 OA
ATOM     16  N   UNK A   2       4.328   3.216  19.189  0.00  0.00    +0.000 N 
ATOM     17  H   UNK A   2       4.767   2.367  18.847  0.00  0.00    +0.000 HD
BRANCH  16  18
ATOM     18  C   UNK A   2       3.551   3.102  20.430  0.00  0.00    +0.000 C 
BRANCH  18  19
ATOM     19  C   UNK A   2       2.010   3.035  20.185  0.00  0.00    +0.000 C 
ATOM     20  C   UNK A   2       1.690   2.039  19.050  0.00  0.00    +0.000 C 
ATOM     21  C   UNK A   2       1.306   2.531  21.463  0.00  0.00    +0.000 C 
ATOM     22  C   UNK A   2       1.408   4.402  19.806  0.00  0.00    +0.000 C 
ENDBRANCH  18  19
BRANCH  18  23
ATOM     23  C   UNK A   2       4.061   1.886  21.203  0.00  0.00    +0.000 C 
ATOM     24  O   UNK A   2       5.244   1.534  21.230  0.00  0.00    +0.000 OA
ENDBRANCH  18  23
ENDBRANCH  16  18
ENDBRANCH   1  14
BRANCH   1  25
ATOM     25  CB  LEU A   1       7.151   4.828  17.717  0.00  0.00    +0.000 C 
BRANCH  25  27
ATOM     26  CD1 LEU A   1       8.295   5.754  19.797  0.00  0.00    +0.000 C 
ATOM     27  CG  LEU A   1       7.326   6.032  18.650  0.00  0.00    +0.000 C 
ATOM     28  CD2 LEU A   1       7.824   7.245  17.848  0.00  0.00    +0.000 C 
ENDBRANCH  25  27
ENDBRANCH   1  25
TORSDOF 10
ENDMDL
MODEL 8
REMARK VINA RESULT:      -6.3      1.357      1.911
REMARK  Name = 
REMARK  15 active torsions:
REMARK  status: ('A' for Active; 'I' for Inactive)
REMARK    1  A    between atoms: CD1_1  and  CG_2
REMARK    2  A    between atoms: CG_2  and  CD2_3
REMARK    3  A    between atoms: CG_2  and  CB_4
REMARK    4  A    between atoms: CB_4  and  CA_5
REMARK    5  A    between atoms: CA_5  and  N_6
REMARK    6  A    between atoms: CA_5  and  C_17
REMARK    7  A    between atoms: C_7  and  O_9
REMARK    8  A    between atoms: O_9  and  C_10
REMARK    9  A    between atoms: C_10  and  C_11
REMARK   10  A    between atoms: N_19  and  C_20
REMARK   11  A    between atoms: C_20  and  C_21
REMARK   12  A    between atoms: C_20  and  C_23
REMARK   13  A    between atoms: C_23  and  C_24
REMARK   14  A    between atoms: C_23  and  C_25
REMARK   15  A    between atoms: C_23  and  C_26
REMARK                            x       y       z     vdW  Elec       q    Type
REMARK                         _______ _______ _______ _____ _____    ______ ____
ROOT
ATOM      1  CA  LEU A   1       2.315   6.920  19.913  0.00  0.00    +0.000 C 
ENDROOT
BRANCH   1   2
ATOM      2  N   LEU A   1       1.819   7.701  18.783  0.00  0.00    +0.000 N 
ATOM      3  C   UNK A   0       2.596   8.355  17.870  0.00  0.00    +0.000 C 
ATOM      4  O   UNK A   0       2.168   9.331  17.266  0.00  0.00    +0.000 OA
ATOM      5  H   LEU A   1       0.899   8.108  18.891  0.00  0.00    +0.000 HD
BRANCH   3   6
ATOM      6  O   UNK A   0       3.826   7.819  17.716  0.00  0.00    +0.000 OA
BRANCH   6   7
ATOM      7  C   UNK A   0       4.059   7.185  16.449  0.00  0.00    +0.000 C 
BRANCH   7   8
ATOM      8  C   UNK A   0       5.284   6.317  16.580  0.00  0.00    +0.000 A 
ATOM      9  C   UNK A   0       5.432   5.148  15.822  0.00  0.00    +0.000 A 
ATOM     10  C   UNK A   0       6.558   4.339  15.984  0.00  0.00    +0.000 A 
ATOM     11  C   UNK A   0       7.544   4.690  16.907  0.00  0.00    +0.000 A 
ATOM     12  C   UNK A   0       7.407   5.852  17.663  0.00  0.00    +0.000 A 
ATOM     13  C   UNK A   0       6.284   6.662  17.501  0.00  0.00    +0.000 A 
ENDBRANCH   7   8
ENDBRANCH   6   7
ENDBRANCH   3   6
ENDBRANCH   1   2
BRANCH   1  14
ATOM     14  C   LEU A   1       2.264   5.431  19.490  0.00  0.00    +0.000 C 
ATOM     15  O   LEU A   1       1.874   5.079  18.376  0.00  0.00    +0.000 OA
ATOM     16  N   UNK A   2       2.690   4.526  20.444  0.00  0.00    +0.000 N 
ATOM     17  H   UNK A   2       2.680   4.826  21.413  0.00  0.00    +0.000 HD
BRANCH  16  18
ATOM     18  C   UNK A   2       2.655   3.078  20.202  0.00  0.00    +0.000 C 
BRANCH  18  19
ATOM     19  C   UNK A   2       3.966   2.534  19.549  0.00  0.00    +0.000 C 
ATOM     20  C   UNK A   2       4.662   1.532  20.495  0.00  0.00    +0.000 C 
ATOM     21  C   UNK A   2       3.618   1.784  18.245  0.00  0.00    +0.000 C 
ATOM     22  C   UNK A   2       4.971   3.653  19.212  0.00  0.00    +0.000 C 
ENDBRANCH  18  19
BRANCH  18  23
ATOM     23  C   UNK A   2       2.343   2.380  21.526  0.00  0.00    +0.000 C 
ATOM     24  O   UNK A   2       1.349   2.624  22.215  0.00  0.00    +0.000 OA
ENDBRANCH  18  23
ENDBRANCH  16  18
ENDBRANCH   1  14
BRANCH   1  25
ATOM     25  CB  LEU A   1       1.398   7.194  21.125  0.00  0.00    +0.000 C 
BRANCH  25  27
ATOM     26  CD1 LEU A   1      -0.622   8.705  21.481  0.00  0.00    +0.000 C 
ATOM     27  CG  LEU A   1       0.889   8.632  21.268  0.00  0.00    +0.000 C 
ATOM     28  CD2 LEU A   1       1.601   9.323  22.442  0.00  0.00    +0.000 C 
ENDBRANCH  25  27
ENDBRANCH   1  25
TORSDOF 10
ENDMDL
MODEL 9
REMARK VINA RESULT:      -6.3      0.690      1.137
REMARK  Name = 
REMARK  15 active torsions:
REMARK  status: ('A' for Active; 'I' for Inactive)
REMARK    1  A    between atoms: CD1_1  and  CG_2
REMARK    2  A    between atoms: CG_2  and  CD2_3
REMARK    3  A    between atoms: CG_2  and  CB_4
REMARK    4  A    between atoms: CB_4  and  CA_5
REMARK    5  A    between atoms: CA_5  and  N_6
REMARK    6  A    between atoms: CA_5  and  C_17
REMARK    7  A    between atoms: C_7  and  O_9
REMARK    8  A    between atoms: O_9  and  C_10
REMARK    9  A    between atoms: C_10  and  C_11
REMARK   10  A    between atoms: N_19  and  C_20
REMARK   11  A    between atoms: C_20  and  C_21
REMARK   12  A    between atoms: C_20  and  C_23
REMARK   13  A    between atoms: C_23  and  C_24
REMARK   14  A    between atoms: C_23  and  C_25
REMARK   15  A    between atoms: C_23  and  C_26
REMARK                            x       y       z     vdW  Elec       q    Type
REMARK                         _______ _______ _______ _____ _____    ______ ____
ROOT
ATOM      1  CA  LEU A   1       2.305   7.461  20.351  0.00  0.00    +0.000 C 
ENDROOT
BRANCH   1   2
ATOM      2  N   LEU A   1       1.647   8.020  19.173  0.00  0.00    +0.000 N 
ATOM      3  C   UNK A   0       2.194   8.106  17.925  0.00  0.00    +0.000 C 
ATOM      4  O   UNK A   0       1.821   8.963  17.133  0.00  0.00    +0.000 OA
ATOM      5  H   LEU A   1       0.937   8.720  19.349  0.00  0.00    +0.000 HD
BRANCH   3   6
ATOM      6  O   UNK A   0       3.141   7.176  17.679  0.00  0.00    +0.000 OA
BRANCH   6   7
ATOM      7  C   UNK A   0       4.387   7.693  17.186  0.00  0.00    +0.000 C 
BRANCH   7   8
ATOM      8  C   UNK A   0       5.362   6.547  17.087  0.00  0.00    +0.000 A 
ATOM      9  C   UNK A   0       5.042   5.379  16.383  0.00  0.00    +0.000 A 
ATOM     10  C   UNK A   0       5.944   4.315  16.334  0.00  0.00    +0.000 A 
ATOM     11  C   UNK A   0       7.172   4.409  16.990  0.00  0.00    +0.000 A 
ATOM     12  C   UNK A   0       7.500   5.568  17.690  0.00  0.00    +0.000 A 
ATOM     13  C   UNK A   0       6.600   6.632  17.739  0.00  0.00    +0.000 A 
ENDBRANCH   7   8
ENDBRANCH   6   7
ENDBRANCH   3   6
ENDBRANCH   1   2
BRANCH   1  14
ATOM     14  C   LEU A   1       2.064   5.931  20.319  0.00  0.00    +0.000 C 
ATOM     15  O   LEU A   1       1.073   5.412  20.834  0.00  0.00    +0.000 OA
ATOM     16  N   UNK A   2       3.033   5.190  19.669  0.00  0.00    +0.000 N 
ATOM     17  H   UNK A   2       3.951   5.608  19.564  0.00  0.00    +0.000 HD
BRANCH  16  18
ATOM     18  C   UNK A   2       2.964   3.725  19.599  0.00  0.00    +0.000 C 
BRANCH  18  19
ATOM     19  C   UNK A   2       2.082   3.209  18.417  0.00  0.00    +0.000 C 
ATOM     20  C   UNK A   2       2.886   2.233  17.532  0.00  0.00    +0.000 C 
ATOM     21  C   UNK A   2       0.867   2.441  18.978  0.00  0.00    +0.000 C 
ATOM     22  C   UNK A   2       1.562   4.351  17.521  0.00  0.00    +0.000 C 
ENDBRANCH  18  19
BRANCH  18  23
ATOM     23  C   UNK A   2       4.391   3.182  19.527  0.00  0.00    +0.000 C 
ATOM     24  O   UNK A   2       4.836   2.314  20.283  0.00  0.00    +0.000 OA
ENDBRANCH  18  23
ENDBRANCH  16  18
ENDBRANCH   1  14
BRANCH   1  25
ATOM     25  CB  LEU A   1       1.675   8.105  21.605  0.00  0.00    +0.000 C 
BRANCH  25  27
ATOM     26  CD1 LEU A   1      -0.565   8.952  22.476  0.00  0.00    +0.000 C 
ATOM     27  CG  LEU A   1       0.469   9.018  21.354  0.00  0.00    +0.000 C 
ATOM     28  CD2 LEU A   1       0.942  10.471  21.184  0.00  0.00    +0.000 C 
ENDBRANCH  25  27
ENDBRANCH   1  25
TORSDOF 10
ENDMDL
