MODEL 1
REMARK VINA RESULT:      -7.1      0.000      0.000
REMARK  Name = 
REMARK  5 active torsions:
REMARK  status: ('A' for Active; 'I' for Inactive)
REMARK    1  A    between atoms: C_2  and  O_3
REMARK    2  A    between atoms: C_2  and  C_4
REMARK    3  A    between atoms: C_9  and  N_10
REMARK    4  A    between atoms: C_13  and  C_14
REMARK    5  A    between atoms: C_14  and  N_15
REMARK                            x       y       z     vdW  Elec       q    Type
REMARK                         _______ _______ _______ _____ _____    ______ ____
ROOT
ATOM      1  N   UNL     1       4.806   4.633  18.765  0.00  0.00    +0.000 N 
ATOM      2  C   UNL     1       6.022   4.969  19.313  0.00  0.00    +0.000 A 
ATOM      3  N   UNL     1       6.894   5.353  18.403  0.00  0.00    +0.000 NA
ATOM      4  C   UNL     1       6.212   5.306  17.211  0.00  0.00    +0.000 A 
ATOM      5  C   UNL     1       4.959   4.769  17.403  0.00  0.00    +0.000 A 
ENDROOT
BRANCH   1  11
ATOM      6  C   UNL     1       3.358   2.879  19.795  0.00  0.00    +0.000 A 
ATOM      7  C   UNL     1       2.172   2.613  20.513  0.00  0.00    +0.000 A 
ATOM      8  C   UNL     1       1.242   3.623  20.783  0.00  0.00    +0.000 A 
ATOM      9  C   UNL     1       1.482   4.921  20.362  0.00  0.00    +0.000 A 
ATOM     10  C   UNL     1       2.660   5.215  19.676  0.00  0.00    +0.000 A 
ATOM     11  C   UNL     1       3.607   4.206  19.390  0.00  0.00    +0.000 A 
BRANCH   6  13
ATOM     12  O   UNL     1       5.264   1.620  20.504  0.00  0.00    +0.000 OA
ATOM     13  C   UNL     1       4.370   1.783  19.700  0.00  0.00    +0.000 C 
BRANCH  13  14
ATOM     14  O   UNL     1       4.203   0.962  18.640  0.00  0.00    +0.000 OA
ATOM     15  H   UNL     1       3.401   1.086  18.104  0.00  0.00    +0.000 HD
ENDBRANCH  13  14
ENDBRANCH   6  13
ENDBRANCH   1  11
BRANCH   4  16
ATOM     16  C   UNL     1       6.785   5.851  15.938  0.00  0.00    +0.000 C 
BRANCH  16  17
ATOM     17  N   UNL     1       6.715   4.844  14.847  0.00  0.00    +0.000 NA
ATOM     18  C   UNL     1       5.344   4.704  14.335  0.00  0.00    +0.000 C 
ATOM     19  C   UNL     1       5.095   3.378  13.607  0.00  0.00    +0.000 C 
ATOM     20  C   UNL     1       5.556   3.338  12.157  0.00  0.00    +0.000 C 
ATOM     21  C   UNL     1       7.052   3.541  11.980  0.00  0.00    +0.000 C 
ATOM     22  C   UNL     1       7.490   4.946  12.365  0.00  0.00    +0.000 C 
ATOM     23  C   UNL     1       7.759   5.140  13.858  0.00  0.00    +0.000 C 
ENDBRANCH  16  17
ENDBRANCH   4  16
TORSDOF 5
ENDMDL
MODEL 2
REMARK VINA RESULT:      -7.1      0.867      1.019
REMARK  Name = 
REMARK  5 active torsions:
REMARK  status: ('A' for Active; 'I' for Inactive)
REMARK    1  A    between atoms: C_2  and  O_3
REMARK    2  A    between atoms: C_2  and  C_4
REMARK    3  A    between atoms: C_9  and  N_10
REMARK    4  A    between atoms: C_13  and  C_14
REMARK    5  A    between atoms: C_14  and  N_15
REMARK                            x       y       z     vdW  Elec       q    Type
REMARK                         _______ _______ _______ _____ _____    ______ ____
ROOT
ATOM      1  N   UNL     1       4.556   4.542  18.556  0.00  0.00    +0.000 N 
ATOM      2  C   UNL     1       5.806   4.302  19.077  0.00  0.00    +0.000 A 
ATOM      3  N   UNL     1       6.768   4.557  18.213  0.00  0.00    +0.000 NA
ATOM      4  C   UNL     1       6.127   5.020  17.090  0.00  0.00    +0.000 A 
ATOM      5  C   UNL     1       4.763   4.922  17.248  0.00  0.00    +0.000 A 
ENDROOT
BRANCH   1  11
ATOM      6  C   UNL     1       2.455   3.285  19.048  0.00  0.00    +0.000 A 
ATOM      7  C   UNL     1       1.257   3.255  19.793  0.00  0.00    +0.000 A 
ATOM      8  C   UNL     1       0.864   4.338  20.586  0.00  0.00    +0.000 A 
ATOM      9  C   UNL     1       1.666   5.466  20.671  0.00  0.00    +0.000 A 
ATOM     10  C   UNL     1       2.868   5.508  19.967  0.00  0.00    +0.000 A 
ATOM     11  C   UNL     1       3.276   4.425  19.156  0.00  0.00    +0.000 A 
BRANCH   6  13
ATOM     12  O   UNL     1       3.749   1.291  18.784  0.00  0.00    +0.000 OA
ATOM     13  C   UNL     1       2.878   2.025  18.365  0.00  0.00    +0.000 C 
BRANCH  13  14
ATOM     14  O   UNL     1       2.196   1.750  17.232  0.00  0.00    +0.000 OA
ATOM     15  H   UNL     1       1.959   0.820  17.071  0.00  0.00    +0.000 HD
ENDBRANCH  13  14
ENDBRANCH   6  13
ENDBRANCH   1  11
BRANCH   4  16
ATOM     16  C   UNL     1       6.870   5.608  15.929  0.00  0.00    +0.000 C 
BRANCH  16  17
ATOM     17  N   UNL     1       6.814   4.705  14.749  0.00  0.00    +0.000 NA
ATOM     18  C   UNL     1       5.437   4.543  14.263  0.00  0.00    +0.000 C 
ATOM     19  C   UNL     1       5.230   3.280  13.418  0.00  0.00    +0.000 C 
ATOM     20  C   UNL     1       5.647   3.401  11.959  0.00  0.00    +0.000 C 
ATOM     21  C   UNL     1       7.125   3.696  11.763  0.00  0.00    +0.000 C 
ATOM     22  C   UNL     1       7.506   5.079  12.268  0.00  0.00    +0.000 C 
ATOM     23  C   UNL     1       7.811   5.147  13.765  0.00  0.00    +0.000 C 
ENDBRANCH  16  17
ENDBRANCH   4  16
TORSDOF 5
ENDMDL
MODEL 3
REMARK VINA RESULT:      -7.0      5.676      7.930
REMARK  Name = 
REMARK  5 active torsions:
REMARK  status: ('A' for Active; 'I' for Inactive)
REMARK    1  A    between atoms: C_2  and  O_3
REMARK    2  A    between atoms: C_2  and  C_4
REMARK    3  A    between atoms: C_9  and  N_10
REMARK    4  A    between atoms: C_13  and  C_14
REMARK    5  A    between atoms: C_14  and  N_15
REMARK                            x       y       z     vdW  Elec       q    Type
REMARK                         _______ _______ _______ _____ _____    ______ ____
ROOT
ATOM      1  N   UNL     1       0.807   9.404  18.897  0.00  0.00    +0.000 N 
ATOM      2  C   UNL     1       1.714   9.282  17.871  0.00  0.00    +0.000 A 
ATOM      3  N   UNL     1       2.590   8.322  18.085  0.00  0.00    +0.000 NA
ATOM      4  C   UNL     1       2.222   7.762  19.284  0.00  0.00    +0.000 A 
ATOM      5  C   UNL     1       1.190   8.481  19.846  0.00  0.00    +0.000 A 
ENDROOT
BRANCH   1  11
ATOM      6  C   UNL     1      -0.447  11.193  20.106  0.00  0.00    +0.000 A 
ATOM      7  C   UNL     1      -1.537  12.089  20.067  0.00  0.00    +0.000 A 
ATOM      8  C   UNL     1      -2.474  12.051  19.029  0.00  0.00    +0.000 A 
ATOM      9  C   UNL     1      -2.336  11.134  17.999  0.00  0.00    +0.000 A 
ATOM     10  C   UNL     1      -1.252  10.258  18.000  0.00  0.00    +0.000 A 
ATOM     11  C   UNL     1      -0.299  10.279  19.044  0.00  0.00    +0.000 A 
BRANCH   6  13
ATOM     12  O   UNL     1       1.592  12.084  20.984  0.00  0.00    +0.000 OA
ATOM     13  C   UNL     1       0.595  11.415  21.155  0.00  0.00    +0.000 C 
BRANCH  13  14
ATOM     14  O   UNL     1       0.330  10.816  22.337  0.00  0.00    +0.000 OA
ATOM     15  H   UNL     1       0.986  10.924  23.046  0.00  0.00    +0.000 HD
ENDBRANCH  13  14
ENDBRANCH   6  13
ENDBRANCH   1  11
BRANCH   4  16
ATOM     16  C   UNL     1       2.846   6.503  19.806  0.00  0.00    +0.000 C 
BRANCH  16  17
ATOM     17  N   UNL     1       2.234   5.305  19.174  0.00  0.00    +0.000 NA
ATOM     18  C   UNL     1       3.246   4.481  18.497  0.00  0.00    +0.000 C 
ATOM     19  C   UNL     1       2.661   3.551  17.427  0.00  0.00    +0.000 C 
ATOM     20  C   UNL     1       2.069   2.251  17.952  0.00  0.00    +0.000 C 
ATOM     21  C   UNL     1       0.898   2.446  18.901  0.00  0.00    +0.000 C 
ATOM     22  C   UNL     1       1.322   3.098  20.208  0.00  0.00    +0.000 C 
ATOM     23  C   UNL     1       1.388   4.625  20.164  0.00  0.00    +0.000 C 
ENDBRANCH  16  17
ENDBRANCH   4  16
TORSDOF 5
ENDMDL
MODEL 4
REMARK VINA RESULT:      -6.8      5.107      6.681
REMARK  Name = 
REMARK  5 active torsions:
REMARK  status: ('A' for Active; 'I' for Inactive)
REMARK    1  A    between atoms: C_2  and  O_3
REMARK    2  A    between atoms: C_2  and  C_4
REMARK    3  A    between atoms: C_9  and  N_10
REMARK    4  A    between atoms: C_13  and  C_14
REMARK    5  A    between atoms: C_14  and  N_15
REMARK                            x       y       z     vdW  Elec       q    Type
REMARK                         _______ _______ _______ _____ _____    ______ ____
ROOT
ATOM      1  N   UNL     1       1.550   8.642  19.703  0.00  0.00    +0.000 N 
ATOM      2  C   UNL     1       1.855   8.879  18.384  0.00  0.00    +0.000 A 
ATOM      3  N   UNL     1       2.499   7.873  17.828  0.00  0.00    +0.000 NA
ATOM      4  C   UNL     1       2.587   6.917  18.811  0.00  0.00    +0.000 A 
ATOM      5  C   UNL     1       2.098   7.414  19.999  0.00  0.00    +0.000 A 
ENDROOT
BRANCH   1  11
ATOM      6  C   UNL     1       0.536  10.803  20.437  0.00  0.00    +0.000 A 
ATOM      7  C   UNL     1      -0.272  11.451  21.397  0.00  0.00    +0.000 A 
ATOM      8  C   UNL     1      -0.719  10.784  22.542  0.00  0.00    +0.000 A 
ATOM      9  C   UNL     1      -0.390   9.453  22.746  0.00  0.00    +0.000 A 
ATOM     10  C   UNL     1       0.382   8.783  21.798  0.00  0.00    +0.000 A 
ATOM     11  C   UNL     1       0.847   9.444  20.639  0.00  0.00    +0.000 A 
BRANCH   6  13
ATOM     12  O   UNL     1       1.860  12.135  18.956  0.00  0.00    +0.000 OA
ATOM     13  C   UNL     1       0.826  11.537  19.167  0.00  0.00    +0.000 C 
BRANCH  13  14
ATOM     14  O   UNL     1      -0.162  11.470  18.248  0.00  0.00    +0.000 OA
ATOM     15  H   UNL     1      -0.025  10.874  17.491  0.00  0.00    +0.000 HD
ENDBRANCH  13  14
ENDBRANCH   6  13
ENDBRANCH   1  11
BRANCH   4  16
ATOM     16  C   UNL     1       3.082   5.530  18.537  0.00  0.00    +0.000 C 
BRANCH  16  17
ATOM     17  N   UNL     1       4.479   5.553  18.030  0.00  0.00    +0.000 NA
ATOM     18  C   UNL     1       5.422   5.036  19.032  0.00  0.00    +0.000 C 
ATOM     19  C   UNL     1       6.869   5.490  18.804  0.00  0.00    +0.000 C 
ATOM     20  C   UNL     1       7.645   4.683  17.773  0.00  0.00    +0.000 C 
ATOM     21  C   UNL     1       7.053   4.737  16.375  0.00  0.00    +0.000 C 
ATOM     22  C   UNL     1       5.701   4.045  16.297  0.00  0.00    +0.000 C 
ATOM     23  C   UNL     1       4.515   4.920  16.705  0.00  0.00    +0.000 C 
ENDBRANCH  16  17
ENDBRANCH   4  16
TORSDOF 5
ENDMDL
MODEL 5
REMARK VINA RESULT:      -6.8      5.005      7.259
REMARK  Name = 
REMARK  5 active torsions:
REMARK  status: ('A' for Active; 'I' for Inactive)
REMARK    1  A    between atoms: C_2  and  O_3
REMARK    2  A    between atoms: C_2  and  C_4
REMARK    3  A    between atoms: C_9  and  N_10
REMARK    4  A    between atoms: C_13  and  C_14
REMARK    5  A    between atoms: C_14  and  N_15
REMARK                            x       y       z     vdW  Elec       q    Type
REMARK                         _______ _______ _______ _____ _____    ______ ____
ROOT
ATOM      1  N   UNL     1       7.317   6.719  17.500  0.00  0.00    +0.000 N 
ATOM      2  C   UNL     1       8.120   6.662  18.614  0.00  0.00    +0.000 A 
ATOM      3  N   UNL     1       8.586   7.845  18.960  0.00  0.00    +0.000 NA
ATOM      4  C   UNL     1       8.035   8.724  18.059  0.00  0.00    +0.000 A 
ATOM      5  C   UNL     1       7.333   8.036  17.095  0.00  0.00    +0.000 A 
ENDROOT
BRANCH   1  11
ATOM      6  C   UNL     1       5.335   5.224  17.226  0.00  0.00    +0.000 A 
ATOM      7  C   UNL     1       4.687   4.281  16.400  0.00  0.00    +0.000 A 
ATOM      8  C   UNL     1       5.296   3.785  15.243  0.00  0.00    +0.000 A 
ATOM      9  C   UNL     1       6.554   4.232  14.872  0.00  0.00    +0.000 A 
ATOM     10  C   UNL     1       7.203   5.185  15.655  0.00  0.00    +0.000 A 
ATOM     11  C   UNL     1       6.605   5.692  16.830  0.00  0.00    +0.000 A 
BRANCH   6  13
ATOM     12  O   UNL     1       4.610   5.443  19.494  0.00  0.00    +0.000 OA
ATOM     13  C   UNL     1       4.546   5.824  18.344  0.00  0.00    +0.000 C 
BRANCH  13  14
ATOM     14  O   UNL     1       3.752   6.853  17.975  0.00  0.00    +0.000 OA
ATOM     15  H   UNL     1       2.964   7.023  18.520  0.00  0.00    +0.000 HD
ENDBRANCH  13  14
ENDBRANCH   6  13
ENDBRANCH   1  11
BRANCH   4  16
ATOM     16  C   UNL     1       8.155  10.209  18.214  0.00  0.00    +0.000 C 
BRANCH  16  17
ATOM     17  N   UNL     1       9.541  10.595  18.589  0.00  0.00    +0.000 NA
ATOM     18  C   UNL     1      10.038  11.694  17.749  0.00  0.00    +0.000 C 
ATOM     19  C   UNL     1      11.568  11.798  17.718  0.00  0.00    +0.000 C 
ATOM     20  C   UNL     1      12.192  12.525  18.900  0.00  0.00    +0.000 C 
ATOM     21  C   UNL     1      11.929  11.860  20.242  0.00  0.00    +0.000 C 
ATOM     22  C   UNL     1      10.460  11.918  20.633  0.00  0.00    +0.000 C 
ATOM     23  C   UNL     1       9.601  10.799  20.042  0.00  0.00    +0.000 C 
ENDBRANCH  16  17
ENDBRANCH   4  16
TORSDOF 5
ENDMDL
MODEL 6
REMARK VINA RESULT:      -6.8      5.229      7.392
REMARK  Name = 
REMARK  5 active torsions:
REMARK  status: ('A' for Active; 'I' for Inactive)
REMARK    1  A    between atoms: C_2  and  O_3
REMARK    2  A    between atoms: C_2  and  C_4
REMARK    3  A    between atoms: C_9  and  N_10
REMARK    4  A    between atoms: C_13  and  C_14
REMARK    5  A    between atoms: C_14  and  N_15
REMARK                            x       y       z     vdW  Elec       q    Type
REMARK                         _______ _______ _______ _____ _____    ______ ____
ROOT
ATOM      1  N   UNL     1       1.460   8.982  19.416  0.00  0.00    +0.000 N 
ATOM      2  C   UNL     1       1.742   9.436  18.150  0.00  0.00    +0.000 A 
ATOM      3  N   UNL     1       2.462   8.578  17.457  0.00  0.00    +0.000 NA
ATOM      4  C   UNL     1       2.628   7.496  18.288  0.00  0.00    +0.000 A 
ATOM      5  C   UNL     1       2.104   7.771  19.532  0.00  0.00    +0.000 A 
ENDROOT
BRANCH   1  11
ATOM      6  C   UNL     1      -0.375  10.465  20.236  0.00  0.00    +0.000 A 
ATOM      7  C   UNL     1      -1.123  10.891  21.355  0.00  0.00    +0.000 A 
ATOM      8  C   UNL     1      -0.792  10.485  22.651  0.00  0.00    +0.000 A 
ATOM      9  C   UNL     1       0.279   9.631  22.861  0.00  0.00    +0.000 A 
ATOM     10  C   UNL     1       1.016   9.172  21.770  0.00  0.00    +0.000 A 
ATOM     11  C   UNL     1       0.698   9.578  20.455  0.00  0.00    +0.000 A 
BRANCH   6  13
ATOM     12  O   UNL     1      -1.695  10.124  18.271  0.00  0.00    +0.000 OA
ATOM     13  C   UNL     1      -0.899  10.809  18.880  0.00  0.00    +0.000 C 
BRANCH  13  14
ATOM     14  O   UNL     1      -0.424  11.969  18.377  0.00  0.00    +0.000 OA
ATOM     15  H   UNL     1      -0.140  12.646  19.015  0.00  0.00    +0.000 HD
ENDBRANCH  13  14
ENDBRANCH   6  13
ENDBRANCH   1  11
BRANCH   4  16
ATOM     16  C   UNL     1       3.230   6.208  17.815  0.00  0.00    +0.000 C 
BRANCH  16  17
ATOM     17  N   UNL     1       2.905   5.096  18.747  0.00  0.00    +0.000 NA
ATOM     18  C   UNL     1       1.852   4.229  18.199  0.00  0.00    +0.000 C 
ATOM     19  C   UNL     1       1.122   3.403  19.266  0.00  0.00    +0.000 C 
ATOM     20  C   UNL     1       1.835   2.130  19.700  0.00  0.00    +0.000 C 
ATOM     21  C   UNL     1       3.194   2.371  20.335  0.00  0.00    +0.000 C 
ATOM     22  C   UNL     1       4.204   2.920  19.339  0.00  0.00    +0.000 C 
ATOM     23  C   UNL     1       4.153   4.437  19.154  0.00  0.00    +0.000 C 
ENDBRANCH  16  17
ENDBRANCH   4  16
TORSDOF 5
ENDMDL
MODEL 7
REMARK VINA RESULT:      -6.8      4.793      7.479
REMARK  Name = 
REMARK  5 active torsions:
REMARK  status: ('A' for Active; 'I' for Inactive)
REMARK    1  A    between atoms: C_2  and  O_3
REMARK    2  A    between atoms: C_2  and  C_4
REMARK    3  A    between atoms: C_9  and  N_10
REMARK    4  A    between atoms: C_13  and  C_14
REMARK    5  A    between atoms: C_14  and  N_15
REMARK                            x       y       z     vdW  Elec       q    Type
REMARK                         _______ _______ _______ _____ _____    ______ ____
ROOT
ATOM      1  N   UNL     1       2.428   6.157  18.748  0.00  0.00    +0.000 N 
ATOM      2  C   UNL     1       2.175   6.746  19.964  0.00  0.00    +0.000 A 
ATOM      3  N   UNL     1       2.009   8.049  19.867  0.00  0.00    +0.000 NA
ATOM      4  C   UNL     1       2.118   8.325  18.526  0.00  0.00    +0.000 A 
ATOM      5  C   UNL     1       2.476   7.189  17.836  0.00  0.00    +0.000 A 
ENDROOT
BRANCH   1  11
ATOM      6  C   UNL     1       3.896   4.228  18.150  0.00  0.00    +0.000 A 
ATOM      7  C   UNL     1       3.970   2.833  17.948  0.00  0.00    +0.000 A 
ATOM      8  C   UNL     1       2.824   2.031  17.967  0.00  0.00    +0.000 A 
ATOM      9  C   UNL     1       1.583   2.598  18.205  0.00  0.00    +0.000 A 
ATOM     10  C   UNL     1       1.485   3.969  18.436  0.00  0.00    +0.000 A 
ATOM     11  C   UNL     1       2.632   4.794  18.415  0.00  0.00    +0.000 A 
BRANCH   6  13
ATOM     12  O   UNL     1       5.571   5.795  17.474  0.00  0.00    +0.000 OA
ATOM     13  C   UNL     1       5.181   4.978  18.282  0.00  0.00    +0.000 C 
BRANCH  13  14
ATOM     14  O   UNL     1       5.884   4.686  19.398  0.00  0.00    +0.000 OA
ATOM     15  H   UNL     1       6.671   5.227  19.582  0.00  0.00    +0.000 HD
ENDBRANCH  13  14
ENDBRANCH   6  13
ENDBRANCH   1  11
BRANCH   4  16
ATOM     16  C   UNL     1       1.800   9.675  17.957  0.00  0.00    +0.000 C 
BRANCH  16  17
ATOM     17  N   UNL     1       0.752  10.358  18.761  0.00  0.00    +0.000 NA
ATOM     18  C   UNL     1       1.132  11.743  19.070  0.00  0.00    +0.000 C 
ATOM     19  C   UNL     1       0.388  12.327  20.278  0.00  0.00    +0.000 C 
ATOM     20  C   UNL     1      -1.007  12.859  19.983  0.00  0.00    +0.000 C 
ATOM     21  C   UNL     1      -1.974  11.804  19.473  0.00  0.00    +0.000 C 
ATOM     22  C   UNL     1      -1.586  11.287  18.096  0.00  0.00    +0.000 C 
ATOM     23  C   UNL     1      -0.549  10.163  18.108  0.00  0.00    +0.000 C 
ENDBRANCH  16  17
ENDBRANCH   4  16
TORSDOF 5
ENDMDL
MODEL 8
REMARK VINA RESULT:      -6.8      5.413      7.465
REMARK  Name = 
REMARK  5 active torsions:
REMARK  status: ('A' for Active; 'I' for Inactive)
REMARK    1  A    between atoms: C_2  and  O_3
REMARK    2  A    between atoms: C_2  and  C_4
REMARK    3  A    between atoms: C_9  and  N_10
REMARK    4  A    between atoms: C_13  and  C_14
REMARK    5  A    between atoms: C_14  and  N_15
REMARK                            x       y       z     vdW  Elec       q    Type
REMARK                         _______ _______ _______ _____ _____    ______ ____
ROOT
ATOM      1  N   UNL     1       1.365   9.084  19.539  0.00  0.00    +0.000 N 
ATOM      2  C   UNL     1       1.405   9.492  18.227  0.00  0.00    +0.000 A 
ATOM      3  N   UNL     1       2.117   8.682  17.470  0.00  0.00    +0.000 NA
ATOM      4  C   UNL     1       2.530   7.677  18.310  0.00  0.00    +0.000 A 
ATOM      5  C   UNL     1       2.161   7.962  19.606  0.00  0.00    +0.000 A 
ENDROOT
BRANCH   1  11
ATOM      6  C   UNL     1       0.484  11.031  20.832  0.00  0.00    +0.000 A 
ATOM      7  C   UNL     1      -0.302  11.449  21.927  0.00  0.00    +0.000 A 
ATOM      8  C   UNL     1      -0.827  10.529  22.841  0.00  0.00    +0.000 A 
ATOM      9  C   UNL     1      -0.597   9.173  22.673  0.00  0.00    +0.000 A 
ATOM     10  C   UNL     1       0.152   8.732  21.584  0.00  0.00    +0.000 A 
ATOM     11  C   UNL     1       0.694   9.648  20.655  0.00  0.00    +0.000 A 
BRANCH   6  13
ATOM     12  O   UNL     1       1.963  12.562  19.741  0.00  0.00    +0.000 OA
ATOM     13  C   UNL     1       0.860  12.060  19.815  0.00  0.00    +0.000 C 
BRANCH  13  14
ATOM     14  O   UNL     1      -0.133  12.385  18.960  0.00  0.00    +0.000 OA
ATOM     15  H   UNL     1      -1.040  12.383  19.311  0.00  0.00    +0.000 HD
ENDBRANCH  13  14
ENDBRANCH   6  13
ENDBRANCH   1  11
BRANCH   4  16
ATOM     16  C   UNL     1       3.209   6.440  17.806  0.00  0.00    +0.000 C 
BRANCH  16  17
ATOM     17  N   UNL     1       2.828   5.255  18.618  0.00  0.00    +0.000 NA
ATOM     18  C   UNL     1       2.031   4.301  17.832  0.00  0.00    +0.000 C 
ATOM     19  C   UNL     1       1.193   3.348  18.694  0.00  0.00    +0.000 C 
ATOM     20  C   UNL     1       1.944   2.145  19.246  0.00  0.00    +0.000 C 
ATOM     21  C   UNL     1       3.094   2.507  20.171  0.00  0.00    +0.000 C 
ATOM     22  C   UNL     1       4.222   3.214  19.435  0.00  0.00    +0.000 C 
ATOM     23  C   UNL     1       4.028   4.723  19.276  0.00  0.00    +0.000 C 
ENDBRANCH  16  17
ENDBRANCH   4  16
TORSDOF 5
ENDMDL
MODEL 9
REMARK VINA RESULT:      -6.8      4.987      8.257
REMARK  Name = 
REMARK  5 active torsions:
REMARK  status: ('A' for Active; 'I' for Inactive)
REMARK    1  A    between atoms: C_2  and  O_3
REMARK    2  A    between atoms: C_2  and  C_4
REMARK    3  A    between atoms: C_9  and  N_10
REMARK    4  A    between atoms: C_13  and  C_14
REMARK    5  A    between atoms: C_14  and  N_15
REMARK                            x       y       z     vdW  Elec       q    Type
REMARK                         _______ _______ _______ _____ _____    ______ ____
ROOT
ATOM      1  N   UNL     1       2.974   7.044  18.313  0.00  0.00    +0.000 N 
ATOM      2  C   UNL     1       2.510   7.051  19.608  0.00  0.00    +0.000 A 
ATOM      3  N   UNL     1       1.747   8.094  19.862  0.00  0.00    +0.000 NA
ATOM      4  C   UNL     1       1.672   8.782  18.675  0.00  0.00    +0.000 A 
ATOM      5  C   UNL     1       2.503   8.205  17.741  0.00  0.00    +0.000 A 
ENDROOT
BRANCH   1  11
ATOM      6  C   UNL     1       3.466   4.733  17.505  0.00  0.00    +0.000 A 
ATOM      7  C   UNL     1       4.303   3.927  16.704  0.00  0.00    +0.000 A 
ATOM      8  C   UNL     1       5.446   4.449  16.089  0.00  0.00    +0.000 A 
ATOM      9  C   UNL     1       5.768   5.788  16.241  0.00  0.00    +0.000 A 
ATOM     10  C   UNL     1       4.942   6.612  17.003  0.00  0.00    +0.000 A 
ATOM     11  C   UNL     1       3.787   6.099  17.636  0.00  0.00    +0.000 A 
BRANCH   6  13
ATOM     12  O   UNL     1       1.135   4.211  17.370  0.00  0.00    +0.000 OA
ATOM     13  C   UNL     1       2.181   4.137  17.982  0.00  0.00    +0.000 C 
BRANCH  13  14
ATOM     14  O   UNL     1       2.274   3.484  19.161  0.00  0.00    +0.000 OA
ATOM     15  H   UNL     1       2.132   2.522  19.148  0.00  0.00    +0.000 HD
ENDBRANCH  13  14
ENDBRANCH   6  13
ENDBRANCH   1  11
BRANCH   4  16
ATOM     16  C   UNL     1       0.740   9.938  18.477  0.00  0.00    +0.000 C 
BRANCH  16  17
ATOM     17  N   UNL     1       0.718  10.817  19.676  0.00  0.00    +0.000 NA
ATOM     18  C   UNL     1       1.225  12.161  19.364  0.00  0.00    +0.000 C 
ATOM     19  C   UNL     1       1.706  12.934  20.598  0.00  0.00    +0.000 C 
ATOM     20  C   UNL     1       0.610  13.621  21.400  0.00  0.00    +0.000 C 
ATOM     21  C   UNL     1      -0.416  12.664  21.985  0.00  0.00    +0.000 C 
ATOM     22  C   UNL     1      -1.252  11.990  20.908  0.00  0.00    +0.000 C 
ATOM     23  C   UNL     1      -0.612  10.744  20.295  0.00  0.00    +0.000 C 
ENDBRANCH  16  17
ENDBRANCH   4  16
TORSDOF 5
ENDMDL
