MODEL 1
REMARK VINA RESULT:      -6.6      0.000      0.000
REMARK  Name = 
REMARK  9 active torsions:
REMARK  status: ('A' for Active; 'I' for Inactive)
REMARK    1  A    between atoms: C_1  and  C_2
REMARK    2  A    between atoms: C_2  and  C_3
REMARK    3  A    between atoms: C_2  and  C_4
REMARK    4  A    between atoms: N_6  and  C_7
REMARK    5  A    between atoms: C_7  and  C_8
REMARK    6  A    between atoms: C_8  and  C_9
REMARK    7  A    between atoms: N_11  and  C_12
REMARK    8  A    between atoms: N_11  and  C_13
REMARK    9  A    between atoms: C_15  and  N_16
REMARK                            x       y       z     vdW  Elec       q    Type
REMARK                         _______ _______ _______ _____ _____    ______ ____
ROOT
ATOM      1  C   UNL     1       3.011   2.238  19.229  0.00  0.00    +0.000 C 
ATOM      2  C   UNL     1       3.411   2.520  17.781  0.00  0.00    +0.000 C 
ATOM      3  N   UNL     1       4.085   3.815  17.856  0.00  0.00    +0.000 NA
ATOM      4  C   UNL     1       4.918   3.765  19.071  0.00  0.00    +0.000 C 
ATOM      5  C   UNL     1       4.251   2.725  20.006  0.00  0.00    +0.000 C 
ENDROOT
BRANCH   1   7
ATOM      6  C   UNL     1       0.418   2.521  18.940  0.00  0.00    +0.000 C 
ATOM      7  C   UNL     1       1.687   2.911  19.705  0.00  0.00    +0.000 C 
ATOM      8  C   UNL     1       1.459   2.693  21.206  0.00  0.00    +0.000 C 
ENDBRANCH   1   7
BRANCH   5   9
ATOM      9  N   UNL     1       5.180   1.616  20.285  0.00  0.00    +0.000 NA
ATOM     10  H   UNL     1       5.782   1.863  21.070  0.00  0.00    +0.000 HD
ATOM     11  H   UNL     1       5.796   1.480  19.485  0.00  0.00    +0.000 HD
ENDBRANCH   5   9
BRANCH   3  12
ATOM     12  C   UNL     1       4.869   4.144  16.659  0.00  0.00    +0.000 C 
BRANCH  12  13
ATOM     13  C   UNL     1       6.323   4.491  16.998  0.00  0.00    +0.000 C 
BRANCH  13  14
ATOM     14  C   UNL     1       6.618   5.961  16.767  0.00  0.00    +0.000 C 
ATOM     15  O   UNL     1       6.193   6.546  15.771  0.00  0.00    +0.000 OA
ATOM     16  N   UNL     1       7.371   6.609  17.743  0.00  0.00    +0.000 N 
ATOM     17  C   UNL     1       7.898   5.992  18.953  0.00  0.00    +0.000 C 
ATOM     18  C   UNL     1       7.677   8.020  17.569  0.00  0.00    +0.000 C 
ENDBRANCH  13  14
ENDBRANCH  12  13
ENDBRANCH   3  12
TORSDOF 5
ENDMDL
MODEL 2
REMARK VINA RESULT:      -6.4      1.691      2.047
REMARK  Name = 
REMARK  9 active torsions:
REMARK  status: ('A' for Active; 'I' for Inactive)
REMARK    1  A    between atoms: C_1  and  C_2
REMARK    2  A    between atoms: C_2  and  C_3
REMARK    3  A    between atoms: C_2  and  C_4
REMARK    4  A    between atoms: N_6  and  C_7
REMARK    5  A    between atoms: C_7  and  C_8
REMARK    6  A    between atoms: C_8  and  C_9
REMARK    7  A    between atoms: N_11  and  C_12
REMARK    8  A    between atoms: N_11  and  C_13
REMARK    9  A    between atoms: C_15  and  N_16
REMARK                            x       y       z     vdW  Elec       q    Type
REMARK                         _______ _______ _______ _____ _____    ______ ____
ROOT
ATOM      1  C   UNL     1       2.773   3.446  18.735  0.00  0.00    +0.000 C 
ATOM      2  C   UNL     1       2.929   4.548  17.687  0.00  0.00    +0.000 C 
ATOM      3  N   UNL     1       3.273   5.727  18.478  0.00  0.00    +0.000 NA
ATOM      4  C   UNL     1       4.224   5.262  19.503  0.00  0.00    +0.000 C 
ATOM      5  C   UNL     1       3.937   3.751  19.699  0.00  0.00    +0.000 C 
ENDROOT
BRANCH   1   7
ATOM      6  C   UNL     1       0.406   2.329  18.927  0.00  0.00    +0.000 C 
ATOM      7  C   UNL     1       1.387   3.385  19.447  0.00  0.00    +0.000 C 
ATOM      8  C   UNL     1       1.546   3.222  20.964  0.00  0.00    +0.000 C 
ENDBRANCH   1   7
BRANCH   5   9
ATOM      9  N   UNL     1       5.132   2.956  19.369  0.00  0.00    +0.000 NA
ATOM     10  H   UNL     1       5.790   2.987  20.148  0.00  0.00    +0.000 HD
ATOM     11  H   UNL     1       5.611   3.376  18.574  0.00  0.00    +0.000 HD
ENDBRANCH   5   9
BRANCH   3  12
ATOM     12  C   UNL     1       3.816   6.836  17.681  0.00  0.00    +0.000 C 
BRANCH  12  13
ATOM     13  C   UNL     1       5.333   6.725  17.497  0.00  0.00    +0.000 C 
BRANCH  13  14
ATOM     14  C   UNL     1       5.696   6.259  16.100  0.00  0.00    +0.000 C 
ATOM     15  O   UNL     1       5.176   6.762  15.105  0.00  0.00    +0.000 OA
ATOM     16  N   UNL     1       6.657   5.254  16.006  0.00  0.00    +0.000 N 
ATOM     17  C   UNL     1       7.329   4.617  17.132  0.00  0.00    +0.000 C 
ATOM     18  C   UNL     1       7.043   4.775  14.688  0.00  0.00    +0.000 C 
ENDBRANCH  13  14
ENDBRANCH  12  13
ENDBRANCH   3  12
TORSDOF 5
ENDMDL
MODEL 3
REMARK VINA RESULT:      -6.2      2.184      2.736
REMARK  Name = 
REMARK  9 active torsions:
REMARK  status: ('A' for Active; 'I' for Inactive)
REMARK    1  A    between atoms: C_1  and  C_2
REMARK    2  A    between atoms: C_2  and  C_3
REMARK    3  A    between atoms: C_2  and  C_4
REMARK    4  A    between atoms: N_6  and  C_7
REMARK    5  A    between atoms: C_7  and  C_8
REMARK    6  A    between atoms: C_8  and  C_9
REMARK    7  A    between atoms: N_11  and  C_12
REMARK    8  A    between atoms: N_11  and  C_13
REMARK    9  A    between atoms: C_15  and  N_16
REMARK                            x       y       z     vdW  Elec       q    Type
REMARK                         _______ _______ _______ _____ _____    ______ ____
ROOT
ATOM      1  C   UNL     1       2.960   3.286  18.835  0.00  0.00    +0.000 C 
ATOM      2  C   UNL     1       3.306   3.812  17.442  0.00  0.00    +0.000 C 
ATOM      3  N   UNL     1       4.095   5.011  17.714  0.00  0.00    +0.000 NA
ATOM      4  C   UNL     1       4.984   4.663  18.836  0.00  0.00    +0.000 C 
ATOM      5  C   UNL     1       4.277   3.516  19.603  0.00  0.00    +0.000 C 
ENDROOT
BRANCH   1   7
ATOM      6  C   UNL     1       0.530   3.040  19.797  0.00  0.00    +0.000 C 
ATOM      7  C   UNL     1       1.728   3.955  19.520  0.00  0.00    +0.000 C 
ATOM      8  C   UNL     1       2.129   4.667  20.818  0.00  0.00    +0.000 C 
ENDBRANCH   1   7
BRANCH   5   9
ATOM      9  N   UNL     1       5.118   2.306  19.603  0.00  0.00    +0.000 NA
ATOM     10  H   UNL     1       5.921   2.447  20.215  0.00  0.00    +0.000 HD
ATOM     11  H   UNL     1       5.495   2.155  18.668  0.00  0.00    +0.000 HD
ENDBRANCH   5   9
BRANCH   3  12
ATOM     12  C   UNL     1       4.841   5.504  16.548  0.00  0.00    +0.000 C 
BRANCH  12  13
ATOM     13  C   UNL     1       5.671   4.400  15.884  0.00  0.00    +0.000 C 
BRANCH  13  14
ATOM     14  C   UNL     1       6.793   4.973  15.039  0.00  0.00    +0.000 C 
ATOM     15  O   UNL     1       7.628   5.736  15.522  0.00  0.00    +0.000 OA
ATOM     16  N   UNL     1       6.836   4.575  13.704  0.00  0.00    +0.000 N 
ATOM     17  C   UNL     1       5.895   3.667  13.062  0.00  0.00    +0.000 C 
ATOM     18  C   UNL     1       7.895   5.093  12.853  0.00  0.00    +0.000 C 
ENDBRANCH  13  14
ENDBRANCH  12  13
ENDBRANCH   3  12
TORSDOF 5
ENDMDL
MODEL 4
REMARK VINA RESULT:      -6.1      2.088      3.007
REMARK  Name = 
REMARK  9 active torsions:
REMARK  status: ('A' for Active; 'I' for Inactive)
REMARK    1  A    between atoms: C_1  and  C_2
REMARK    2  A    between atoms: C_2  and  C_3
REMARK    3  A    between atoms: C_2  and  C_4
REMARK    4  A    between atoms: N_6  and  C_7
REMARK    5  A    between atoms: C_7  and  C_8
REMARK    6  A    between atoms: C_8  and  C_9
REMARK    7  A    between atoms: N_11  and  C_12
REMARK    8  A    between atoms: N_11  and  C_13
REMARK    9  A    between atoms: C_15  and  N_16
REMARK                            x       y       z     vdW  Elec       q    Type
REMARK                         _______ _______ _______ _____ _____    ______ ____
ROOT
ATOM      1  C   UNL     1       2.802   3.746  19.687  0.00  0.00    +0.000 C 
ATOM      2  C   UNL     1       4.317   3.709  19.882  0.00  0.00    +0.000 C 
ATOM      3  N   UNL     1       4.803   4.766  18.999  0.00  0.00    +0.000 NA
ATOM      4  C   UNL     1       3.861   5.888  19.156  0.00  0.00    +0.000 C 
ATOM      5  C   UNL     1       2.522   5.260  19.622  0.00  0.00    +0.000 C 
ENDROOT
BRANCH   1   7
ATOM      6  C   UNL     1       3.157   1.844  17.913  0.00  0.00    +0.000 C 
ATOM      7  C   UNL     1       2.264   2.970  18.445  0.00  0.00    +0.000 C 
ATOM      8  C   UNL     1       0.855   2.418  18.700  0.00  0.00    +0.000 C 
ENDBRANCH   1   7
BRANCH   5   9
ATOM      9  N   UNL     1       2.138   5.794  20.940  0.00  0.00    +0.000 NA
ATOM     10  H   UNL     1       2.535   6.725  21.062  0.00  0.00    +0.000 HD
ATOM     11  H   UNL     1       2.543   5.213  21.673  0.00  0.00    +0.000 HD
ENDBRANCH   5   9
BRANCH   3  12
ATOM     12  C   UNL     1       6.191   5.167  19.264  0.00  0.00    +0.000 C 
BRANCH  12  13
ATOM     13  C   UNL     1       6.797   5.956  18.099  0.00  0.00    +0.000 C 
BRANCH  13  14
ATOM     14  C   UNL     1       7.137   5.054  16.927  0.00  0.00    +0.000 C 
ATOM     15  O   UNL     1       8.052   4.236  16.998  0.00  0.00    +0.000 OA
ATOM     16  N   UNL     1       6.349   5.189  15.786  0.00  0.00    +0.000 N 
ATOM     17  C   UNL     1       5.241   6.122  15.627  0.00  0.00    +0.000 C 
ATOM     18  C   UNL     1       6.631   4.344  14.636  0.00  0.00    +0.000 C 
ENDBRANCH  13  14
ENDBRANCH  12  13
ENDBRANCH   3  12
TORSDOF 5
ENDMDL
MODEL 5
REMARK VINA RESULT:      -6.1      1.767      2.391
REMARK  Name = 
REMARK  9 active torsions:
REMARK  status: ('A' for Active; 'I' for Inactive)
REMARK    1  A    between atoms: C_1  and  C_2
REMARK    2  A    between atoms: C_2  and  C_3
REMARK    3  A    between atoms: C_2  and  C_4
REMARK    4  A    between atoms: N_6  and  C_7
REMARK    5  A    between atoms: C_7  and  C_8
REMARK    6  A    between atoms: C_8  and  C_9
REMARK    7  A    between atoms: N_11  and  C_12
REMARK    8  A    between atoms: N_11  and  C_13
REMARK    9  A    between atoms: C_15  and  N_16
REMARK                            x       y       z     vdW  Elec       q    Type
REMARK                         _______ _______ _______ _____ _____    ______ ____
ROOT
ATOM      1  C   UNL     1       2.175   2.902  19.033  0.00  0.00    +0.000 C 
ATOM      2  C   UNL     1       2.781   4.182  18.461  0.00  0.00    +0.000 C 
ATOM      3  N   UNL     1       3.920   4.445  19.337  0.00  0.00    +0.000 NA
ATOM      4  C   UNL     1       4.548   3.134  19.586  0.00  0.00    +0.000 C 
ATOM      5  C   UNL     1       3.430   2.079  19.385  0.00  0.00    +0.000 C 
ENDROOT
BRANCH   1   7
ATOM      6  C   UNL     1       1.687   2.526  21.585  0.00  0.00    +0.000 C 
ATOM      7  C   UNL     1       1.211   3.096  20.245  0.00  0.00    +0.000 C 
ATOM      8  C   UNL     1       0.838   4.573  20.428  0.00  0.00    +0.000 C 
ENDBRANCH   1   7
BRANCH   5   9
ATOM      9  N   UNL     1       3.789   1.153  18.297  0.00  0.00    +0.000 NA
ATOM     10  H   UNL     1       3.639   1.608  17.397  0.00  0.00    +0.000 HD
ATOM     11  H   UNL     1       3.166   0.348  18.318  0.00  0.00    +0.000 HD
ENDBRANCH   5   9
BRANCH   3  12
ATOM     12  C   UNL     1       4.873   5.421  18.793  0.00  0.00    +0.000 C 
BRANCH  12  13
ATOM     13  C   UNL     1       4.466   5.911  17.399  0.00  0.00    +0.000 C 
BRANCH  13  14
ATOM     14  C   UNL     1       5.661   6.025  16.473  0.00  0.00    +0.000 C 
ATOM     15  O   UNL     1       6.308   7.069  16.394  0.00  0.00    +0.000 OA
ATOM     16  N   UNL     1       5.995   4.889  15.739  0.00  0.00    +0.000 N 
ATOM     17  C   UNL     1       5.290   3.614  15.786  0.00  0.00    +0.000 C 
ATOM     18  C   UNL     1       7.136   4.946  14.839  0.00  0.00    +0.000 C 
ENDBRANCH  13  14
ENDBRANCH  12  13
ENDBRANCH   3  12
TORSDOF 5
ENDMDL
MODEL 6
REMARK VINA RESULT:      -6.0      1.313      1.608
REMARK  Name = 
REMARK  9 active torsions:
REMARK  status: ('A' for Active; 'I' for Inactive)
REMARK    1  A    between atoms: C_1  and  C_2
REMARK    2  A    between atoms: C_2  and  C_3
REMARK    3  A    between atoms: C_2  and  C_4
REMARK    4  A    between atoms: N_6  and  C_7
REMARK    5  A    between atoms: C_7  and  C_8
REMARK    6  A    between atoms: C_8  and  C_9
REMARK    7  A    between atoms: N_11  and  C_12
REMARK    8  A    between atoms: N_11  and  C_13
REMARK    9  A    between atoms: C_15  and  N_16
REMARK                            x       y       z     vdW  Elec       q    Type
REMARK                         _______ _______ _______ _____ _____    ______ ____
ROOT
ATOM      1  C   UNL     1       2.095   2.254  19.129  0.00  0.00    +0.000 C 
ATOM      2  C   UNL     1       2.035   3.296  18.013  0.00  0.00    +0.000 C 
ATOM      3  N   UNL     1       3.183   4.158  18.285  0.00  0.00    +0.000 NA
ATOM      4  C   UNL     1       4.282   3.256  18.673  0.00  0.00    +0.000 C 
ATOM      5  C   UNL     1       3.608   1.975  19.229  0.00  0.00    +0.000 C 
ENDROOT
BRANCH   1   7
ATOM      6  C   UNL     1       2.379   2.619  21.713  0.00  0.00    +0.000 C 
ATOM      7  C   UNL     1       1.461   2.686  20.488  0.00  0.00    +0.000 C 
ATOM      8  C   UNL     1       0.844   4.087  20.395  0.00  0.00    +0.000 C 
ENDBRANCH   1   7
BRANCH   5   9
ATOM      9  N   UNL     1       3.994   0.803  18.423  0.00  0.00    +0.000 NA
ATOM     10  H   UNL     1       3.751  -0.051  18.924  0.00  0.00    +0.000 HD
ATOM     11  H   UNL     1       5.006   0.789  18.308  0.00  0.00    +0.000 HD
ENDBRANCH   5   9
BRANCH   3  12
ATOM     12  C   UNL     1       3.551   5.027  17.160  0.00  0.00    +0.000 C 
BRANCH  12  13
ATOM     13  C   UNL     1       5.035   4.907  16.798  0.00  0.00    +0.000 C 
BRANCH  13  14
ATOM     14  C   UNL     1       5.819   6.132  17.229  0.00  0.00    +0.000 C 
ATOM     15  O   UNL     1       5.330   7.259  17.156  0.00  0.00    +0.000 OA
ATOM     16  N   UNL     1       7.102   5.911  17.726  0.00  0.00    +0.000 N 
ATOM     17  C   UNL     1       7.746   4.611  17.857  0.00  0.00    +0.000 C 
ATOM     18  C   UNL     1       7.892   7.054  18.156  0.00  0.00    +0.000 C 
ENDBRANCH  13  14
ENDBRANCH  12  13
ENDBRANCH   3  12
TORSDOF 5
ENDMDL
MODEL 7
REMARK VINA RESULT:      -6.0      1.491      2.176
REMARK  Name = 
REMARK  9 active torsions:
REMARK  status: ('A' for Active; 'I' for Inactive)
REMARK    1  A    between atoms: C_1  and  C_2
REMARK    2  A    between atoms: C_2  and  C_3
REMARK    3  A    between atoms: C_2  and  C_4
REMARK    4  A    between atoms: N_6  and  C_7
REMARK    5  A    between atoms: C_7  and  C_8
REMARK    6  A    between atoms: C_8  and  C_9
REMARK    7  A    between atoms: N_11  and  C_12
REMARK    8  A    between atoms: N_11  and  C_13
REMARK    9  A    between atoms: C_15  and  N_16
REMARK                            x       y       z     vdW  Elec       q    Type
REMARK                         _______ _______ _______ _____ _____    ______ ____
ROOT
ATOM      1  C   UNL     1       3.022   4.195  20.085  0.00  0.00    +0.000 C 
ATOM      2  C   UNL     1       4.194   3.969  19.132  0.00  0.00    +0.000 C 
ATOM      3  N   UNL     1       3.592   4.110  17.808  0.00  0.00    +0.000 NA
ATOM      4  C   UNL     1       2.665   5.251  17.906  0.00  0.00    +0.000 C 
ATOM      5  C   UNL     1       2.267   5.352  19.401  0.00  0.00    +0.000 C 
ENDROOT
BRANCH   1   7
ATOM      6  C   UNL     1       1.899   2.576  21.821  0.00  0.00    +0.000 C 
ATOM      7  C   UNL     1       2.121   2.949  20.351  0.00  0.00    +0.000 C 
ATOM      8  C   UNL     1       0.761   3.086  19.655  0.00  0.00    +0.000 C 
ENDBRANCH   1   7
BRANCH   5   9
ATOM      9  N   UNL     1       2.672   6.657  19.951  0.00  0.00    +0.000 NA
ATOM     10  H   UNL     1       3.034   7.247  19.202  0.00  0.00    +0.000 HD
ATOM     11  H   UNL     1       3.440   6.526  20.608  0.00  0.00    +0.000 HD
ENDBRANCH   5   9
BRANCH   3  12
ATOM     12  C   UNL     1       4.573   4.285  16.728  0.00  0.00    +0.000 C 
BRANCH  12  13
ATOM     13  C   UNL     1       5.979   4.571  17.265  0.00  0.00    +0.000 C 
BRANCH  13  14
ATOM     14  C   UNL     1       6.419   5.990  16.957  0.00  0.00    +0.000 C 
ATOM     15  O   UNL     1       6.003   6.585  15.964  0.00  0.00    +0.000 OA
ATOM     16  N   UNL     1       7.296   6.582  17.863  0.00  0.00    +0.000 N 
ATOM     17  C   UNL     1       7.824   5.952  19.066  0.00  0.00    +0.000 C 
ATOM     18  C   UNL     1       7.745   7.943  17.615  0.00  0.00    +0.000 C 
ENDBRANCH  13  14
ENDBRANCH  12  13
ENDBRANCH   3  12
TORSDOF 5
ENDMDL
MODEL 8
REMARK VINA RESULT:      -6.0      1.735      2.200
REMARK  Name = 
REMARK  9 active torsions:
REMARK  status: ('A' for Active; 'I' for Inactive)
REMARK    1  A    between atoms: C_1  and  C_2
REMARK    2  A    between atoms: C_2  and  C_3
REMARK    3  A    between atoms: C_2  and  C_4
REMARK    4  A    between atoms: N_6  and  C_7
REMARK    5  A    between atoms: C_7  and  C_8
REMARK    6  A    between atoms: C_8  and  C_9
REMARK    7  A    between atoms: N_11  and  C_12
REMARK    8  A    between atoms: N_11  and  C_13
REMARK    9  A    between atoms: C_15  and  N_16
REMARK                            x       y       z     vdW  Elec       q    Type
REMARK                         _______ _______ _______ _____ _____    ______ ____
ROOT
ATOM      1  C   UNL     1       2.156   3.005  18.904  0.00  0.00    +0.000 C 
ATOM      2  C   UNL     1       2.133   4.292  18.080  0.00  0.00    +0.000 C 
ATOM      3  N   UNL     1       3.257   5.060  18.612  0.00  0.00    +0.000 NA
ATOM      4  C   UNL     1       4.348   4.091  18.814  0.00  0.00    +0.000 C 
ATOM      5  C   UNL     1       3.667   2.711  19.001  0.00  0.00    +0.000 C 
ENDROOT
BRANCH   1   7
ATOM      6  C   UNL     1       2.327   2.741  21.510  0.00  0.00    +0.000 C 
ATOM      7  C   UNL     1       1.457   3.083  20.296  0.00  0.00    +0.000 C 
ATOM      8  C   UNL     1       0.803   4.454  20.515  0.00  0.00    +0.000 C 
ENDBRANCH   1   7
BRANCH   5   9
ATOM      9  N   UNL     1       4.102   1.778  17.948  0.00  0.00    +0.000 NA
ATOM     10  H   UNL     1       3.458   0.989  17.902  0.00  0.00    +0.000 HD
ATOM     11  H   UNL     1       5.012   1.390  18.194  0.00  0.00    +0.000 HD
ENDBRANCH   5   9
BRANCH   3  12
ATOM     12  C   UNL     1       3.664   6.183  17.757  0.00  0.00    +0.000 C 
BRANCH  12  13
ATOM     13  C   UNL     1       5.186   6.278  17.614  0.00  0.00    +0.000 C 
BRANCH  13  14
ATOM     14  C   UNL     1       5.627   6.091  16.174  0.00  0.00    +0.000 C 
ATOM     15  O   UNL     1       5.090   6.713  15.258  0.00  0.00    +0.000 OA
ATOM     16  N   UNL     1       6.676   5.202  15.952  0.00  0.00    +0.000 N 
ATOM     17  C   UNL     1       7.372   4.440  16.981  0.00  0.00    +0.000 C 
ATOM     18  C   UNL     1       7.140   4.992  14.589  0.00  0.00    +0.000 C 
ENDBRANCH  13  14
ENDBRANCH  12  13
ENDBRANCH   3  12
TORSDOF 5
ENDMDL
MODEL 9
REMARK VINA RESULT:      -6.0      1.776      2.513
REMARK  Name = 
REMARK  9 active torsions:
REMARK  status: ('A' for Active; 'I' for Inactive)
REMARK    1  A    between atoms: C_1  and  C_2
REMARK    2  A    between atoms: C_2  and  C_3
REMARK    3  A    between atoms: C_2  and  C_4
REMARK    4  A    between atoms: N_6  and  C_7
REMARK    5  A    between atoms: C_7  and  C_8
REMARK    6  A    between atoms: C_8  and  C_9
REMARK    7  A    between atoms: N_11  and  C_12
REMARK    8  A    between atoms: N_11  and  C_13
REMARK    9  A    between atoms: C_15  and  N_16
REMARK                            x       y       z     vdW  Elec       q    Type
REMARK                         _______ _______ _______ _____ _____    ______ ____
ROOT
ATOM      1  C   UNL     1       2.959   2.628  17.831  0.00  0.00    +0.000 C 
ATOM      2  C   UNL     1       4.096   3.637  17.676  0.00  0.00    +0.000 C 
ATOM      3  N   UNL     1       4.480   3.937  19.053  0.00  0.00    +0.000 NA
ATOM      4  C   UNL     1       4.456   2.648  19.768  0.00  0.00    +0.000 C 
ATOM      5  C   UNL     1       3.468   1.744  18.988  0.00  0.00    +0.000 C 
ENDROOT
BRANCH   1   7
ATOM      6  C   UNL     1       0.964   2.995  19.498  0.00  0.00    +0.000 C 
ATOM      7  C   UNL     1       1.549   3.238  18.102  0.00  0.00    +0.000 C 
ATOM      8  C   UNL     1       1.526   4.742  17.800  0.00  0.00    +0.000 C 
ENDBRANCH   1   7
BRANCH   5   9
ATOM      9  N   UNL     1       4.160   0.545  18.484  0.00  0.00    +0.000 NA
ATOM     10  H   UNL     1       5.169   0.683  18.540  0.00  0.00    +0.000 HD
ATOM     11  H   UNL     1       3.943   0.418  17.497  0.00  0.00    +0.000 HD
ENDBRANCH   5   9
BRANCH   3  12
ATOM     12  C   UNL     1       5.780   4.611  19.172  0.00  0.00    +0.000 C 
BRANCH  12  13
ATOM     13  C   UNL     1       5.991   5.656  18.071  0.00  0.00    +0.000 C 
BRANCH  13  14
ATOM     14  C   UNL     1       6.857   5.119  16.947  0.00  0.00    +0.000 C 
ATOM     15  O   UNL     1       7.867   4.458  17.181  0.00  0.00    +0.000 OA
ATOM     16  N   UNL     1       6.438   5.397  15.648  0.00  0.00    +0.000 N 
ATOM     17  C   UNL     1       5.250   6.160  15.286  0.00  0.00    +0.000 C 
ATOM     18  C   UNL     1       7.232   4.901  14.534  0.00  0.00    +0.000 C 
ENDBRANCH  13  14
ENDBRANCH  12  13
ENDBRANCH   3  12
TORSDOF 5
ENDMDL
