MODEL 1
REMARK VINA RESULT:      -5.7      0.000      0.000
REMARK  Name = 
REMARK  5 active torsions:
REMARK  status: ('A' for Active; 'I' for Inactive)
REMARK    1  A    between atoms: C_1  and  N_2
REMARK    2  A    between atoms: N_2  and  C_3
REMARK    3  A    between atoms: N_2  and  C_4
REMARK    4  A    between atoms: C_4  and  C_5
REMARK    5  A    between atoms: C_5  and  C_7
REMARK                            x       y       z     vdW  Elec       q    Type
REMARK                         _______ _______ _______ _____ _____    ______ ____
ROOT
ATOM      1  C   UNL     1       3.944   4.485  17.706  0.00  0.00    +0.000 A 
ATOM      2  C   UNL     1       3.933   5.884  17.829  0.00  0.00    +0.000 A 
ATOM      3  C   UNL     1       4.595   6.691  16.894  0.00  0.00    +0.000 A 
ATOM      4  C   UNL     1       5.279   6.106  15.826  0.00  0.00    +0.000 A 
ATOM      5  C   UNL     1       5.301   4.721  15.701  0.00  0.00    +0.000 A 
ATOM      6 CL   UNL     1       6.140   4.000  14.382  0.00  0.00    +0.000 Cl
ATOM      7  C   UNL     1       4.640   3.911  16.623  0.00  0.00    +0.000 A 
ENDROOT
BRANCH   1   8
ATOM      8  C   UNL     1       3.185   3.639  18.711  0.00  0.00    +0.000 C 
ATOM      9 BR   UNL     1       3.427   1.750  18.254  0.00  0.00    +0.000 Br
BRANCH   8  10
ATOM     10  C   UNL     1       1.685   4.006  18.786  0.00  0.00    +0.000 C 
BRANCH  10  12
ATOM     11  C   UNL     1       1.274   3.077  21.016  0.00  0.00    +0.000 C 
ATOM     12  N   UNL     1       1.111   4.233  20.134  0.00  0.00    +0.000 NA
ATOM     13  C   UNL     1       1.740   5.415  20.739  0.00  0.00    +0.000 C 
ENDBRANCH  10  12
ENDBRANCH   8  10
ENDBRANCH   1   8
TORSDOF 3
ENDMDL
MODEL 2
REMARK VINA RESULT:      -5.6      1.939      2.230
REMARK  Name = 
REMARK  5 active torsions:
REMARK  status: ('A' for Active; 'I' for Inactive)
REMARK    1  A    between atoms: C_1  and  N_2
REMARK    2  A    between atoms: N_2  and  C_3
REMARK    3  A    between atoms: N_2  and  C_4
REMARK    4  A    between atoms: C_4  and  C_5
REMARK    5  A    between atoms: C_5  and  C_7
REMARK                            x       y       z     vdW  Elec       q    Type
REMARK                         _______ _______ _______ _____ _____    ______ ____
ROOT
ATOM      1  C   UNL     1       4.631   4.298  17.838  0.00  0.00    +0.000 A 
ATOM      2  C   UNL     1       5.783   4.658  18.555  0.00  0.00    +0.000 A 
ATOM      3  C   UNL     1       7.022   4.771  17.911  0.00  0.00    +0.000 A 
ATOM      4  C   UNL     1       7.123   4.520  16.541  0.00  0.00    +0.000 A 
ATOM      5  C   UNL     1       5.989   4.156  15.824  0.00  0.00    +0.000 A 
ATOM      6 CL   UNL     1       6.112   3.852  14.134  0.00  0.00    +0.000 Cl
ATOM      7  C   UNL     1       4.750   4.048  16.456  0.00  0.00    +0.000 A 
ENDROOT
BRANCH   1   8
ATOM      8  C   UNL     1       3.296   4.222  18.554  0.00  0.00    +0.000 C 
ATOM      9 BR   UNL     1       2.774   6.028  19.107  0.00  0.00    +0.000 Br
BRANCH   8  10
ATOM     10  C   UNL     1       3.323   3.257  19.762  0.00  0.00    +0.000 C 
BRANCH  10  12
ATOM     11  C   UNL     1       1.374   2.861  21.194  0.00  0.00    +0.000 C 
ATOM     12  N   UNL     1       2.109   2.439  20.001  0.00  0.00    +0.000 NA
ATOM     13  C   UNL     1       1.233   2.512  18.823  0.00  0.00    +0.000 C 
ENDBRANCH  10  12
ENDBRANCH   8  10
ENDBRANCH   1   8
TORSDOF 3
ENDMDL
MODEL 3
REMARK VINA RESULT:      -5.5      3.567      5.093
REMARK  Name = 
REMARK  5 active torsions:
REMARK  status: ('A' for Active; 'I' for Inactive)
REMARK    1  A    between atoms: C_1  and  N_2
REMARK    2  A    between atoms: N_2  and  C_3
REMARK    3  A    between atoms: N_2  and  C_4
REMARK    4  A    between atoms: C_4  and  C_5
REMARK    5  A    between atoms: C_5  and  C_7
REMARK                            x       y       z     vdW  Elec       q    Type
REMARK                         _______ _______ _______ _____ _____    ______ ____
ROOT
ATOM      1  C   UNL     1       4.659   5.200  16.901  0.00  0.00    +0.000 A 
ATOM      2  C   UNL     1       3.949   3.989  16.923  0.00  0.00    +0.000 A 
ATOM      3  C   UNL     1       2.688   3.908  17.528  0.00  0.00    +0.000 A 
ATOM      4  C   UNL     1       2.125   5.040  18.122  0.00  0.00    +0.000 A 
ATOM      5  C   UNL     1       2.825   6.242  18.112  0.00  0.00    +0.000 A 
ATOM      6 CL   UNL     1       2.128   7.638  18.840  0.00  0.00    +0.000 Cl
ATOM      7  C   UNL     1       4.077   6.332  17.506  0.00  0.00    +0.000 A 
ENDROOT
BRANCH   1   8
ATOM      8  C   UNL     1       6.005   5.266  16.204  0.00  0.00    +0.000 C 
ATOM      9 BR   UNL     1       5.913   4.211  14.555  0.00  0.00    +0.000 Br
BRANCH   8  10
ATOM     10  C   UNL     1       7.167   4.787  17.106  0.00  0.00    +0.000 C 
BRANCH  10  12
ATOM     11  C   UNL     1       7.584   7.175  17.464  0.00  0.00    +0.000 C 
ATOM     12  N   UNL     1       7.848   5.814  17.931  0.00  0.00    +0.000 NA
ATOM     13  C   UNL     1       7.424   5.674  19.330  0.00  0.00    +0.000 C 
ENDBRANCH  10  12
ENDBRANCH   8  10
ENDBRANCH   1   8
TORSDOF 3
ENDMDL
MODEL 4
REMARK VINA RESULT:      -5.5      3.538      5.514
REMARK  Name = 
REMARK  5 active torsions:
REMARK  status: ('A' for Active; 'I' for Inactive)
REMARK    1  A    between atoms: C_1  and  N_2
REMARK    2  A    between atoms: N_2  and  C_3
REMARK    3  A    between atoms: N_2  and  C_4
REMARK    4  A    between atoms: C_4  and  C_5
REMARK    5  A    between atoms: C_5  and  C_7
REMARK                            x       y       z     vdW  Elec       q    Type
REMARK                         _______ _______ _______ _____ _____    ______ ____
ROOT
ATOM      1  C   UNL     1       3.427   4.256  18.245  0.00  0.00    +0.000 A 
ATOM      2  C   UNL     1       2.248   4.043  17.513  0.00  0.00    +0.000 A 
ATOM      3  C   UNL     1       1.132   3.442  18.109  0.00  0.00    +0.000 A 
ATOM      4  C   UNL     1       1.185   3.043  19.446  0.00  0.00    +0.000 A 
ATOM      5  C   UNL     1       2.350   3.243  20.177  0.00  0.00    +0.000 A 
ATOM      6 CL   UNL     1       2.414   2.756  21.827  0.00  0.00    +0.000 Cl
ATOM      7  C   UNL     1       3.463   3.846  19.593  0.00  0.00    +0.000 A 
ENDROOT
BRANCH   1   8
ATOM      8  C   UNL     1       4.605   4.946  17.584  0.00  0.00    +0.000 C 
ATOM      9 BR   UNL     1       4.193   6.851  17.390  0.00  0.00    +0.000 Br
BRANCH   8  10
ATOM     10  C   UNL     1       4.976   4.315  16.221  0.00  0.00    +0.000 C 
BRANCH  10  12
ATOM     11  C   UNL     1       6.873   4.659  14.708  0.00  0.00    +0.000 C 
ATOM     12  N   UNL     1       6.414   4.061  15.963  0.00  0.00    +0.000 NA
ATOM     13  C   UNL     1       7.209   4.580  17.084  0.00  0.00    +0.000 C 
ENDBRANCH  10  12
ENDBRANCH   8  10
ENDBRANCH   1   8
TORSDOF 3
ENDMDL
MODEL 5
REMARK VINA RESULT:      -5.5      3.364      4.816
REMARK  Name = 
REMARK  5 active torsions:
REMARK  status: ('A' for Active; 'I' for Inactive)
REMARK    1  A    between atoms: C_1  and  N_2
REMARK    2  A    between atoms: N_2  and  C_3
REMARK    3  A    between atoms: N_2  and  C_4
REMARK    4  A    between atoms: C_4  and  C_5
REMARK    5  A    between atoms: C_5  and  C_7
REMARK                            x       y       z     vdW  Elec       q    Type
REMARK                         _______ _______ _______ _____ _____    ______ ____
ROOT
ATOM      1  C   UNL     1       4.580   4.977  17.029  0.00  0.00    +0.000 A 
ATOM      2  C   UNL     1       3.807   6.096  17.380  0.00  0.00    +0.000 A 
ATOM      3  C   UNL     1       2.603   5.945  18.080  0.00  0.00    +0.000 A 
ATOM      4  C   UNL     1       2.155   4.669  18.432  0.00  0.00    +0.000 A 
ATOM      5  C   UNL     1       2.910   3.555  18.081  0.00  0.00    +0.000 A 
ATOM      6 CL   UNL     1       2.361   1.983  18.520  0.00  0.00    +0.000 Cl
ATOM      7  C   UNL     1       4.113   3.698  17.391  0.00  0.00    +0.000 A 
ENDROOT
BRANCH   1   8
ATOM      8  C   UNL     1       5.899   5.176  16.306  0.00  0.00    +0.000 C 
ATOM      9 BR   UNL     1       5.845   4.190  14.614  0.00  0.00    +0.000 Br
BRANCH   8  10
ATOM     10  C   UNL     1       7.115   4.748  17.160  0.00  0.00    +0.000 C 
BRANCH  10  12
ATOM     11  C   UNL     1       7.454   7.152  17.493  0.00  0.00    +0.000 C 
ATOM     12  N   UNL     1       7.788   5.804  17.955  0.00  0.00    +0.000 NA
ATOM     13  C   UNL     1       7.422   5.657  19.370  0.00  0.00    +0.000 C 
ENDBRANCH  10  12
ENDBRANCH   8  10
ENDBRANCH   1   8
TORSDOF 3
ENDMDL
MODEL 6
REMARK VINA RESULT:      -5.5      2.284      2.756
REMARK  Name = 
REMARK  5 active torsions:
REMARK  status: ('A' for Active; 'I' for Inactive)
REMARK    1  A    between atoms: C_1  and  N_2
REMARK    2  A    between atoms: N_2  and  C_3
REMARK    3  A    between atoms: N_2  and  C_4
REMARK    4  A    between atoms: C_4  and  C_5
REMARK    5  A    between atoms: C_5  and  C_7
REMARK                            x       y       z     vdW  Elec       q    Type
REMARK                         _______ _______ _______ _____ _____    ______ ____
ROOT
ATOM      1  C   UNL     1       4.340   5.191  17.241  0.00  0.00    +0.000 A 
ATOM      2  C   UNL     1       4.737   4.141  16.398  0.00  0.00    +0.000 A 
ATOM      3  C   UNL     1       6.042   4.082  15.892  0.00  0.00    +0.000 A 
ATOM      4  C   UNL     1       6.964   5.078  16.220  0.00  0.00    +0.000 A 
ATOM      5  C   UNL     1       6.578   6.126  17.049  0.00  0.00    +0.000 A 
ATOM      6 CL   UNL     1       7.716   7.351  17.458  0.00  0.00    +0.000 Cl
ATOM      7  C   UNL     1       5.283   6.189  17.562  0.00  0.00    +0.000 A 
ENDROOT
BRANCH   1   8
ATOM      8  C   UNL     1       2.932   5.206  17.805  0.00  0.00    +0.000 C 
ATOM      9 BR   UNL     1       2.514   7.024  18.407  0.00  0.00    +0.000 Br
BRANCH   8  10
ATOM     10  C   UNL     1       2.738   4.183  18.949  0.00  0.00    +0.000 C 
BRANCH  10  12
ATOM     11  C   UNL     1       1.021   2.453  18.702  0.00  0.00    +0.000 C 
ATOM     12  N   UNL     1       1.348   3.768  19.255  0.00  0.00    +0.000 NA
ATOM     13  C   UNL     1       1.151   3.760  20.711  0.00  0.00    +0.000 C 
ENDBRANCH  10  12
ENDBRANCH   8  10
ENDBRANCH   1   8
TORSDOF 3
ENDMDL
MODEL 7
REMARK VINA RESULT:      -5.5      3.609      5.439
REMARK  Name = 
REMARK  5 active torsions:
REMARK  status: ('A' for Active; 'I' for Inactive)
REMARK    1  A    between atoms: C_1  and  N_2
REMARK    2  A    between atoms: N_2  and  C_3
REMARK    3  A    between atoms: N_2  and  C_4
REMARK    4  A    between atoms: C_4  and  C_5
REMARK    5  A    between atoms: C_5  and  C_7
REMARK                            x       y       z     vdW  Elec       q    Type
REMARK                         _______ _______ _______ _____ _____    ______ ____
ROOT
ATOM      1  C   UNL     1       3.474   4.759  18.085  0.00  0.00    +0.000 A 
ATOM      2  C   UNL     1       3.407   3.699  17.167  0.00  0.00    +0.000 A 
ATOM      3  C   UNL     1       2.648   2.556  17.446  0.00  0.00    +0.000 A 
ATOM      4  C   UNL     1       1.950   2.458  18.652  0.00  0.00    +0.000 A 
ATOM      5  C   UNL     1       2.017   3.500  19.571  0.00  0.00    +0.000 A 
ATOM      6 CL   UNL     1       1.153   3.383  21.055  0.00  0.00    +0.000 Cl
ATOM      7  C   UNL     1       2.765   4.645  19.297  0.00  0.00    +0.000 A 
ENDROOT
BRANCH   1   8
ATOM      8  C   UNL     1       4.272   6.002  17.736  0.00  0.00    +0.000 C 
ATOM      9 BR   UNL     1       3.103   7.566  17.893  0.00  0.00    +0.000 Br
BRANCH   8  10
ATOM     10  C   UNL     1       4.912   5.924  16.330  0.00  0.00    +0.000 C 
BRANCH  10  12
ATOM     11  C   UNL     1       6.921   6.888  17.350  0.00  0.00    +0.000 C 
ATOM     12  N   UNL     1       6.383   6.090  16.247  0.00  0.00    +0.000 NA
ATOM     13  C   UNL     1       7.023   4.768  16.227  0.00  0.00    +0.000 C 
ENDBRANCH  10  12
ENDBRANCH   8  10
ENDBRANCH   1   8
TORSDOF 3
ENDMDL
MODEL 8
REMARK VINA RESULT:      -5.4      1.690      1.901
REMARK  Name = 
REMARK  5 active torsions:
REMARK  status: ('A' for Active; 'I' for Inactive)
REMARK    1  A    between atoms: C_1  and  N_2
REMARK    2  A    between atoms: N_2  and  C_3
REMARK    3  A    between atoms: N_2  and  C_4
REMARK    4  A    between atoms: C_4  and  C_5
REMARK    5  A    between atoms: C_5  and  C_7
REMARK                            x       y       z     vdW  Elec       q    Type
REMARK                         _______ _______ _______ _____ _____    ______ ____
ROOT
ATOM      1  C   UNL     1       3.628   5.106  17.755  0.00  0.00    +0.000 A 
ATOM      2  C   UNL     1       3.894   6.479  17.636  0.00  0.00    +0.000 A 
ATOM      3  C   UNL     1       4.805   6.953  16.683  0.00  0.00    +0.000 A 
ATOM      4  C   UNL     1       5.465   6.055  15.840  0.00  0.00    +0.000 A 
ATOM      5  C   UNL     1       5.213   4.693  15.956  0.00  0.00    +0.000 A 
ATOM      6 CL   UNL     1       6.021   3.586  14.914  0.00  0.00    +0.000 Cl
ATOM      7  C   UNL     1       4.303   4.214  16.898  0.00  0.00    +0.000 A 
ENDROOT
BRANCH   1   8
ATOM      8  C   UNL     1       2.607   4.626  18.769  0.00  0.00    +0.000 C 
ATOM      9 BR   UNL     1       2.228   6.086  20.020  0.00  0.00    +0.000 Br
BRANCH   8  10
ATOM     10  C   UNL     1       3.067   3.355  19.521  0.00  0.00    +0.000 C 
BRANCH  10  12
ATOM     11  C   UNL     1       1.489   2.616  21.245  0.00  0.00    +0.000 C 
ATOM     12  N   UNL     1       2.017   2.378  19.901  0.00  0.00    +0.000 NA
ATOM     13  C   UNL     1       0.926   2.429  18.919  0.00  0.00    +0.000 C 
ENDBRANCH  10  12
ENDBRANCH   8  10
ENDBRANCH   1   8
TORSDOF 3
ENDMDL
MODEL 9
REMARK VINA RESULT:      -5.4      3.473      5.197
REMARK  Name = 
REMARK  5 active torsions:
REMARK  status: ('A' for Active; 'I' for Inactive)
REMARK    1  A    between atoms: C_1  and  N_2
REMARK    2  A    between atoms: N_2  and  C_3
REMARK    3  A    between atoms: N_2  and  C_4
REMARK    4  A    between atoms: C_4  and  C_5
REMARK    5  A    between atoms: C_5  and  C_7
REMARK                            x       y       z     vdW  Elec       q    Type
REMARK                         _______ _______ _______ _____ _____    ______ ____
ROOT
ATOM      1  C   UNL     1       3.706   4.264  17.593  0.00  0.00    +0.000 A 
ATOM      2  C   UNL     1       3.933   2.892  17.400  0.00  0.00    +0.000 A 
ATOM      3  C   UNL     1       3.205   1.936  18.120  0.00  0.00    +0.000 A 
ATOM      4  C   UNL     1       2.242   2.343  19.046  0.00  0.00    +0.000 A 
ATOM      5  C   UNL     1       2.015   3.700  19.249  0.00  0.00    +0.000 A 
ATOM      6 CL   UNL     1       0.825   4.203  20.387  0.00  0.00    +0.000 Cl
ATOM      7  C   UNL     1       2.732   4.658  18.532  0.00  0.00    +0.000 A 
ENDROOT
BRANCH   1   8
ATOM      8  C   UNL     1       4.483   5.274  16.770  0.00  0.00    +0.000 C 
ATOM      9 BR   UNL     1       5.699   4.312  15.574  0.00  0.00    +0.000 Br
BRANCH   8  10
ATOM     10  C   UNL     1       5.253   6.290  17.647  0.00  0.00    +0.000 C 
BRANCH  10  12
ATOM     11  C   UNL     1       7.477   7.314  17.549  0.00  0.00    +0.000 C 
ATOM     12  N   UNL     1       6.715   6.088  17.789  0.00  0.00    +0.000 NA
ATOM     13  C   UNL     1       7.007   5.573  19.134  0.00  0.00    +0.000 C 
ENDBRANCH  10  12
ENDBRANCH   8  10
ENDBRANCH   1   8
TORSDOF 3
ENDMDL
