MODEL 1
REMARK VINA RESULT:      -6.5      0.000      0.000
REMARK  Name = 
REMARK  5 active torsions:
REMARK  status: ('A' for Active; 'I' for Inactive)
REMARK    1  A    between atoms: C_1  and  C_2
REMARK    2  A    between atoms: C_4  and  C_5
REMARK    3  A    between atoms: C_6  and  C_7
REMARK    4  A    between atoms: C_13  and  C_14
REMARK    5  A    between atoms: C_15  and  O_16
REMARK                            x       y       z     vdW  Elec       q    Type
REMARK                         _______ _______ _______ _____ _____    ______ ____
ROOT
ATOM      1  C   UNL     1      11.412  13.111  16.894  0.00  0.00    +0.000 C 
ATOM      2  C   UNL     1      10.696  12.523  18.075  0.00  0.00    +0.000 A 
ATOM      3  C   UNL     1      10.163  11.228  17.998  0.00  0.00    +0.000 A 
ATOM      4  C   UNL     1       9.495  10.654  19.085  0.00  0.00    +0.000 A 
ATOM      5  C   UNL     1       9.339  11.414  20.254  0.00  0.00    +0.000 A 
ATOM      6  C   UNL     1       9.862  12.715  20.362  0.00  0.00    +0.000 A 
ATOM      7  C   UNL     1       9.683  13.474  21.646  0.00  0.00    +0.000 C 
ATOM      8  C   UNL     1      10.539  13.254  19.260  0.00  0.00    +0.000 A 
ENDROOT
BRANCH   4   9
ATOM      9  C   UNL     1       8.887   9.314  19.023  0.00  0.00    +0.000 C 
ATOM     10  C   UNL     1       8.216   8.813  17.970  0.00  0.00    +0.000 C 
BRANCH  10  11
ATOM     11  C   UNL     1       7.608   7.514  17.913  0.00  0.00    +0.000 A 
ATOM     12  C   UNL     1       8.035   6.333  18.597  0.00  0.00    +0.000 A 
ATOM     13  C   UNL     1       7.226   5.250  18.333  0.00  0.00    +0.000 A 
ATOM     14  S   UNL     1       5.955   5.643  17.262  0.00  0.00    +0.000 S 
ATOM     15  C   UNL     1       6.481   7.270  17.153  0.00  0.00    +0.000 A 
ENDBRANCH  10  11
ENDBRANCH   4   9
BRANCH   8  16
ATOM     16  O   UNL     1      11.072  14.516  19.287  0.00  0.00    +0.000 OA
ATOM     17  H   UNL     1      11.917  14.524  18.815  0.00  0.00    +0.000 HD
ENDBRANCH   8  16
TORSDOF 3
ENDMDL
MODEL 2
REMARK VINA RESULT:      -6.4      0.677      1.069
REMARK  Name = 
REMARK  5 active torsions:
REMARK  status: ('A' for Active; 'I' for Inactive)
REMARK    1  A    between atoms: C_1  and  C_2
REMARK    2  A    between atoms: C_4  and  C_5
REMARK    3  A    between atoms: C_6  and  C_7
REMARK    4  A    between atoms: C_13  and  C_14
REMARK    5  A    between atoms: C_15  and  O_16
REMARK                            x       y       z     vdW  Elec       q    Type
REMARK                         _______ _______ _______ _____ _____    ______ ____
ROOT
ATOM      1  C   UNL     1      10.960  13.483  17.039  0.00  0.00    +0.000 C 
ATOM      2  C   UNL     1      10.383  12.678  18.167  0.00  0.00    +0.000 A 
ATOM      3  C   UNL     1       9.981  11.352  17.948  0.00  0.00    +0.000 A 
ATOM      4  C   UNL     1       9.445  10.578  18.983  0.00  0.00    +0.000 A 
ATOM      5  C   UNL     1       9.286  11.165  20.247  0.00  0.00    +0.000 A 
ATOM      6  C   UNL     1       9.680  12.492  20.498  0.00  0.00    +0.000 A 
ATOM      7  C   UNL     1       9.505  13.061  21.877  0.00  0.00    +0.000 C 
ATOM      8  C   UNL     1      10.227  13.235  19.443  0.00  0.00    +0.000 A 
ENDROOT
BRANCH   4   9
ATOM      9  C   UNL     1       8.974   9.198  18.777  0.00  0.00    +0.000 C 
ATOM     10  C   UNL     1       7.991   8.829  17.934  0.00  0.00    +0.000 C 
BRANCH  10  11
ATOM     11  C   UNL     1       7.518   7.487  17.744  0.00  0.00    +0.000 A 
ATOM     12  C   UNL     1       6.619   7.028  16.731  0.00  0.00    +0.000 A 
ATOM     13  C   UNL     1       6.371   5.676  16.821  0.00  0.00    +0.000 A 
ATOM     14  S   UNL     1       7.212   4.953  18.120  0.00  0.00    +0.000 S 
ATOM     15  C   UNL     1       7.917   6.451  18.564  0.00  0.00    +0.000 A 
ENDBRANCH  10  11
ENDBRANCH   4   9
BRANCH   8  16
ATOM     16  O   UNL     1      10.629  14.533  19.608  0.00  0.00    +0.000 OA
ATOM     17  H   UNL     1      11.452  14.685  19.121  0.00  0.00    +0.000 HD
ENDBRANCH   8  16
TORSDOF 3
ENDMDL
MODEL 3
REMARK VINA RESULT:      -6.3      4.120      7.622
REMARK  Name = 
REMARK  5 active torsions:
REMARK  status: ('A' for Active; 'I' for Inactive)
REMARK    1  A    between atoms: C_1  and  C_2
REMARK    2  A    between atoms: C_4  and  C_5
REMARK    3  A    between atoms: C_6  and  C_7
REMARK    4  A    between atoms: C_13  and  C_14
REMARK    5  A    between atoms: C_15  and  O_16
REMARK                            x       y       z     vdW  Elec       q    Type
REMARK                         _______ _______ _______ _____ _____    ______ ____
ROOT
ATOM      1  C   UNL     1       6.721   4.692  14.584  0.00  0.00    +0.000 C 
ATOM      2  C   UNL     1       6.661   5.077  16.034  0.00  0.00    +0.000 A 
ATOM      3  C   UNL     1       7.368   6.199  16.491  0.00  0.00    +0.000 A 
ATOM      4  C   UNL     1       7.325   6.583  17.835  0.00  0.00    +0.000 A 
ATOM      5  C   UNL     1       6.581   5.803  18.733  0.00  0.00    +0.000 A 
ATOM      6  C   UNL     1       5.861   4.673  18.305  0.00  0.00    +0.000 A 
ATOM      7  C   UNL     1       5.065   3.887  19.307  0.00  0.00    +0.000 C 
ATOM      8  C   UNL     1       5.913   4.324  16.949  0.00  0.00    +0.000 A 
ENDROOT
BRANCH   4   9
ATOM      9  C   UNL     1       8.090   7.729  18.356  0.00  0.00    +0.000 C 
ATOM     10  C   UNL     1       8.010   8.991  17.895  0.00  0.00    +0.000 C 
BRANCH  10  11
ATOM     11  C   UNL     1       8.766  10.107  18.388  0.00  0.00    +0.000 A 
ATOM     12  C   UNL     1       9.001  11.349  17.720  0.00  0.00    +0.000 A 
ATOM     13  C   UNL     1       9.762  12.216  18.473  0.00  0.00    +0.000 A 
ATOM     14  S   UNL     1      10.200  11.543  19.981  0.00  0.00    +0.000 S 
ATOM     15  C   UNL     1       9.365  10.088  19.632  0.00  0.00    +0.000 A 
ENDBRANCH  10  11
ENDBRANCH   4   9
BRANCH   8  16
ATOM     16  O   UNL     1       5.244   3.236  16.457  0.00  0.00    +0.000 OA
ATOM     17  H   UNL     1       5.738   2.854  15.717  0.00  0.00    +0.000 HD
ENDBRANCH   8  16
TORSDOF 3
ENDMDL
MODEL 4
REMARK VINA RESULT:      -6.3      4.148      7.886
REMARK  Name = 
REMARK  5 active torsions:
REMARK  status: ('A' for Active; 'I' for Inactive)
REMARK    1  A    between atoms: C_1  and  C_2
REMARK    2  A    between atoms: C_4  and  C_5
REMARK    3  A    between atoms: C_6  and  C_7
REMARK    4  A    between atoms: C_13  and  C_14
REMARK    5  A    between atoms: C_15  and  O_16
REMARK                            x       y       z     vdW  Elec       q    Type
REMARK                         _______ _______ _______ _____ _____    ______ ____
ROOT
ATOM      1  C   UNL     1       4.848   3.911  19.340  0.00  0.00    +0.000 C 
ATOM      2  C   UNL     1       5.735   4.653  18.382  0.00  0.00    +0.000 A 
ATOM      3  C   UNL     1       6.509   5.731  18.836  0.00  0.00    +0.000 A 
ATOM      4  C   UNL     1       7.347   6.436  17.965  0.00  0.00    +0.000 A 
ATOM      5  C   UNL     1       7.378   6.063  16.613  0.00  0.00    +0.000 A 
ATOM      6  C   UNL     1       6.613   4.987  16.128  0.00  0.00    +0.000 A 
ATOM      7  C   UNL     1       6.701   4.620  14.675  0.00  0.00    +0.000 C 
ATOM      8  C   UNL     1       5.795   4.292  17.029  0.00  0.00    +0.000 A 
ENDROOT
BRANCH   4   9
ATOM      9  C   UNL     1       8.140   7.599  18.399  0.00  0.00    +0.000 C 
ATOM     10  C   UNL     1       7.936   8.870  18.007  0.00  0.00    +0.000 C 
BRANCH  10  11
ATOM     11  C   UNL     1       8.717  10.003  18.414  0.00  0.00    +0.000 A 
ATOM     12  C   UNL     1       9.457  10.144  19.630  0.00  0.00    +0.000 A 
ATOM     13  C   UNL     1      10.108  11.356  19.712  0.00  0.00    +0.000 A 
ATOM     14  S   UNL     1       9.832  12.328  18.335  0.00  0.00    +0.000 S 
ATOM     15  C   UNL     1       8.842  11.125  17.620  0.00  0.00    +0.000 A 
ENDBRANCH  10  11
ENDBRANCH   4   9
BRANCH   8  16
ATOM     16  O   UNL     1       5.018   3.237  16.632  0.00  0.00    +0.000 OA
ATOM     17  H   UNL     1       4.496   3.488  15.856  0.00  0.00    +0.000 HD
ENDBRANCH   8  16
TORSDOF 3
ENDMDL
MODEL 5
REMARK VINA RESULT:      -6.3      7.024      9.353
REMARK  Name = 
REMARK  5 active torsions:
REMARK  status: ('A' for Active; 'I' for Inactive)
REMARK    1  A    between atoms: C_1  and  C_2
REMARK    2  A    between atoms: C_4  and  C_5
REMARK    3  A    between atoms: C_6  and  C_7
REMARK    4  A    between atoms: C_13  and  C_14
REMARK    5  A    between atoms: C_15  and  O_16
REMARK                            x       y       z     vdW  Elec       q    Type
REMARK                         _______ _______ _______ _____ _____    ______ ____
ROOT
ATOM      1  C   UNL     1       2.821   2.806  17.529  0.00  0.00    +0.000 C 
ATOM      2  C   UNL     1       3.392   4.195  17.501  0.00  0.00    +0.000 A 
ATOM      3  C   UNL     1       2.631   5.275  17.974  0.00  0.00    +0.000 A 
ATOM      4  C   UNL     1       3.140   6.577  17.963  0.00  0.00    +0.000 A 
ATOM      5  C   UNL     1       4.424   6.792  17.441  0.00  0.00    +0.000 A 
ATOM      6  C   UNL     1       5.211   5.730  16.960  0.00  0.00    +0.000 A 
ATOM      7  C   UNL     1       6.587   6.017  16.431  0.00  0.00    +0.000 C 
ATOM      8  C   UNL     1       4.677   4.435  16.998  0.00  0.00    +0.000 A 
ENDROOT
BRANCH   4   9
ATOM      9  C   UNL     1       2.353   7.739  18.411  0.00  0.00    +0.000 C 
ATOM     10  C   UNL     1       1.725   8.612  17.602  0.00  0.00    +0.000 C 
BRANCH  10  11
ATOM     11  C   UNL     1       0.971   9.754  18.035  0.00  0.00    +0.000 A 
ATOM     12  C   UNL     1      -0.442   9.945  17.921  0.00  0.00    +0.000 A 
ATOM     13  C   UNL     1      -0.853  11.152  18.443  0.00  0.00    +0.000 A 
ATOM     14  S   UNL     1       0.452  12.060  19.067  0.00  0.00    +0.000 S 
ATOM     15  C   UNL     1       1.573  10.836  18.645  0.00  0.00    +0.000 A 
ENDBRANCH  10  11
ENDBRANCH   4   9
BRANCH   8  16
ATOM     16  O   UNL     1       5.379   3.351  16.545  0.00  0.00    +0.000 OA
ATOM     17  H   UNL     1       4.835   2.844  15.925  0.00  0.00    +0.000 HD
ENDBRANCH   8  16
TORSDOF 3
ENDMDL
MODEL 6
REMARK VINA RESULT:      -6.3      8.290     10.330
REMARK  Name = 
REMARK  5 active torsions:
REMARK  status: ('A' for Active; 'I' for Inactive)
REMARK    1  A    between atoms: C_1  and  C_2
REMARK    2  A    between atoms: C_4  and  C_5
REMARK    3  A    between atoms: C_6  and  C_7
REMARK    4  A    between atoms: C_13  and  C_14
REMARK    5  A    between atoms: C_15  and  O_16
REMARK                            x       y       z     vdW  Elec       q    Type
REMARK                         _______ _______ _______ _____ _____    ______ ____
ROOT
ATOM      1  C   UNL     1       2.322   2.956  21.215  0.00  0.00    +0.000 C 
ATOM      2  C   UNL     1       2.551   4.173  20.367  0.00  0.00    +0.000 A 
ATOM      3  C   UNL     1       1.986   5.403  20.738  0.00  0.00    +0.000 A 
ATOM      4  C   UNL     1       2.188   6.553  19.968  0.00  0.00    +0.000 A 
ATOM      5  C   UNL     1       2.947   6.450  18.792  0.00  0.00    +0.000 A 
ATOM      6  C   UNL     1       3.526   5.231  18.394  0.00  0.00    +0.000 A 
ATOM      7  C   UNL     1       4.346   5.185  17.137  0.00  0.00    +0.000 C 
ATOM      8  C   UNL     1       3.317   4.101  19.196  0.00  0.00    +0.000 A 
ENDROOT
BRANCH   4   9
ATOM      9  C   UNL     1       1.575   7.849  20.305  0.00  0.00    +0.000 C 
ATOM     10  C   UNL     1       0.992   8.151  21.480  0.00  0.00    +0.000 C 
BRANCH  10  11
ATOM     11  C   UNL     1       0.379   9.407  21.805  0.00  0.00    +0.000 A 
ATOM     12  C   UNL     1      -0.489   9.680  22.909  0.00  0.00    +0.000 A 
ATOM     13  C   UNL     1      -0.902  10.994  22.942  0.00  0.00    +0.000 A 
ATOM     14  S   UNL     1      -0.255  11.903  21.650  0.00  0.00    +0.000 S 
ATOM     15  C   UNL     1       0.587  10.540  21.044  0.00  0.00    +0.000 A 
ENDBRANCH  10  11
ENDBRANCH   4   9
BRANCH   8  16
ATOM     16  O   UNL     1       3.844   2.880  18.872  0.00  0.00    +0.000 OA
ATOM     17  H   UNL     1       4.487   2.612  19.544  0.00  0.00    +0.000 HD
ENDBRANCH   8  16
TORSDOF 3
ENDMDL
MODEL 7
REMARK VINA RESULT:      -6.2      4.140      7.912
REMARK  Name = 
REMARK  5 active torsions:
REMARK  status: ('A' for Active; 'I' for Inactive)
REMARK    1  A    between atoms: C_1  and  C_2
REMARK    2  A    between atoms: C_4  and  C_5
REMARK    3  A    between atoms: C_6  and  C_7
REMARK    4  A    between atoms: C_13  and  C_14
REMARK    5  A    between atoms: C_15  and  O_16
REMARK                            x       y       z     vdW  Elec       q    Type
REMARK                         _______ _______ _______ _____ _____    ______ ____
ROOT
ATOM      1  C   UNL     1       4.802   4.107  19.285  0.00  0.00    +0.000 C 
ATOM      2  C   UNL     1       5.740   4.788  18.330  0.00  0.00    +0.000 A 
ATOM      3  C   UNL     1       6.502   5.885  18.760  0.00  0.00    +0.000 A 
ATOM      4  C   UNL     1       7.386   6.535  17.892  0.00  0.00    +0.000 A 
ATOM      5  C   UNL     1       7.477   6.086  16.566  0.00  0.00    +0.000 A 
ATOM      6  C   UNL     1       6.726   4.990  16.106  0.00  0.00    +0.000 A 
ATOM      7  C   UNL     1       6.879   4.541  14.681  0.00  0.00    +0.000 C 
ATOM      8  C   UNL     1       5.860   4.352  17.005  0.00  0.00    +0.000 A 
ENDROOT
BRANCH   4   9
ATOM      9  C   UNL     1       8.169   7.715  18.298  0.00  0.00    +0.000 C 
ATOM     10  C   UNL     1       7.893   8.986  17.956  0.00  0.00    +0.000 C 
BRANCH  10  11
ATOM     11  C   UNL     1       8.663  10.136  18.335  0.00  0.00    +0.000 A 
ATOM     12  C   UNL     1       8.676  11.413  17.690  0.00  0.00    +0.000 A 
ATOM     13  C   UNL     1       9.522  12.307  18.310  0.00  0.00    +0.000 A 
ATOM     14  S   UNL     1      10.304  11.619  19.663  0.00  0.00    +0.000 S 
ATOM     15  C   UNL     1       9.507  10.121  19.427  0.00  0.00    +0.000 A 
ENDBRANCH  10  11
ENDBRANCH   4   9
BRANCH   8  16
ATOM     16  O   UNL     1       5.093   3.281  16.631  0.00  0.00    +0.000 OA
ATOM     17  H   UNL     1       4.531   3.007  17.370  0.00  0.00    +0.000 HD
ENDBRANCH   8  16
TORSDOF 3
ENDMDL
MODEL 8
REMARK VINA RESULT:      -6.2      8.678     10.361
REMARK  Name = 
REMARK  5 active torsions:
REMARK  status: ('A' for Active; 'I' for Inactive)
REMARK    1  A    between atoms: C_1  and  C_2
REMARK    2  A    between atoms: C_4  and  C_5
REMARK    3  A    between atoms: C_6  and  C_7
REMARK    4  A    between atoms: C_13  and  C_14
REMARK    5  A    between atoms: C_15  and  O_16
REMARK                            x       y       z     vdW  Elec       q    Type
REMARK                         _______ _______ _______ _____ _____    ______ ____
ROOT
ATOM      1  C   UNL     1       4.413   4.050  17.469  0.00  0.00    +0.000 C 
ATOM      2  C   UNL     1       3.517   4.355  18.635  0.00  0.00    +0.000 A 
ATOM      3  C   UNL     1       3.081   5.669  18.859  0.00  0.00    +0.000 A 
ATOM      4  C   UNL     1       2.242   5.979  19.935  0.00  0.00    +0.000 A 
ATOM      5  C   UNL     1       1.865   4.949  20.811  0.00  0.00    +0.000 A 
ATOM      6  C   UNL     1       2.286   3.623  20.612  0.00  0.00    +0.000 A 
ATOM      7  C   UNL     1       1.834   2.558  21.571  0.00  0.00    +0.000 C 
ATOM      8  C   UNL     1       3.114   3.343  19.517  0.00  0.00    +0.000 A 
ENDROOT
BRANCH   4   9
ATOM      9  C   UNL     1       1.800   7.354  20.223  0.00  0.00    +0.000 C 
ATOM     10  C   UNL     1       0.893   7.699  21.156  0.00  0.00    +0.000 C 
BRANCH  10  11
ATOM     11  C   UNL     1       0.448   9.036  21.428  0.00  0.00    +0.000 A 
ATOM     12  C   UNL     1      -0.125   9.520  22.646  0.00  0.00    +0.000 A 
ATOM     13  C   UNL     1      -0.440  10.860  22.583  0.00  0.00    +0.000 A 
ATOM     14  S   UNL     1      -0.052  11.541  21.066  0.00  0.00    +0.000 S 
ATOM     15  C   UNL     1       0.544  10.042  20.488  0.00  0.00    +0.000 A 
ENDBRANCH  10  11
ENDBRANCH   4   9
BRANCH   8  16
ATOM     16  O   UNL     1       3.569   2.077  19.260  0.00  0.00    +0.000 OA
ATOM     17  H   UNL     1       4.521   2.031  19.429  0.00  0.00    +0.000 HD
ENDBRANCH   8  16
TORSDOF 3
ENDMDL
MODEL 9
REMARK VINA RESULT:      -6.2      7.515      9.556
REMARK  Name = 
REMARK  5 active torsions:
REMARK  status: ('A' for Active; 'I' for Inactive)
REMARK    1  A    between atoms: C_1  and  C_2
REMARK    2  A    between atoms: C_4  and  C_5
REMARK    3  A    between atoms: C_6  and  C_7
REMARK    4  A    between atoms: C_13  and  C_14
REMARK    5  A    between atoms: C_15  and  O_16
REMARK                            x       y       z     vdW  Elec       q    Type
REMARK                         _______ _______ _______ _____ _____    ______ ____
ROOT
ATOM      1  C   UNL     1       5.872   4.896  16.456  0.00  0.00    +0.000 C 
ATOM      2  C   UNL     1       4.588   4.978  17.229  0.00  0.00    +0.000 A 
ATOM      3  C   UNL     1       4.037   6.230  17.543  0.00  0.00    +0.000 A 
ATOM      4  C   UNL     1       2.839   6.334  18.258  0.00  0.00    +0.000 A 
ATOM      5  C   UNL     1       2.208   5.156  18.686  0.00  0.00    +0.000 A 
ATOM      6  C   UNL     1       2.735   3.887  18.387  0.00  0.00    +0.000 A 
ATOM      7  C   UNL     1       2.005   2.661  18.854  0.00  0.00    +0.000 C 
ATOM      8  C   UNL     1       3.929   3.817  17.656  0.00  0.00    +0.000 A 
ENDROOT
BRANCH   4   9
ATOM      9  C   UNL     1       2.257   7.631  18.641  0.00  0.00    +0.000 C 
ATOM     10  C   UNL     1       1.924   8.617  17.787  0.00  0.00    +0.000 C 
BRANCH  10  11
ATOM     11  C   UNL     1       1.372   9.888  18.158  0.00  0.00    +0.000 A 
ATOM     12  C   UNL     1      -0.000  10.182  18.434  0.00  0.00    +0.000 A 
ATOM     13  C   UNL     1      -0.198  11.504  18.770  0.00  0.00    +0.000 A 
ATOM     14  S   UNL     1       1.258  12.396  18.753  0.00  0.00    +0.000 S 
ATOM     15  C   UNL     1       2.161  11.012  18.300  0.00  0.00    +0.000 A 
ENDBRANCH  10  11
ENDBRANCH   4   9
BRANCH   8  16
ATOM     16  O   UNL     1       4.506   2.620  17.330  0.00  0.00    +0.000 OA
ATOM     17  H   UNL     1       5.025   2.291  18.080  0.00  0.00    +0.000 HD
ENDBRANCH   8  16
TORSDOF 3
ENDMDL
