MODEL 1
REMARK VINA RESULT:      -8.0      0.000      0.000
REMARK  Name = 
REMARK  3 active torsions:
REMARK  status: ('A' for Active; 'I' for Inactive)
REMARK    1  A    between atoms: C_1  and  N_2
REMARK    2  A    between atoms: C_6  and  C_7
REMARK    3  A    between atoms: C_6  and  C_13
REMARK                            x       y       z     vdW  Elec       q    Type
REMARK                         _______ _______ _______ _____ _____    ______ ____
ROOT
ATOM      1  C   UNL     1       0.792   2.205  19.043  0.00  0.00    +0.000 C 
ATOM      2  N   UNL     1       1.818   3.211  19.145  0.00  0.00    +0.000 N 
ATOM      3  C   UNL     1       2.642   3.373  20.210  0.00  0.00    +0.000 C 
ATOM      4  O   UNL     1       2.733   2.650  21.195  0.00  0.00    +0.000 OA
ATOM      5  N   UNL     1       3.362   4.517  20.043  0.00  0.00    +0.000 N 
ATOM      6  C   UNL     1       3.134   5.167  18.762  0.00  0.00    +0.000 C 
ATOM      7  C   UNL     1       2.022   4.212  18.226  0.00  0.00    +0.000 C 
ATOM      8  O   UNL     1       1.438   4.309  17.153  0.00  0.00    +0.000 OA
ATOM      9  H   UNL     1       4.023   4.832  20.738  0.00  0.00    +0.000 HD
ENDROOT
BRANCH   6  10
ATOM     10  C   UNL     1       4.462   5.080  17.984  0.00  0.00    +0.000 A 
ATOM     11  C   UNL     1       4.546   4.472  16.717  0.00  0.00    +0.000 A 
ATOM     12  C   UNL     1       5.784   4.195  16.129  0.00  0.00    +0.000 A 
ATOM     13  C   UNL     1       6.962   4.528  16.790  0.00  0.00    +0.000 A 
ATOM     14  C   UNL     1       6.904   5.187  18.014  0.00  0.00    +0.000 A 
ATOM     15  C   UNL     1       5.669   5.469  18.601  0.00  0.00    +0.000 A 
ENDBRANCH   6  10
BRANCH   6  16
ATOM     16  C   UNL     1       2.587   6.596  18.940  0.00  0.00    +0.000 A 
ATOM     17  C   UNL     1       2.589   7.534  17.888  0.00  0.00    +0.000 A 
ATOM     18  C   UNL     1       2.016   8.795  18.045  0.00  0.00    +0.000 A 
ATOM     19  C   UNL     1       1.452   9.160  19.260  0.00  0.00    +0.000 A 
ATOM     20  C   UNL     1       1.469   8.269  20.326  0.00  0.00    +0.000 A 
ATOM     21  C   UNL     1       2.038   6.999  20.171  0.00  0.00    +0.000 A 
ENDBRANCH   6  16
TORSDOF 2
ENDMDL
MODEL 2
REMARK VINA RESULT:      -7.9      0.115      1.081
REMARK  Name = 
REMARK  3 active torsions:
REMARK  status: ('A' for Active; 'I' for Inactive)
REMARK    1  A    between atoms: C_1  and  N_2
REMARK    2  A    between atoms: C_6  and  C_7
REMARK    3  A    between atoms: C_6  and  C_13
REMARK                            x       y       z     vdW  Elec       q    Type
REMARK                         _______ _______ _______ _____ _____    ______ ____
ROOT
ATOM      1  C   UNL     1       0.806   2.125  19.085  0.00  0.00    +0.000 C 
ATOM      2  N   UNL     1       1.802   3.161  19.197  0.00  0.00    +0.000 N 
ATOM      3  C   UNL     1       2.590   3.364  20.281  0.00  0.00    +0.000 C 
ATOM      4  O   UNL     1       2.673   2.660  21.282  0.00  0.00    +0.000 OA
ATOM      5  N   UNL     1       3.283   4.524  20.114  0.00  0.00    +0.000 N 
ATOM      6  C   UNL     1       3.074   5.145  18.816  0.00  0.00    +0.000 C 
ATOM      7  C   UNL     1       2.004   4.150  18.266  0.00  0.00    +0.000 C 
ATOM      8  O   UNL     1       1.448   4.212  17.176  0.00  0.00    +0.000 OA
ATOM      9  H   UNL     1       3.915   4.869  20.821  0.00  0.00    +0.000 HD
ENDROOT
BRANCH   6  10
ATOM     10  C   UNL     1       4.425   5.082  18.077  0.00  0.00    +0.000 A 
ATOM     11  C   UNL     1       4.558   4.469  16.815  0.00  0.00    +0.000 A 
ATOM     12  C   UNL     1       5.819   4.215  16.265  0.00  0.00    +0.000 A 
ATOM     13  C   UNL     1       6.970   4.575  16.958  0.00  0.00    +0.000 A 
ATOM     14  C   UNL     1       6.864   5.237  18.177  0.00  0.00    +0.000 A 
ATOM     15  C   UNL     1       5.606   5.497  18.726  0.00  0.00    +0.000 A 
ENDBRANCH   6  10
BRANCH   6  16
ATOM     16  C   UNL     1       2.484   6.561  18.952  0.00  0.00    +0.000 A 
ATOM     17  C   UNL     1       1.973   7.044  20.174  0.00  0.00    +0.000 A 
ATOM     18  C   UNL     1       1.519   8.356  20.298  0.00  0.00    +0.000 A 
ATOM     19  C   UNL     1       1.536   9.208  19.201  0.00  0.00    +0.000 A 
ATOM     20  C   UNL     1       1.999   8.747  17.975  0.00  0.00    +0.000 A 
ATOM     21  C   UNL     1       2.462   7.432  17.849  0.00  0.00    +0.000 A 
ENDBRANCH   6  16
TORSDOF 2
ENDMDL
MODEL 3
REMARK VINA RESULT:      -7.9      0.326      1.124
REMARK  Name = 
REMARK  3 active torsions:
REMARK  status: ('A' for Active; 'I' for Inactive)
REMARK    1  A    between atoms: C_1  and  N_2
REMARK    2  A    between atoms: C_6  and  C_7
REMARK    3  A    between atoms: C_6  and  C_13
REMARK                            x       y       z     vdW  Elec       q    Type
REMARK                         _______ _______ _______ _____ _____    ______ ____
ROOT
ATOM      1  C   UNL     1       0.832   2.050  19.217  0.00  0.00    +0.000 C 
ATOM      2  N   UNL     1       1.891   3.025  19.272  0.00  0.00    +0.000 N 
ATOM      3  C   UNL     1       2.696   3.236  20.343  0.00  0.00    +0.000 C 
ATOM      4  O   UNL     1       2.739   2.584  21.379  0.00  0.00    +0.000 OA
ATOM      5  N   UNL     1       3.460   4.340  20.112  0.00  0.00    +0.000 N 
ATOM      6  C   UNL     1       3.284   4.902  18.782  0.00  0.00    +0.000 C 
ATOM      7  C   UNL     1       2.151   3.948  18.288  0.00  0.00    +0.000 C 
ATOM      8  O   UNL     1       1.595   3.986  17.197  0.00  0.00    +0.000 OA
ATOM      9  H   UNL     1       4.116   4.682  20.798  0.00  0.00    +0.000 HD
ENDROOT
BRANCH   6  10
ATOM     10  C   UNL     1       4.625   4.714  18.046  0.00  0.00    +0.000 A 
ATOM     11  C   UNL     1       5.850   5.116  18.612  0.00  0.00    +0.000 A 
ATOM     12  C   UNL     1       7.022   5.153  17.849  0.00  0.00    +0.000 A 
ATOM     13  C   UNL     1       6.995   4.781  16.509  0.00  0.00    +0.000 A 
ATOM     14  C   UNL     1       5.810   4.320  15.944  0.00  0.00    +0.000 A 
ATOM     15  C   UNL     1       4.640   4.278  16.705  0.00  0.00    +0.000 A 
ENDBRANCH   6  10
BRANCH   6  16
ATOM     16  C   UNL     1       2.784   6.358  18.843  0.00  0.00    +0.000 A 
ATOM     17  C   UNL     1       2.895   7.233  17.743  0.00  0.00    +0.000 A 
ATOM     18  C   UNL     1       2.364   8.521  17.790  0.00  0.00    +0.000 A 
ATOM     19  C   UNL     1       1.734   8.976  18.942  0.00  0.00    +0.000 A 
ATOM     20  C   UNL     1       1.644   8.148  20.054  0.00  0.00    +0.000 A 
ATOM     21  C   UNL     1       2.170   6.851  20.008  0.00  0.00    +0.000 A 
ENDBRANCH   6  16
TORSDOF 2
ENDMDL
MODEL 4
REMARK VINA RESULT:      -7.9      3.204      6.181
REMARK  Name = 
REMARK  3 active torsions:
REMARK  status: ('A' for Active; 'I' for Inactive)
REMARK    1  A    between atoms: C_1  and  N_2
REMARK    2  A    between atoms: C_6  and  C_7
REMARK    3  A    between atoms: C_6  and  C_13
REMARK                            x       y       z     vdW  Elec       q    Type
REMARK                         _______ _______ _______ _____ _____    ______ ____
ROOT
ATOM      1  C   UNL     1       7.976   7.447  18.211  0.00  0.00    +0.000 C 
ATOM      2  N   UNL     1       7.269   6.296  17.708  0.00  0.00    +0.000 N 
ATOM      3  C   UNL     1       7.554   5.010  18.029  0.00  0.00    +0.000 C 
ATOM      4  O   UNL     1       8.362   4.614  18.861  0.00  0.00    +0.000 OA
ATOM      5  N   UNL     1       6.811   4.182  17.244  0.00  0.00    +0.000 N 
ATOM      6  C   UNL     1       5.871   4.884  16.384  0.00  0.00    +0.000 C 
ATOM      7  C   UNL     1       6.288   6.344  16.747  0.00  0.00    +0.000 C 
ATOM      8  O   UNL     1       5.811   7.372  16.282  0.00  0.00    +0.000 OA
ATOM      9  H   UNL     1       6.889   3.178  17.311  0.00  0.00    +0.000 HD
ENDROOT
BRANCH   6  10
ATOM     10  C   UNL     1       4.460   4.498  16.870  0.00  0.00    +0.000 A 
ATOM     11  C   UNL     1       3.541   5.460  17.335  0.00  0.00    +0.000 A 
ATOM     12  C   UNL     1       2.362   5.078  17.984  0.00  0.00    +0.000 A 
ATOM     13  C   UNL     1       2.072   3.730  18.172  0.00  0.00    +0.000 A 
ATOM     14  C   UNL     1       2.933   2.762  17.666  0.00  0.00    +0.000 A 
ATOM     15  C   UNL     1       4.109   3.140  17.014  0.00  0.00    +0.000 A 
ENDBRANCH   6  10
BRANCH   6  16
ATOM     16  C   UNL     1       6.138   4.594  14.895  0.00  0.00    +0.000 A 
ATOM     17  C   UNL     1       7.291   5.066  14.236  0.00  0.00    +0.000 A 
ATOM     18  C   UNL     1       7.556   4.725  12.911  0.00  0.00    +0.000 A 
ATOM     19  C   UNL     1       6.664   3.928  12.203  0.00  0.00    +0.000 A 
ATOM     20  C   UNL     1       5.501   3.480  12.816  0.00  0.00    +0.000 A 
ATOM     21  C   UNL     1       5.235   3.815  14.149  0.00  0.00    +0.000 A 
ENDBRANCH   6  16
TORSDOF 2
ENDMDL
MODEL 5
REMARK VINA RESULT:      -7.9      3.200      6.199
REMARK  Name = 
REMARK  3 active torsions:
REMARK  status: ('A' for Active; 'I' for Inactive)
REMARK    1  A    between atoms: C_1  and  N_2
REMARK    2  A    between atoms: C_6  and  C_7
REMARK    3  A    between atoms: C_6  and  C_13
REMARK                            x       y       z     vdW  Elec       q    Type
REMARK                         _______ _______ _______ _____ _____    ______ ____
ROOT
ATOM      1  C   UNL     1       7.922   7.506  18.145  0.00  0.00    +0.000 C 
ATOM      2  N   UNL     1       7.236   6.326  17.680  0.00  0.00    +0.000 N 
ATOM      3  C   UNL     1       7.536   5.058  18.053  0.00  0.00    +0.000 C 
ATOM      4  O   UNL     1       8.343   4.705  18.905  0.00  0.00    +0.000 OA
ATOM      5  N   UNL     1       6.811   4.190  17.294  0.00  0.00    +0.000 N 
ATOM      6  C   UNL     1       5.868   4.845  16.401  0.00  0.00    +0.000 C 
ATOM      7  C   UNL     1       6.262   6.324  16.712  0.00  0.00    +0.000 C 
ATOM      8  O   UNL     1       5.775   7.326  16.204  0.00  0.00    +0.000 OA
ATOM      9  H   UNL     1       6.903   3.191  17.400  0.00  0.00    +0.000 HD
ENDROOT
BRANCH   6  10
ATOM     10  C   UNL     1       4.459   4.457  16.891  0.00  0.00    +0.000 A 
ATOM     11  C   UNL     1       3.535   5.420  17.341  0.00  0.00    +0.000 A 
ATOM     12  C   UNL     1       2.357   5.041  17.994  0.00  0.00    +0.000 A 
ATOM     13  C   UNL     1       2.075   3.694  18.202  0.00  0.00    +0.000 A 
ATOM     14  C   UNL     1       2.942   2.724  17.710  0.00  0.00    +0.000 A 
ATOM     15  C   UNL     1       4.116   3.100  17.054  0.00  0.00    +0.000 A 
ENDBRANCH   6  10
BRANCH   6  16
ATOM     16  C   UNL     1       6.151   4.503  14.927  0.00  0.00    +0.000 A 
ATOM     17  C   UNL     1       5.254   3.741  14.150  0.00  0.00    +0.000 A 
ATOM     18  C   UNL     1       5.488   3.511  12.795  0.00  0.00    +0.000 A 
ATOM     19  C   UNL     1       6.634   4.011  12.189  0.00  0.00    +0.000 A 
ATOM     20  C   UNL     1       7.555   4.732  12.939  0.00  0.00    +0.000 A 
ATOM     21  C   UNL     1       7.319   4.971  14.298  0.00  0.00    +0.000 A 
ENDBRANCH   6  16
TORSDOF 2
ENDMDL
MODEL 6
REMARK VINA RESULT:      -7.8      1.321      1.469
REMARK  Name = 
REMARK  3 active torsions:
REMARK  status: ('A' for Active; 'I' for Inactive)
REMARK    1  A    between atoms: C_1  and  N_2
REMARK    2  A    between atoms: C_6  and  C_7
REMARK    3  A    between atoms: C_6  and  C_13
REMARK                            x       y       z     vdW  Elec       q    Type
REMARK                         _______ _______ _______ _____ _____    ______ ____
ROOT
ATOM      1  C   UNL     1       2.489   1.483  18.952  0.00  0.00    +0.000 C 
ATOM      2  N   UNL     1       3.296   2.660  18.750  0.00  0.00    +0.000 N 
ATOM      3  C   UNL     1       4.380   2.995  19.492  0.00  0.00    +0.000 C 
ATOM      4  O   UNL     1       4.916   2.324  20.367  0.00  0.00    +0.000 OA
ATOM      5  N   UNL     1       4.789   4.245  19.141  0.00  0.00    +0.000 N 
ATOM      6  C   UNL     1       4.041   4.811  18.029  0.00  0.00    +0.000 C 
ATOM      7  C   UNL     1       3.005   3.658  17.851  0.00  0.00    +0.000 C 
ATOM      8  O   UNL     1       2.094   3.621  17.033  0.00  0.00    +0.000 OA
ATOM      9  H   UNL     1       5.573   4.692  19.593  0.00  0.00    +0.000 HD
ENDROOT
BRANCH   6  10
ATOM     10  C   UNL     1       5.034   4.947  16.858  0.00  0.00    +0.000 A 
ATOM     11  C   UNL     1       4.742   4.451  15.572  0.00  0.00    +0.000 A 
ATOM     12  C   UNL     1       5.732   4.373  14.586  0.00  0.00    +0.000 A 
ATOM     13  C   UNL     1       7.028   4.796  14.862  0.00  0.00    +0.000 A 
ATOM     14  C   UNL     1       7.325   5.347  16.104  0.00  0.00    +0.000 A 
ATOM     15  C   UNL     1       6.338   5.431  17.089  0.00  0.00    +0.000 A 
ENDBRANCH   6  10
BRANCH   6  16
ATOM     16  C   UNL     1       3.337   6.122  18.428  0.00  0.00    +0.000 A 
ATOM     17  C   UNL     1       3.288   7.237  17.566  0.00  0.00    +0.000 A 
ATOM     18  C   UNL     1       2.577   8.385  17.911  0.00  0.00    +0.000 A 
ATOM     19  C   UNL     1       1.920   8.459  19.133  0.00  0.00    +0.000 A 
ATOM     20  C   UNL     1       1.983   7.390  20.018  0.00  0.00    +0.000 A 
ATOM     21  C   UNL     1       2.691   6.233  19.672  0.00  0.00    +0.000 A 
ENDBRANCH   6  16
TORSDOF 2
ENDMDL
MODEL 7
REMARK VINA RESULT:      -7.8      0.640      1.601
REMARK  Name = 
REMARK  3 active torsions:
REMARK  status: ('A' for Active; 'I' for Inactive)
REMARK    1  A    between atoms: C_1  and  N_2
REMARK    2  A    between atoms: C_6  and  C_7
REMARK    3  A    between atoms: C_6  and  C_13
REMARK                            x       y       z     vdW  Elec       q    Type
REMARK                         _______ _______ _______ _____ _____    ______ ____
ROOT
ATOM      1  C   UNL     1       0.853   2.149  19.078  0.00  0.00    +0.000 C 
ATOM      2  N   UNL     1       1.836   3.202  19.088  0.00  0.00    +0.000 N 
ATOM      3  C   UNL     1       2.755   3.397  20.066  0.00  0.00    +0.000 C 
ATOM      4  O   UNL     1       2.979   2.673  21.029  0.00  0.00    +0.000 OA
ATOM      5  N   UNL     1       3.399   4.575  19.841  0.00  0.00    +0.000 N 
ATOM      6  C   UNL     1       3.012   5.221  18.596  0.00  0.00    +0.000 C 
ATOM      7  C   UNL     1       1.899   4.217  18.164  0.00  0.00    +0.000 C 
ATOM      8  O   UNL     1       1.205   4.292  17.157  0.00  0.00    +0.000 OA
ATOM      9  H   UNL     1       4.112   4.917  20.468  0.00  0.00    +0.000 HD
ENDROOT
BRANCH   6  10
ATOM     10  C   UNL     1       4.258   5.203  17.688  0.00  0.00    +0.000 A 
ATOM     11  C   UNL     1       5.246   6.205  17.757  0.00  0.00    +0.000 A 
ATOM     12  C   UNL     1       6.243   6.304  16.780  0.00  0.00    +0.000 A 
ATOM     13  C   UNL     1       6.278   5.401  15.722  0.00  0.00    +0.000 A 
ATOM     14  C   UNL     1       5.350   4.366  15.667  0.00  0.00    +0.000 A 
ATOM     15  C   UNL     1       4.357   4.262  16.643  0.00  0.00    +0.000 A 
ENDBRANCH   6  10
BRANCH   6  16
ATOM     16  C   UNL     1       2.420   6.621  18.844  0.00  0.00    +0.000 A 
ATOM     17  C   UNL     1       2.018   7.047  20.126  0.00  0.00    +0.000 A 
ATOM     18  C   UNL     1       1.560   8.346  20.345  0.00  0.00    +0.000 A 
ATOM     19  C   UNL     1       1.467   9.241  19.287  0.00  0.00    +0.000 A 
ATOM     20  C   UNL     1       1.820   8.836  18.005  0.00  0.00    +0.000 A 
ATOM     21  C   UNL     1       2.287   7.535  17.784  0.00  0.00    +0.000 A 
ENDBRANCH   6  16
TORSDOF 2
ENDMDL
MODEL 8
REMARK VINA RESULT:      -7.8      1.857      4.115
REMARK  Name = 
REMARK  3 active torsions:
REMARK  status: ('A' for Active; 'I' for Inactive)
REMARK    1  A    between atoms: C_1  and  N_2
REMARK    2  A    between atoms: C_6  and  C_7
REMARK    3  A    between atoms: C_6  and  C_13
REMARK                            x       y       z     vdW  Elec       q    Type
REMARK                         _______ _______ _______ _____ _____    ______ ____
ROOT
ATOM      1  C   UNL     1       7.230   4.773  17.414  0.00  0.00    +0.000 C 
ATOM      2  N   UNL     1       5.799   4.778  17.579  0.00  0.00    +0.000 N 
ATOM      3  C   UNL     1       4.905   4.466  16.609  0.00  0.00    +0.000 C 
ATOM      4  O   UNL     1       5.147   4.032  15.488  0.00  0.00    +0.000 OA
ATOM      5  N   UNL     1       3.650   4.746  17.056  0.00  0.00    +0.000 N 
ATOM      6  C   UNL     1       3.609   5.183  18.442  0.00  0.00    +0.000 C 
ATOM      7  C   UNL     1       5.147   5.212  18.709  0.00  0.00    +0.000 C 
ATOM      8  O   UNL     1       5.696   5.537  19.754  0.00  0.00    +0.000 OA
ATOM      9  H   UNL     1       2.837   4.603  16.474  0.00  0.00    +0.000 HD
ENDROOT
BRANCH   6  10
ATOM     10  C   UNL     1       2.859   4.088  19.226  0.00  0.00    +0.000 A 
ATOM     11  C   UNL     1       1.522   3.749  18.940  0.00  0.00    +0.000 A 
ATOM     12  C   UNL     1       0.786   2.926  19.799  0.00  0.00    +0.000 A 
ATOM     13  C   UNL     1       1.373   2.418  20.954  0.00  0.00    +0.000 A 
ATOM     14  C   UNL     1       2.710   2.687  21.225  0.00  0.00    +0.000 A 
ATOM     15  C   UNL     1       3.449   3.505  20.366  0.00  0.00    +0.000 A 
ENDBRANCH   6  10
BRANCH   6  16
ATOM     16  C   UNL     1       3.006   6.594  18.575  0.00  0.00    +0.000 A 
ATOM     17  C   UNL     1       3.077   7.539  17.532  0.00  0.00    +0.000 A 
ATOM     18  C   UNL     1       2.454   8.782  17.640  0.00  0.00    +0.000 A 
ATOM     19  C   UNL     1       1.768   9.121  18.799  0.00  0.00    +0.000 A 
ATOM     20  C   UNL     1       1.714   8.223  19.859  0.00  0.00    +0.000 A 
ATOM     21  C   UNL     1       2.333   6.972  19.751  0.00  0.00    +0.000 A 
ENDBRANCH   6  16
TORSDOF 2
ENDMDL
MODEL 9
REMARK VINA RESULT:      -7.8      2.201      4.144
REMARK  Name = 
REMARK  3 active torsions:
REMARK  status: ('A' for Active; 'I' for Inactive)
REMARK    1  A    between atoms: C_1  and  N_2
REMARK    2  A    between atoms: C_6  and  C_7
REMARK    3  A    between atoms: C_6  and  C_13
REMARK                            x       y       z     vdW  Elec       q    Type
REMARK                         _______ _______ _______ _____ _____    ______ ____
ROOT
ATOM      1  C   UNL     1       7.583   5.885  17.703  0.00  0.00    +0.000 C 
ATOM      2  N   UNL     1       6.159   5.747  17.530  0.00  0.00    +0.000 N 
ATOM      3  C   UNL     1       5.510   5.836  16.343  0.00  0.00    +0.000 C 
ATOM      4  O   UNL     1       6.011   5.936  15.229  0.00  0.00    +0.000 OA
ATOM      5  N   UNL     1       4.168   5.833  16.571  0.00  0.00    +0.000 N 
ATOM      6  C   UNL     1       3.815   5.632  17.967  0.00  0.00    +0.000 C 
ATOM      7  C   UNL     1       5.259   5.622  18.560  0.00  0.00    +0.000 C 
ATOM      8  O   UNL     1       5.557   5.496  19.741  0.00  0.00    +0.000 OA
ATOM      9  H   UNL     1       3.503   5.912  15.815  0.00  0.00    +0.000 HD
ENDROOT
BRANCH   6  10
ATOM     10  C   UNL     1       3.096   4.271  18.046  0.00  0.00    +0.000 A 
ATOM     11  C   UNL     1       1.693   4.170  18.114  0.00  0.00    +0.000 A 
ATOM     12  C   UNL     1       1.070   2.955  18.416  0.00  0.00    +0.000 A 
ATOM     13  C   UNL     1       1.834   1.815  18.647  0.00  0.00    +0.000 A 
ATOM     14  C   UNL     1       3.218   1.876  18.523  0.00  0.00    +0.000 A 
ATOM     15  C   UNL     1       3.843   3.087  18.217  0.00  0.00    +0.000 A 
ENDBRANCH   6  10
BRANCH   6  16
ATOM     16  C   UNL     1       3.004   6.818  18.524  0.00  0.00    +0.000 A 
ATOM     17  C   UNL     1       2.753   7.977  17.761  0.00  0.00    +0.000 A 
ATOM     18  C   UNL     1       1.949   9.004  18.252  0.00  0.00    +0.000 A 
ATOM     19  C   UNL     1       1.399   8.913  19.524  0.00  0.00    +0.000 A 
ATOM     20  C   UNL     1       1.660   7.799  20.313  0.00  0.00    +0.000 A 
ATOM     21  C   UNL     1       2.462   6.763  19.820  0.00  0.00    +0.000 A 
ENDBRANCH   6  16
TORSDOF 2
ENDMDL
