MODEL 1
REMARK VINA RESULT:      -7.9      0.000      0.000
REMARK  Name = 
REMARK  7 active torsions:
REMARK  status: ('A' for Active; 'I' for Inactive)
REMARK    1  A    between atoms: C_1  and  C_2
REMARK    2  A    between atoms: C_2  and  C_3
REMARK    3  A    between atoms: C_3  and  C_4
REMARK    4  A    between atoms: N_6  and  C_7
REMARK    5  A    between atoms: N_16  and  N_17
REMARK    6  A    between atoms: C_18  and  C_20
REMARK    7  A    between atoms: C_23  and  N_24
REMARK                            x       y       z     vdW  Elec       q    Type
REMARK                         _______ _______ _______ _____ _____    ______ ____
ROOT
ATOM      1  C   UNL     1       0.703   3.951  20.270  0.00  0.00    +0.000 C 
ATOM      2  C   UNL     1       2.138   4.051  20.733  0.00  0.00    +0.000 C 
ATOM      3  N   UNL     1       2.701   5.162  21.121  0.00  0.00    +0.000 NA
ENDROOT
BRANCH   3   4
ATOM      4  N   UNL     1       1.969   6.319  21.081  0.00  0.00    +0.000 N 
ATOM      5  C   UNL     1       2.072   7.188  19.998  0.00  0.00    +0.000 C 
ATOM      6  O   UNL     1       2.782   7.011  19.014  0.00  0.00    +0.000 OA
ATOM      7  H   UNL     1       1.222   6.454  21.750  0.00  0.00    +0.000 HD
BRANCH   5   8
ATOM      8  C   UNL     1       1.204   8.403  20.076  0.00  0.00    +0.000 A 
ATOM      9  C   UNL     1       1.161   9.347  19.043  0.00  0.00    +0.000 A 
ATOM     10  C   UNL     1       0.332  10.471  19.156  0.00  0.00    +0.000 A 
ATOM     11  C   UNL     1      -0.508  10.638  20.261  0.00  0.00    +0.000 A 
ATOM     12  C   UNL     1      -0.429   9.718  21.306  0.00  0.00    +0.000 A 
ATOM     13  C   UNL     1       0.397   8.591  21.206  0.00  0.00    +0.000 A 
BRANCH  11  14
ATOM     14  N   UNL     1      -1.233  11.825  20.415  0.00  0.00    +0.000 N 
ATOM     15  H   UNL     1      -1.952  11.782  21.131  0.00  0.00    +0.000 HD
ATOM     16  H   UNL     1      -0.652  12.653  20.507  0.00  0.00    +0.000 HD
ENDBRANCH  11  14
ENDBRANCH   5   8
ENDBRANCH   3   4
BRANCH   2  17
ATOM     17  C   UNL     1       3.001   2.807  20.690  0.00  0.00    +0.000 C 
BRANCH  17  18
ATOM     18  C   UNL     1       4.097   2.808  19.648  0.00  0.00    +0.000 C 
ATOM     19  O   UNL     1       4.810   1.823  19.479  0.00  0.00    +0.000 OA
ATOM     20  N   UNL     1       4.226   4.004  18.962  0.00  0.00    +0.000 N 
ATOM     21  H   UNL     1       3.917   4.837  19.453  0.00  0.00    +0.000 HD
BRANCH  20  22
ATOM     22  C   UNL     1       5.142   4.188  17.904  0.00  0.00    +0.000 A 
ATOM     23  C   UNL     1       6.432   4.654  18.226  0.00  0.00    +0.000 A 
ATOM     24  C   UNL     1       7.390   4.856  17.227  0.00  0.00    +0.000 A 
ATOM     25  C   UNL     1       7.011   4.654  15.919  0.00  0.00    +0.000 A 
ATOM     26  C   UNL     1       5.739   4.236  15.594  0.00  0.00    +0.000 A 
ATOM     27  C   UNL     1       4.791   3.968  16.564  0.00  0.00    +0.000 A 
ATOM     28  O   UNL     1       5.562   4.144  14.247  0.00  0.00    +0.000 OA
ATOM     29  C   UNL     1       6.853   4.585  13.768  0.00  0.00    +0.000 C 
ATOM     30  O   UNL     1       7.796   4.846  14.827  0.00  0.00    +0.000 OA
ENDBRANCH  20  22
ENDBRANCH  17  18
ENDBRANCH   2  17
TORSDOF 6
ENDMDL
MODEL 2
REMARK VINA RESULT:      -7.2      1.381      1.814
REMARK  Name = 
REMARK  7 active torsions:
REMARK  status: ('A' for Active; 'I' for Inactive)
REMARK    1  A    between atoms: C_1  and  C_2
REMARK    2  A    between atoms: C_2  and  C_3
REMARK    3  A    between atoms: C_3  and  C_4
REMARK    4  A    between atoms: N_6  and  C_7
REMARK    5  A    between atoms: N_16  and  N_17
REMARK    6  A    between atoms: C_18  and  C_20
REMARK    7  A    between atoms: C_23  and  N_24
REMARK                            x       y       z     vdW  Elec       q    Type
REMARK                         _______ _______ _______ _____ _____    ______ ____
ROOT
ATOM      1  C   UNL     1       1.000   4.020  20.290  0.00  0.00    +0.000 C 
ATOM      2  C   UNL     1       2.439   4.318  19.933  0.00  0.00    +0.000 C 
ATOM      3  N   UNL     1       3.018   5.466  20.148  0.00  0.00    +0.000 NA
ENDROOT
BRANCH   3   4
ATOM      4  N   UNL     1       2.282   6.481  20.700  0.00  0.00    +0.000 N 
ATOM      5  C   UNL     1       1.926   7.594  19.943  0.00  0.00    +0.000 C 
ATOM      6  O   UNL     1       2.210   7.766  18.762  0.00  0.00    +0.000 OA
ATOM      7  H   UNL     1       1.845   6.341  21.602  0.00  0.00    +0.000 HD
BRANCH   5   8
ATOM      8  C   UNL     1       1.109   8.616  20.665  0.00  0.00    +0.000 A 
ATOM      9  C   UNL     1       0.438   8.318  21.857  0.00  0.00    +0.000 A 
ATOM     10  C   UNL     1      -0.316   9.307  22.501  0.00  0.00    +0.000 A 
ATOM     11  C   UNL     1      -0.361  10.615  22.009  0.00  0.00    +0.000 A 
ATOM     12  C   UNL     1       0.273  10.895  20.800  0.00  0.00    +0.000 A 
ATOM     13  C   UNL     1       1.029   9.915  20.143  0.00  0.00    +0.000 A 
BRANCH  11  14
ATOM     14  N   UNL     1      -1.218  11.554  22.595  0.00  0.00    +0.000 N 
ATOM     15  H   UNL     1      -1.408  11.385  23.578  0.00  0.00    +0.000 HD
ATOM     16  H   UNL     1      -0.953  12.519  22.417  0.00  0.00    +0.000 HD
ENDBRANCH  11  14
ENDBRANCH   5   8
ENDBRANCH   3   4
BRANCH   2  17
ATOM     17  C   UNL     1       3.245   3.247  19.228  0.00  0.00    +0.000 C 
BRANCH  17  18
ATOM     18  C   UNL     1       3.763   3.617  17.857  0.00  0.00    +0.000 C 
ATOM     19  O   UNL     1       2.996   3.755  16.907  0.00  0.00    +0.000 OA
ATOM     20  N   UNL     1       5.140   3.741  17.785  0.00  0.00    +0.000 N 
ATOM     21  H   UNL     1       5.673   3.203  18.460  0.00  0.00    +0.000 HD
BRANCH  20  22
ATOM     22  C   UNL     1       5.816   4.147  16.614  0.00  0.00    +0.000 A 
ATOM     23  C   UNL     1       6.582   5.328  16.674  0.00  0.00    +0.000 A 
ATOM     24  C   UNL     1       7.280   5.786  15.553  0.00  0.00    +0.000 A 
ATOM     25  C   UNL     1       7.137   5.089  14.374  0.00  0.00    +0.000 A 
ATOM     26  C   UNL     1       6.358   3.954  14.298  0.00  0.00    +0.000 A 
ATOM     27  C   UNL     1       5.708   3.443  15.405  0.00  0.00    +0.000 A 
ATOM     28  O   UNL     1       6.317   3.449  13.034  0.00  0.00    +0.000 OA
ATOM     29  C   UNL     1       7.127   4.413  12.324  0.00  0.00    +0.000 C 
ATOM     30  O   UNL     1       7.704   5.418  13.184  0.00  0.00    +0.000 OA
ENDBRANCH  20  22
ENDBRANCH  17  18
ENDBRANCH   2  17
TORSDOF 6
ENDMDL
MODEL 3
REMARK VINA RESULT:      -7.1      1.094      1.186
REMARK  Name = 
REMARK  7 active torsions:
REMARK  status: ('A' for Active; 'I' for Inactive)
REMARK    1  A    between atoms: C_1  and  C_2
REMARK    2  A    between atoms: C_2  and  C_3
REMARK    3  A    between atoms: C_3  and  C_4
REMARK    4  A    between atoms: N_6  and  C_7
REMARK    5  A    between atoms: N_16  and  N_17
REMARK    6  A    between atoms: C_18  and  C_20
REMARK    7  A    between atoms: C_23  and  N_24
REMARK                            x       y       z     vdW  Elec       q    Type
REMARK                         _______ _______ _______ _____ _____    ______ ____
ROOT
ATOM      1  C   UNL     1       2.064   3.716  21.911  0.00  0.00    +0.000 C 
ATOM      2  C   UNL     1       2.670   3.871  20.536  0.00  0.00    +0.000 C 
ATOM      3  N   UNL     1       2.670   4.989  19.864  0.00  0.00    +0.000 NA
ENDROOT
BRANCH   3   4
ATOM      4  N   UNL     1       2.062   6.086  20.412  0.00  0.00    +0.000 N 
ATOM      5  C   UNL     1       2.079   7.313  19.753  0.00  0.00    +0.000 C 
ATOM      6  O   UNL     1       2.604   7.523  18.663  0.00  0.00    +0.000 OA
ATOM      7  H   UNL     1       1.447   5.965  21.206  0.00  0.00    +0.000 HD
BRANCH   5   8
ATOM      8  C   UNL     1       1.362   8.420  20.454  0.00  0.00    +0.000 A 
ATOM      9  C   UNL     1       0.882   9.541  19.767  0.00  0.00    +0.000 A 
ATOM     10  C   UNL     1       0.213  10.556  20.464  0.00  0.00    +0.000 A 
ATOM     11  C   UNL     1      -0.043  10.441  21.834  0.00  0.00    +0.000 A 
ATOM     12  C   UNL     1       0.475   9.345  22.521  0.00  0.00    +0.000 A 
ATOM     13  C   UNL     1       1.148   8.323  21.836  0.00  0.00    +0.000 A 
BRANCH  11  14
ATOM     14  N   UNL     1      -0.599  11.518  22.534  0.00  0.00    +0.000 N 
ATOM     15  H   UNL     1       0.063  12.020  23.117  0.00  0.00    +0.000 HD
ATOM     16  H   UNL     1      -1.150  12.145  21.954  0.00  0.00    +0.000 HD
ENDBRANCH  11  14
ENDBRANCH   5   8
ENDBRANCH   3   4
BRANCH   2  17
ATOM     17  C   UNL     1       3.258   2.649  19.863  0.00  0.00    +0.000 C 
BRANCH  17  18
ATOM     18  C   UNL     1       3.928   2.896  18.530  0.00  0.00    +0.000 C 
ATOM     19  O   UNL     1       3.544   2.322  17.514  0.00  0.00    +0.000 OA
ATOM     20  N   UNL     1       4.997   3.773  18.586  0.00  0.00    +0.000 N 
ATOM     21  H   UNL     1       5.481   3.832  19.476  0.00  0.00    +0.000 HD
BRANCH  20  22
ATOM     22  C   UNL     1       5.712   4.189  17.442  0.00  0.00    +0.000 A 
ATOM     23  C   UNL     1       6.607   5.268  17.583  0.00  0.00    +0.000 A 
ATOM     24  C   UNL     1       7.349   5.729  16.492  0.00  0.00    +0.000 A 
ATOM     25  C   UNL     1       7.125   5.146  15.265  0.00  0.00    +0.000 A 
ATOM     26  C   UNL     1       6.223   4.116  15.112  0.00  0.00    +0.000 A 
ATOM     27  C   UNL     1       5.522   3.597  16.184  0.00  0.00    +0.000 A 
ATOM     28  O   UNL     1       6.122   3.718  13.814  0.00  0.00    +0.000 OA
ATOM     29  C   UNL     1       7.034   4.636  13.170  0.00  0.00    +0.000 C 
ATOM     30  O   UNL     1       7.723   5.499  14.098  0.00  0.00    +0.000 OA
ENDBRANCH  20  22
ENDBRANCH  17  18
ENDBRANCH   2  17
TORSDOF 6
ENDMDL
MODEL 4
REMARK VINA RESULT:      -7.1      3.289      5.580
REMARK  Name = 
REMARK  7 active torsions:
REMARK  status: ('A' for Active; 'I' for Inactive)
REMARK    1  A    between atoms: C_1  and  C_2
REMARK    2  A    between atoms: C_2  and  C_3
REMARK    3  A    between atoms: C_3  and  C_4
REMARK    4  A    between atoms: N_6  and  C_7
REMARK    5  A    between atoms: N_16  and  N_17
REMARK    6  A    between atoms: C_18  and  C_20
REMARK    7  A    between atoms: C_23  and  N_24
REMARK                            x       y       z     vdW  Elec       q    Type
REMARK                         _______ _______ _______ _____ _____    ______ ____
ROOT
ATOM      1  C   UNL     1      -0.770  10.714  18.533  0.00  0.00    +0.000 C 
ATOM      2  C   UNL     1       0.590  10.533  19.166  0.00  0.00    +0.000 C 
ATOM      3  N   UNL     1       0.921  11.024  20.328  0.00  0.00    +0.000 NA
ENDROOT
BRANCH   3   4
ATOM      4  N   UNL     1       0.002  11.776  21.011  0.00  0.00    +0.000 N 
ATOM      5  C   UNL     1      -0.368  11.439  22.310  0.00  0.00    +0.000 C 
ATOM      6  O   UNL     1       0.077  10.490  22.948  0.00  0.00    +0.000 OA
ATOM      7  H   UNL     1      -0.274  12.676  20.640  0.00  0.00    +0.000 HD
BRANCH   5   8
ATOM      8  C   UNL     1      -1.366  12.354  22.943  0.00  0.00    +0.000 A 
ATOM      9  C   UNL     1      -1.067  13.692  23.223  0.00  0.00    +0.000 A 
ATOM     10  C   UNL     1      -2.033  14.516  23.815  0.00  0.00    +0.000 A 
ATOM     11  C   UNL     1      -3.322  14.042  24.076  0.00  0.00    +0.000 A 
ATOM     12  C   UNL     1      -3.601  12.698  23.835  0.00  0.00    +0.000 A 
ATOM     13  C   UNL     1      -2.644  11.862  23.245  0.00  0.00    +0.000 A 
BRANCH  11  14
ATOM     14  N   UNL     1      -4.231  14.840  24.780  0.00  0.00    +0.000 N 
ATOM     15  H   UNL     1      -4.478  14.477  25.696  0.00  0.00    +0.000 HD
ATOM     16  H   UNL     1      -3.976  15.823  24.815  0.00  0.00    +0.000 HD
ENDBRANCH  11  14
ENDBRANCH   5   8
ENDBRANCH   3   4
BRANCH   2  17
ATOM     17  C   UNL     1       1.658   9.794  18.388  0.00  0.00    +0.000 C 
BRANCH  17  18
ATOM     18  C   UNL     1       1.975   8.399  18.878  0.00  0.00    +0.000 C 
ATOM     19  O   UNL     1       1.689   8.050  20.021  0.00  0.00    +0.000 OA
ATOM     20  N   UNL     1       2.628   7.607  17.950  0.00  0.00    +0.000 N 
ATOM     21  H   UNL     1       3.181   8.096  17.254  0.00  0.00    +0.000 HD
BRANCH  20  22
ATOM     22  C   UNL     1       2.951   6.253  18.185  0.00  0.00    +0.000 A 
ATOM     23  C   UNL     1       4.219   5.965  18.728  0.00  0.00    +0.000 A 
ATOM     24  C   UNL     1       4.603   4.647  18.990  0.00  0.00    +0.000 A 
ATOM     25  C   UNL     1       3.735   3.638  18.635  0.00  0.00    +0.000 A 
ATOM     26  C   UNL     1       2.508   3.911  18.069  0.00  0.00    +0.000 A 
ATOM     27  C   UNL     1       2.076   5.207  17.856  0.00  0.00    +0.000 A 
ATOM     28  O   UNL     1       1.830   2.773  17.754  0.00  0.00    +0.000 OA
ATOM     29  C   UNL     1       2.783   1.763  18.154  0.00  0.00    +0.000 C 
ATOM     30  O   UNL     1       3.965   2.307  18.776  0.00  0.00    +0.000 OA
ENDBRANCH  20  22
ENDBRANCH  17  18
ENDBRANCH   2  17
TORSDOF 6
ENDMDL
MODEL 5
REMARK VINA RESULT:      -7.0      5.797      7.864
REMARK  Name = 
REMARK  7 active torsions:
REMARK  status: ('A' for Active; 'I' for Inactive)
REMARK    1  A    between atoms: C_1  and  C_2
REMARK    2  A    between atoms: C_2  and  C_3
REMARK    3  A    between atoms: C_3  and  C_4
REMARK    4  A    between atoms: N_6  and  C_7
REMARK    5  A    between atoms: N_16  and  N_17
REMARK    6  A    between atoms: C_18  and  C_20
REMARK    7  A    between atoms: C_23  and  N_24
REMARK                            x       y       z     vdW  Elec       q    Type
REMARK                         _______ _______ _______ _____ _____    ______ ____
ROOT
ATOM      1  C   UNL     1       7.595   7.553  16.739  0.00  0.00    +0.000 C 
ATOM      2  C   UNL     1       7.948   7.285  18.183  0.00  0.00    +0.000 C 
ATOM      3  N   UNL     1       8.591   8.128  18.943  0.00  0.00    +0.000 NA
ENDROOT
BRANCH   3   4
ATOM      4  N   UNL     1       9.003   9.317  18.404  0.00  0.00    +0.000 N 
ATOM      5  C   UNL     1       9.334  10.393  19.223  0.00  0.00    +0.000 C 
ATOM      6  O   UNL     1       9.304  10.383  20.450  0.00  0.00    +0.000 OA
ATOM      7  H   UNL     1       9.238   9.359  17.421  0.00  0.00    +0.000 HD
BRANCH   5   8
ATOM      8  C   UNL     1       9.784  11.623  18.504  0.00  0.00    +0.000 A 
ATOM      9  C   UNL     1      10.998  11.669  17.807  0.00  0.00    +0.000 A 
ATOM     10  C   UNL     1      11.380  12.843  17.145  0.00  0.00    +0.000 A 
ATOM     11  C   UNL     1      10.539  13.958  17.112  0.00  0.00    +0.000 A 
ATOM     12  C   UNL     1       9.352  13.923  17.842  0.00  0.00    +0.000 A 
ATOM     13  C   UNL     1       8.958  12.756  18.511  0.00  0.00    +0.000 A 
BRANCH  11  14
ATOM     14  N   UNL     1      10.991  15.159  16.553  0.00  0.00    +0.000 N 
ATOM     15  H   UNL     1      11.439  15.053  15.648  0.00  0.00    +0.000 HD
ATOM     16  H   UNL     1      10.296  15.899  16.550  0.00  0.00    +0.000 HD
ENDBRANCH  11  14
ENDBRANCH   5   8
ENDBRANCH   3   4
BRANCH   2  17
ATOM     17  C   UNL     1       7.595   5.937  18.776  0.00  0.00    +0.000 C 
BRANCH  17  18
ATOM     18  C   UNL     1       6.127   5.574  18.745  0.00  0.00    +0.000 C 
ATOM     19  O   UNL     1       5.261   6.443  18.771  0.00  0.00    +0.000 OA
ATOM     20  N   UNL     1       5.881   4.212  18.723  0.00  0.00    +0.000 N 
ATOM     21  H   UNL     1       6.596   3.620  19.132  0.00  0.00    +0.000 HD
BRANCH  20  22
ATOM     22  C   UNL     1       4.582   3.667  18.623  0.00  0.00    +0.000 A 
ATOM     23  C   UNL     1       4.052   3.467  17.333  0.00  0.00    +0.000 A 
ATOM     24  C   UNL     1       2.773   2.929  17.160  0.00  0.00    +0.000 A 
ATOM     25  C   UNL     1       2.024   2.668  18.286  0.00  0.00    +0.000 A 
ATOM     26  C   UNL     1       2.523   2.897  19.550  0.00  0.00    +0.000 A 
ATOM     27  C   UNL     1       3.806   3.370  19.753  0.00  0.00    +0.000 A 
ATOM     28  O   UNL     1       1.605   2.617  20.517  0.00  0.00    +0.000 OA
ATOM     29  C   UNL     1       0.470   2.221  19.714  0.00  0.00    +0.000 C 
ATOM     30  O   UNL     1       0.754   2.189  18.301  0.00  0.00    +0.000 OA
ENDBRANCH  20  22
ENDBRANCH  17  18
ENDBRANCH   2  17
TORSDOF 6
ENDMDL
MODEL 6
REMARK VINA RESULT:      -6.9      3.197      5.738
REMARK  Name = 
REMARK  7 active torsions:
REMARK  status: ('A' for Active; 'I' for Inactive)
REMARK    1  A    between atoms: C_1  and  C_2
REMARK    2  A    between atoms: C_2  and  C_3
REMARK    3  A    between atoms: C_3  and  C_4
REMARK    4  A    between atoms: N_6  and  C_7
REMARK    5  A    between atoms: N_16  and  N_17
REMARK    6  A    between atoms: C_18  and  C_20
REMARK    7  A    between atoms: C_23  and  N_24
REMARK                            x       y       z     vdW  Elec       q    Type
REMARK                         _______ _______ _______ _____ _____    ______ ____
ROOT
ATOM      1  C   UNL     1      -0.492  10.950  18.387  0.00  0.00    +0.000 C 
ATOM      2  C   UNL     1       0.706  10.485  19.183  0.00  0.00    +0.000 C 
ATOM      3  N   UNL     1       0.898  10.773  20.440  0.00  0.00    +0.000 NA
ENDROOT
BRANCH   3   4
ATOM      4  N   UNL     1      -0.015  11.568  21.080  0.00  0.00    +0.000 N 
ATOM      5  C   UNL     1      -0.383  11.308  22.398  0.00  0.00    +0.000 C 
ATOM      6  O   UNL     1       0.059  10.396  23.089  0.00  0.00    +0.000 OA
ATOM      7  H   UNL     1      -0.288  12.446  20.659  0.00  0.00    +0.000 HD
BRANCH   5   8
ATOM      8  C   UNL     1      -1.375  12.263  22.979  0.00  0.00    +0.000 A 
ATOM      9  C   UNL     1      -1.035  13.588  23.281  0.00  0.00    +0.000 A 
ATOM     10  C   UNL     1      -1.997  14.450  23.823  0.00  0.00    +0.000 A 
ATOM     11  C   UNL     1      -3.317  14.031  24.012  0.00  0.00    +0.000 A 
ATOM     12  C   UNL     1      -3.639  12.700  23.750  0.00  0.00    +0.000 A 
ATOM     13  C   UNL     1      -2.686  11.825  23.210  0.00  0.00    +0.000 A 
BRANCH  11  14
ATOM     14  N   UNL     1      -4.229  14.865  24.668  0.00  0.00    +0.000 N 
ATOM     15  H   UNL     1      -4.124  15.850  24.447  0.00  0.00    +0.000 HD
ATOM     16  H   UNL     1      -5.195  14.558  24.594  0.00  0.00    +0.000 HD
ENDBRANCH  11  14
ENDBRANCH   5   8
ENDBRANCH   3   4
BRANCH   2  17
ATOM     17  C   UNL     1       1.783   9.692  18.473  0.00  0.00    +0.000 C 
BRANCH  17  18
ATOM     18  C   UNL     1       1.974   8.272  18.957  0.00  0.00    +0.000 C 
ATOM     19  O   UNL     1       1.688   7.953  20.109  0.00  0.00    +0.000 OA
ATOM     20  N   UNL     1       2.518   7.419  18.013  0.00  0.00    +0.000 N 
ATOM     21  H   UNL     1       3.096   7.851  17.299  0.00  0.00    +0.000 HD
BRANCH  20  22
ATOM     22  C   UNL     1       2.711   6.040  18.242  0.00  0.00    +0.000 A 
ATOM     23  C   UNL     1       1.676   5.160  17.867  0.00  0.00    +0.000 A 
ATOM     24  C   UNL     1       1.802   3.782  18.062  0.00  0.00    +0.000 A 
ATOM     25  C   UNL     1       2.934   3.320  18.696  0.00  0.00    +0.000 A 
ATOM     26  C   UNL     1       3.933   4.179  19.101  0.00  0.00    +0.000 A 
ATOM     27  C   UNL     1       3.864   5.539  18.864  0.00  0.00    +0.000 A 
ATOM     28  O   UNL     1       4.937   3.523  19.746  0.00  0.00    +0.000 OA
ATOM     29  C   UNL     1       4.437   2.167  19.730  0.00  0.00    +0.000 C 
ATOM     30  O   UNL     1       3.198   2.024  19.005  0.00  0.00    +0.000 OA
ENDBRANCH  20  22
ENDBRANCH  17  18
ENDBRANCH   2  17
TORSDOF 6
ENDMDL
MODEL 7
REMARK VINA RESULT:      -6.9      3.245      5.764
REMARK  Name = 
REMARK  7 active torsions:
REMARK  status: ('A' for Active; 'I' for Inactive)
REMARK    1  A    between atoms: C_1  and  C_2
REMARK    2  A    between atoms: C_2  and  C_3
REMARK    3  A    between atoms: C_3  and  C_4
REMARK    4  A    between atoms: N_6  and  C_7
REMARK    5  A    between atoms: N_16  and  N_17
REMARK    6  A    between atoms: C_18  and  C_20
REMARK    7  A    between atoms: C_23  and  N_24
REMARK                            x       y       z     vdW  Elec       q    Type
REMARK                         _______ _______ _______ _____ _____    ______ ____
ROOT
ATOM      1  C   UNL     1      -1.377  10.239  18.921  0.00  0.00    +0.000 C 
ATOM      2  C   UNL     1       0.099  10.408  19.198  0.00  0.00    +0.000 C 
ATOM      3  N   UNL     1       0.580  11.184  20.129  0.00  0.00    +0.000 NA
ENDROOT
BRANCH   3   4
ATOM      4  N   UNL     1      -0.291  11.919  20.888  0.00  0.00    +0.000 N 
ATOM      5  C   UNL     1      -0.499  11.611  22.230  0.00  0.00    +0.000 C 
ATOM      6  O   UNL     1       0.058  10.705  22.842  0.00  0.00    +0.000 OA
ATOM      7  H   UNL     1      -0.648  12.793  20.524  0.00  0.00    +0.000 HD
BRANCH   5   8
ATOM      8  C   UNL     1      -1.462  12.504  22.944  0.00  0.00    +0.000 A 
ATOM      9  C   UNL     1      -2.740  12.067  23.311  0.00  0.00    +0.000 A 
ATOM     10  C   UNL     1      -3.611  12.938  23.981  0.00  0.00    +0.000 A 
ATOM     11  C   UNL     1      -3.203  14.223  24.349  0.00  0.00    +0.000 A 
ATOM     12  C   UNL     1      -1.946  14.667  23.943  0.00  0.00    +0.000 A 
ATOM     13  C   UNL     1      -1.065  13.808  23.270  0.00  0.00    +0.000 A 
BRANCH  11  14
ATOM     14  N   UNL     1      -4.125  15.117  24.904  0.00  0.00    +0.000 N 
ATOM     15  H   UNL     1      -5.096  14.875  24.729  0.00  0.00    +0.000 HD
ATOM     16  H   UNL     1      -3.955  15.329  25.883  0.00  0.00    +0.000 HD
ENDBRANCH  11  14
ENDBRANCH   5   8
ENDBRANCH   3   4
BRANCH   2  17
ATOM     17  C   UNL     1       1.089   9.687  18.307  0.00  0.00    +0.000 C 
BRANCH  17  18
ATOM     18  C   UNL     1       1.804   8.514  18.940  0.00  0.00    +0.000 C 
ATOM     19  O   UNL     1       1.756   8.325  20.153  0.00  0.00    +0.000 OA
ATOM     20  N   UNL     1       2.518   7.735  18.046  0.00  0.00    +0.000 N 
ATOM     21  H   UNL     1       2.841   8.202  17.205  0.00  0.00    +0.000 HD
BRANCH  20  22
ATOM     22  C   UNL     1       3.197   6.557  18.425  0.00  0.00    +0.000 A 
ATOM     23  C   UNL     1       4.503   6.366  17.933  0.00  0.00    +0.000 A 
ATOM     24  C   UNL     1       5.235   5.223  18.270  0.00  0.00    +0.000 A 
ATOM     25  C   UNL     1       4.614   4.261  19.036  0.00  0.00    +0.000 A 
ATOM     26  C   UNL     1       3.322   4.425  19.488  0.00  0.00    +0.000 A 
ATOM     27  C   UNL     1       2.598   5.571  19.224  0.00  0.00    +0.000 A 
ATOM     28  O   UNL     1       2.887   3.339  20.186  0.00  0.00    +0.000 OA
ATOM     29  C   UNL     1       4.037   2.468  20.088  0.00  0.00    +0.000 C 
ATOM     30  O   UNL     1       5.158   3.077  19.417  0.00  0.00    +0.000 OA
ENDBRANCH  20  22
ENDBRANCH  17  18
ENDBRANCH   2  17
TORSDOF 6
ENDMDL
MODEL 8
REMARK VINA RESULT:      -6.8      1.903      2.127
REMARK  Name = 
REMARK  7 active torsions:
REMARK  status: ('A' for Active; 'I' for Inactive)
REMARK    1  A    between atoms: C_1  and  C_2
REMARK    2  A    between atoms: C_2  and  C_3
REMARK    3  A    between atoms: C_3  and  C_4
REMARK    4  A    between atoms: N_6  and  C_7
REMARK    5  A    between atoms: N_16  and  N_17
REMARK    6  A    between atoms: C_18  and  C_20
REMARK    7  A    between atoms: C_23  and  N_24
REMARK                            x       y       z     vdW  Elec       q    Type
REMARK                         _______ _______ _______ _____ _____    ______ ____
ROOT
ATOM      1  C   UNL     1       1.355   5.570  20.807  0.00  0.00    +0.000 C 
ATOM      2  C   UNL     1       2.558   5.598  19.892  0.00  0.00    +0.000 C 
ATOM      3  N   UNL     1       2.894   6.627  19.165  0.00  0.00    +0.000 NA
ENDROOT
BRANCH   3   4
ATOM      4  N   UNL     1       2.102   7.744  19.201  0.00  0.00    +0.000 N 
ATOM      5  C   UNL     1       2.082   8.635  18.131  0.00  0.00    +0.000 C 
ATOM      6  O   UNL     1       2.729   8.512  17.095  0.00  0.00    +0.000 OA
ATOM      7  H   UNL     1       1.399   7.829  19.923  0.00  0.00    +0.000 HD
BRANCH   5   8
ATOM      8  C   UNL     1       1.161   9.801  18.294  0.00  0.00    +0.000 A 
ATOM      9  C   UNL     1      -0.223   9.678  18.121  0.00  0.00    +0.000 A 
ATOM     10  C   UNL     1      -1.050  10.797  18.286  0.00  0.00    +0.000 A 
ATOM     11  C   UNL     1      -0.525  12.030  18.684  0.00  0.00    +0.000 A 
ATOM     12  C   UNL     1       0.857  12.157  18.812  0.00  0.00    +0.000 A 
ATOM     13  C   UNL     1       1.697  11.047  18.649  0.00  0.00    +0.000 A 
BRANCH  11  14
ATOM     14  N   UNL     1      -1.347  13.161  18.721  0.00  0.00    +0.000 N 
ATOM     15  H   UNL     1      -0.861  14.020  18.964  0.00  0.00    +0.000 HD
ATOM     16  H   UNL     1      -1.931  13.273  17.897  0.00  0.00    +0.000 HD
ENDBRANCH  11  14
ENDBRANCH   5   8
ENDBRANCH   3   4
BRANCH   2  17
ATOM     17  C   UNL     1       3.392   4.342  19.756  0.00  0.00    +0.000 C 
BRANCH  17  18
ATOM     18  C   UNL     1       4.554   4.431  18.793  0.00  0.00    +0.000 C 
ATOM     19  O   UNL     1       5.706   4.234  19.173  0.00  0.00    +0.000 OA
ATOM     20  N   UNL     1       4.196   4.781  17.503  0.00  0.00    +0.000 N 
ATOM     21  H   UNL     1       3.345   5.324  17.406  0.00  0.00    +0.000 HD
BRANCH  20  22
ATOM     22  C   UNL     1       5.122   4.850  16.439  0.00  0.00    +0.000 A 
ATOM     23  C   UNL     1       6.116   5.847  16.499  0.00  0.00    +0.000 A 
ATOM     24  C   UNL     1       7.067   5.971  15.482  0.00  0.00    +0.000 A 
ATOM     25  C   UNL     1       6.959   5.137  14.391  0.00  0.00    +0.000 A 
ATOM     26  C   UNL     1       5.966   4.185  14.309  0.00  0.00    +0.000 A 
ATOM     27  C   UNL     1       5.050   3.998  15.327  0.00  0.00    +0.000 A 
ATOM     28  O   UNL     1       6.012   3.503  13.131  0.00  0.00    +0.000 OA
ATOM     29  C   UNL     1       7.120   4.158  12.474  0.00  0.00    +0.000 C 
ATOM     30  O   UNL     1       7.766   5.150  13.299  0.00  0.00    +0.000 OA
ENDBRANCH  20  22
ENDBRANCH  17  18
ENDBRANCH   2  17
TORSDOF 6
ENDMDL
MODEL 9
REMARK VINA RESULT:      -6.8      3.817      8.816
REMARK  Name = 
REMARK  7 active torsions:
REMARK  status: ('A' for Active; 'I' for Inactive)
REMARK    1  A    between atoms: C_1  and  C_2
REMARK    2  A    between atoms: C_2  and  C_3
REMARK    3  A    between atoms: C_3  and  C_4
REMARK    4  A    between atoms: N_6  and  C_7
REMARK    5  A    between atoms: N_16  and  N_17
REMARK    6  A    between atoms: C_18  and  C_20
REMARK    7  A    between atoms: C_23  and  N_24
REMARK                            x       y       z     vdW  Elec       q    Type
REMARK                         _______ _______ _______ _____ _____    ______ ____
ROOT
ATOM      1  C   UNL     1      -0.333   8.453  22.015  0.00  0.00    +0.000 C 
ATOM      2  C   UNL     1       0.327   9.458  21.100  0.00  0.00    +0.000 C 
ATOM      3  N   UNL     1       1.344   9.182  20.331  0.00  0.00    +0.000 NA
ENDROOT
BRANCH   3   4
ATOM      4  N   UNL     1       1.873   7.920  20.369  0.00  0.00    +0.000 N 
ATOM      5  C   UNL     1       2.404   7.337  19.221  0.00  0.00    +0.000 C 
ATOM      6  O   UNL     1       2.460   7.871  18.117  0.00  0.00    +0.000 OA
ATOM      7  H   UNL     1       2.042   7.481  21.264  0.00  0.00    +0.000 HD
BRANCH   5   8
ATOM      8  C   UNL     1       2.964   5.964  19.407  0.00  0.00    +0.000 A 
ATOM      9  C   UNL     1       2.299   4.992  20.165  0.00  0.00    +0.000 A 
ATOM     10  C   UNL     1       2.860   3.716  20.313  0.00  0.00    +0.000 A 
ATOM     11  C   UNL     1       4.047   3.371  19.662  0.00  0.00    +0.000 A 
ATOM     12  C   UNL     1       4.726   4.354  18.944  0.00  0.00    +0.000 A 
ATOM     13  C   UNL     1       4.179   5.635  18.790  0.00  0.00    +0.000 A 
BRANCH  11  14
ATOM     14  N   UNL     1       4.654   2.137  19.921  0.00  0.00    +0.000 N 
ATOM     15  H   UNL     1       5.625   2.082  19.629  0.00  0.00    +0.000 HD
ATOM     16  H   UNL     1       4.523   1.806  20.873  0.00  0.00    +0.000 HD
ENDBRANCH  11  14
ENDBRANCH   5   8
ENDBRANCH   3   4
BRANCH   2  17
ATOM     17  C   UNL     1      -0.172  10.887  21.115  0.00  0.00    +0.000 C 
BRANCH  17  18
ATOM     18  C   UNL     1      -1.011  11.298  19.925  0.00  0.00    +0.000 C 
ATOM     19  O   UNL     1      -1.244  12.482  19.695  0.00  0.00    +0.000 OA
ATOM     20  N   UNL     1      -1.497  10.237  19.181  0.00  0.00    +0.000 N 
ATOM     21  H   UNL     1      -1.619   9.360  19.677  0.00  0.00    +0.000 HD
BRANCH  20  22
ATOM     22  C   UNL     1      -2.242  10.408  17.994  0.00  0.00    +0.000 A 
ATOM     23  C   UNL     1      -3.512  11.009  18.097  0.00  0.00    +0.000 A 
ATOM     24  C   UNL     1      -4.302  11.212  16.962  0.00  0.00    +0.000 A 
ATOM     25  C   UNL     1      -3.832  10.743  15.755  0.00  0.00    +0.000 A 
ATOM     26  C   UNL     1      -2.607  10.120  15.654  0.00  0.00    +0.000 A 
ATOM     27  C   UNL     1      -1.777   9.962  16.748  0.00  0.00    +0.000 A 
ATOM     28  O   UNL     1      -2.357   9.694  14.384  0.00  0.00    +0.000 OA
ATOM     29  C   UNL     1      -3.576  10.089  13.715  0.00  0.00    +0.000 C 
ATOM     30  O   UNL     1      -4.485  10.815  14.567  0.00  0.00    +0.000 OA
ENDBRANCH  20  22
ENDBRANCH  17  18
ENDBRANCH   2  17
TORSDOF 6
ENDMDL
