MODEL 1
REMARK VINA RESULT:      -7.6      0.000      0.000
REMARK  Name = 
REMARK  4 active torsions:
REMARK  status: ('A' for Active; 'I' for Inactive)
REMARK    1  A    between atoms: C_7  and  C_8
REMARK    2  A    between atoms: C_7  and  C_17
REMARK    3  A    between atoms: C_9  and  C_10
REMARK    4  A    between atoms: C_15  and  O_16
REMARK                            x       y       z     vdW  Elec       q    Type
REMARK                         _______ _______ _______ _____ _____    ______ ____
ROOT
ATOM      1  O   UNL     1       1.829   1.691  22.369  0.00  0.00    +0.000 OA
ATOM      2  C   UNL     1       2.113   2.540  21.531  0.00  0.00    +0.000 C 
ATOM      3  N   UNL     1       1.347   3.647  21.355  0.00  0.00    +0.000 N 
ATOM      4  C   UNL     1       1.805   4.770  20.730  0.00  0.00    +0.000 C 
ATOM      5  O   UNL     1       1.484   5.876  21.150  0.00  0.00    +0.000 OA
ATOM      6  C   UNL     1       2.761   4.520  19.605  0.00  0.00    +0.000 C 
ATOM      7  C   UNL     1       2.923   5.442  18.616  0.00  0.00    +0.000 C 
ATOM      8  C   UNL     1       3.481   3.206  19.648  0.00  0.00    +0.000 C 
ATOM      9  O   UNL     1       4.188   2.757  18.755  0.00  0.00    +0.000 OA
ATOM     10  N   UNL     1       3.211   2.431  20.743  0.00  0.00    +0.000 N 
ATOM     11  H   UNL     1       0.678   3.808  22.095  0.00  0.00    +0.000 HD
ATOM     12  H   UNL     1       3.697   1.546  20.792  0.00  0.00    +0.000 HD
ENDROOT
BRANCH   7  13
ATOM     13  C   UNL     1       3.999   5.302  17.689  0.00  0.00    +0.000 A 
ATOM     14  N   UNL     1       5.201   5.840  17.736  0.00  0.00    +0.000 NA
ATOM     15  C   UNL     1       5.842   5.416  16.601  0.00  0.00    +0.000 A 
ATOM     16  C   UNL     1       7.144   5.682  16.162  0.00  0.00    +0.000 A 
ATOM     17  C   UNL     1       7.577   5.111  14.959  0.00  0.00    +0.000 A 
ATOM     18  C   UNL     1       6.726   4.299  14.207  0.00  0.00    +0.000 A 
ATOM     19  C   UNL     1       5.413   4.030  14.623  0.00  0.00    +0.000 A 
ATOM     20  C   UNL     1       5.012   4.614  15.830  0.00  0.00    +0.000 A 
ATOM     21  N   UNL     1       3.835   4.572  16.536  0.00  0.00    +0.000 N 
ATOM     22  H   UNL     1       3.004   4.060  16.272  0.00  0.00    +0.000 HD
ENDBRANCH   7  13
BRANCH   7  23
ATOM     23  C   UNL     1       2.111   6.661  18.561  0.00  0.00    +0.000 C 
ATOM     24  C   UNL     1       2.437   7.823  19.152  0.00  0.00    +0.000 C 
BRANCH  24  25
ATOM     25  C   UNL     1       1.651   9.072  19.027  0.00  0.00    +0.000 A 
ATOM     26  C   UNL     1       1.907   9.989  17.994  0.00  0.00    +0.000 A 
ATOM     27  C   UNL     1       1.211  11.199  17.915  0.00  0.00    +0.000 A 
ATOM     28  C   UNL     1       0.251  11.518  18.871  0.00  0.00    +0.000 A 
ATOM     29  C   UNL     1      -0.015  10.627  19.910  0.00  0.00    +0.000 A 
ATOM     30  C   UNL     1       0.687   9.420  19.988  0.00  0.00    +0.000 A 
BRANCH  30  31
ATOM     31  O   UNL     1       0.430   8.564  21.029  0.00  0.00    +0.000 OA
ATOM     32  H   UNL     1      -0.105   9.034  21.690  0.00  0.00    +0.000 HD
ENDBRANCH  30  31
ENDBRANCH  24  25
ENDBRANCH   7  23
TORSDOF 4
ENDMDL
MODEL 2
REMARK VINA RESULT:      -7.5      2.124      5.301
REMARK  Name = 
REMARK  4 active torsions:
REMARK  status: ('A' for Active; 'I' for Inactive)
REMARK    1  A    between atoms: C_7  and  C_8
REMARK    2  A    between atoms: C_7  and  C_17
REMARK    3  A    between atoms: C_9  and  C_10
REMARK    4  A    between atoms: C_15  and  O_16
REMARK                            x       y       z     vdW  Elec       q    Type
REMARK                         _______ _______ _______ _____ _____    ______ ____
ROOT
ATOM      1  O   UNL     1       7.825   4.649  14.620  0.00  0.00    +0.000 OA
ATOM      2  C   UNL     1       6.874   4.966  15.326  0.00  0.00    +0.000 C 
ATOM      3  N   UNL     1       6.469   6.257  15.434  0.00  0.00    +0.000 N 
ATOM      4  C   UNL     1       5.230   6.607  15.883  0.00  0.00    +0.000 C 
ATOM      5  O   UNL     1       4.635   7.546  15.364  0.00  0.00    +0.000 OA
ATOM      6  C   UNL     1       4.669   5.716  16.947  0.00  0.00    +0.000 C 
ATOM      7  C   UNL     1       3.716   6.174  17.804  0.00  0.00    +0.000 C 
ATOM      8  C   UNL     1       5.243   4.332  17.000  0.00  0.00    +0.000 C 
ATOM      9  O   UNL     1       5.024   3.507  17.878  0.00  0.00    +0.000 OA
ATOM     10  N   UNL     1       6.165   4.048  16.029  0.00  0.00    +0.000 N 
ATOM     11  H   UNL     1       6.865   6.873  14.738  0.00  0.00    +0.000 HD
ATOM     12  H   UNL     1       6.555   3.115  16.045  0.00  0.00    +0.000 HD
ENDROOT
BRANCH   7  13
ATOM     13  C   UNL     1       3.024   5.255  18.650  0.00  0.00    +0.000 A 
ATOM     14  N   UNL     1       1.973   4.512  18.371  0.00  0.00    +0.000 NA
ATOM     15  C   UNL     1       1.684   3.829  19.525  0.00  0.00    +0.000 A 
ATOM     16  C   UNL     1       0.674   2.894  19.777  0.00  0.00    +0.000 A 
ATOM     17  C   UNL     1       0.595   2.317  21.050  0.00  0.00    +0.000 A 
ATOM     18  C   UNL     1       1.501   2.671  22.052  0.00  0.00    +0.000 A 
ATOM     19  C   UNL     1       2.514   3.616  21.823  0.00  0.00    +0.000 A 
ATOM     20  C   UNL     1       2.566   4.172  20.541  0.00  0.00    +0.000 A 
ATOM     21  N   UNL     1       3.399   5.099  19.963  0.00  0.00    +0.000 N 
ATOM     22  H   UNL     1       4.179   5.557  20.416  0.00  0.00    +0.000 HD
ENDBRANCH   7  13
BRANCH   7  23
ATOM     23  C   UNL     1       3.271   7.571  17.783  0.00  0.00    +0.000 C 
ATOM     24  C   UNL     1       2.274   8.066  18.537  0.00  0.00    +0.000 C 
BRANCH  24  25
ATOM     25  C   UNL     1       1.881   9.493  18.567  0.00  0.00    +0.000 A 
ATOM     26  C   UNL     1       2.529  10.440  17.758  0.00  0.00    +0.000 A 
ATOM     27  C   UNL     1       2.204  11.798  17.835  0.00  0.00    +0.000 A 
ATOM     28  C   UNL     1       1.230  12.235  18.728  0.00  0.00    +0.000 A 
ATOM     29  C   UNL     1       0.580  11.314  19.548  0.00  0.00    +0.000 A 
ATOM     30  C   UNL     1       0.911   9.957  19.470  0.00  0.00    +0.000 A 
BRANCH  30  31
ATOM     31  O   UNL     1       0.276   9.067  20.299  0.00  0.00    +0.000 OA
ATOM     32  H   UNL     1       0.154   9.487  21.168  0.00  0.00    +0.000 HD
ENDBRANCH  30  31
ENDBRANCH  24  25
ENDBRANCH   7  23
TORSDOF 4
ENDMDL
MODEL 3
REMARK VINA RESULT:      -7.3      4.432      8.545
REMARK  Name = 
REMARK  4 active torsions:
REMARK  status: ('A' for Active; 'I' for Inactive)
REMARK    1  A    between atoms: C_7  and  C_8
REMARK    2  A    between atoms: C_7  and  C_17
REMARK    3  A    between atoms: C_9  and  C_10
REMARK    4  A    between atoms: C_15  and  O_16
REMARK                            x       y       z     vdW  Elec       q    Type
REMARK                         _______ _______ _______ _____ _____    ______ ____
ROOT
ATOM      1  O   UNL     1      -4.972  11.228  17.714  0.00  0.00    +0.000 OA
ATOM      2  C   UNL     1      -3.758  11.172  17.876  0.00  0.00    +0.000 C 
ATOM      3  N   UNL     1      -3.076  10.006  17.739  0.00  0.00    +0.000 N 
ATOM      4  C   UNL     1      -1.728   9.958  17.537  0.00  0.00    +0.000 C 
ATOM      5  O   UNL     1      -1.255   9.126  16.771  0.00  0.00    +0.000 OA
ATOM      6  C   UNL     1      -0.947  11.028  18.234  0.00  0.00    +0.000 C 
ATOM      7  C   UNL     1       0.371  10.848  18.524  0.00  0.00    +0.000 C 
ATOM      8  C   UNL     1      -1.719  12.262  18.594  0.00  0.00    +0.000 C 
ATOM      9  O   UNL     1      -1.302  13.182  19.288  0.00  0.00    +0.000 OA
ATOM     10  N   UNL     1      -3.025  12.271  18.185  0.00  0.00    +0.000 N 
ATOM     11  H   UNL     1      -3.605   9.268  17.296  0.00  0.00    +0.000 HD
ATOM     12  H   UNL     1      -3.557  13.100  18.412  0.00  0.00    +0.000 HD
ENDROOT
BRANCH   7  13
ATOM     13  C   UNL     1       1.156  11.954  18.967  0.00  0.00    +0.000 A 
ATOM     14  N   UNL     1       1.513  12.271  20.195  0.00  0.00    +0.000 NA
ATOM     15  C   UNL     1       2.236  13.431  20.084  0.00  0.00    +0.000 A 
ATOM     16  C   UNL     1       2.861  14.189  21.081  0.00  0.00    +0.000 A 
ATOM     17  C   UNL     1       3.562  15.342  20.708  0.00  0.00    +0.000 A 
ATOM     18  C   UNL     1       3.633  15.732  19.369  0.00  0.00    +0.000 A 
ATOM     19  C   UNL     1       3.004  14.993  18.356  0.00  0.00    +0.000 A 
ATOM     20  C   UNL     1       2.313  13.846  18.762  0.00  0.00    +0.000 A 
ATOM     21  N   UNL     1       1.598  12.898  18.070  0.00  0.00    +0.000 N 
ATOM     22  H   UNL     1       1.457  12.878  17.070  0.00  0.00    +0.000 HD
ENDBRANCH   7  13
BRANCH   7  23
ATOM     23  C   UNL     1       1.050   9.577  18.252  0.00  0.00    +0.000 C 
ATOM     24  C   UNL     1       1.861   8.945  19.118  0.00  0.00    +0.000 C 
BRANCH  24  25
ATOM     25  C   UNL     1       2.481   7.625  18.867  0.00  0.00    +0.000 A 
ATOM     26  C   UNL     1       3.181   7.367  17.676  0.00  0.00    +0.000 A 
ATOM     27  C   UNL     1       3.710   6.100  17.409  0.00  0.00    +0.000 A 
ATOM     28  C   UNL     1       3.542   5.065  18.325  0.00  0.00    +0.000 A 
ATOM     29  C   UNL     1       2.844   5.294  19.510  0.00  0.00    +0.000 A 
ATOM     30  C   UNL     1       2.313   6.562  19.770  0.00  0.00    +0.000 A 
BRANCH  30  31
ATOM     31  O   UNL     1       1.611   6.765  20.931  0.00  0.00    +0.000 OA
ATOM     32  H   UNL     1       2.043   7.475  21.434  0.00  0.00    +0.000 HD
ENDBRANCH  30  31
ENDBRANCH  24  25
ENDBRANCH   7  23
TORSDOF 4
ENDMDL
MODEL 4
REMARK VINA RESULT:      -7.3      2.151      5.176
REMARK  Name = 
REMARK  4 active torsions:
REMARK  status: ('A' for Active; 'I' for Inactive)
REMARK    1  A    between atoms: C_7  and  C_8
REMARK    2  A    between atoms: C_7  and  C_17
REMARK    3  A    between atoms: C_9  and  C_10
REMARK    4  A    between atoms: C_15  and  O_16
REMARK                            x       y       z     vdW  Elec       q    Type
REMARK                         _______ _______ _______ _____ _____    ______ ____
ROOT
ATOM      1  O   UNL     1       7.791   4.752  14.550  0.00  0.00    +0.000 OA
ATOM      2  C   UNL     1       6.863   5.070  15.285  0.00  0.00    +0.000 C 
ATOM      3  N   UNL     1       6.436   6.356  15.375  0.00  0.00    +0.000 N 
ATOM      4  C   UNL     1       5.210   6.695  15.863  0.00  0.00    +0.000 C 
ATOM      5  O   UNL     1       4.577   7.608  15.344  0.00  0.00    +0.000 OA
ATOM      6  C   UNL     1       4.708   5.822  16.971  0.00  0.00    +0.000 C 
ATOM      7  C   UNL     1       3.781   6.285  17.853  0.00  0.00    +0.000 C 
ATOM      8  C   UNL     1       5.311   4.450  17.037  0.00  0.00    +0.000 C 
ATOM      9  O   UNL     1       5.142   3.645  17.945  0.00  0.00    +0.000 OA
ATOM     10  N   UNL     1       6.199   4.158  16.038  0.00  0.00    +0.000 N 
ATOM     11  H   UNL     1       6.793   6.960  14.647  0.00  0.00    +0.000 HD
ATOM     12  H   UNL     1       6.608   3.233  16.063  0.00  0.00    +0.000 HD
ENDROOT
BRANCH   7  13
ATOM     13  C   UNL     1       3.140   5.377  18.749  0.00  0.00    +0.000 A 
ATOM     14  N   UNL     1       3.372   5.184  20.031  0.00  0.00    +0.000 NA
ATOM     15  C   UNL     1       2.510   4.190  20.419  0.00  0.00    +0.000 A 
ATOM     16  C   UNL     1       2.330   3.611  21.681  0.00  0.00    +0.000 A 
ATOM     17  C   UNL     1       1.362   2.610  21.828  0.00  0.00    +0.000 A 
ATOM     18  C   UNL     1       0.595   2.193  20.738  0.00  0.00    +0.000 A 
ATOM     19  C   UNL     1       0.768   2.753  19.463  0.00  0.00    +0.000 A 
ATOM     20  C   UNL     1       1.743   3.750  19.350  0.00  0.00    +0.000 A 
ATOM     21  N   UNL     1       2.177   4.509  18.290  0.00  0.00    +0.000 N 
ATOM     22  H   UNL     1       1.821   4.464  17.345  0.00  0.00    +0.000 HD
ENDBRANCH   7  13
BRANCH   7  23
ATOM     23  C   UNL     1       3.307   7.672  17.813  0.00  0.00    +0.000 C 
ATOM     24  C   UNL     1       2.270   8.146  18.524  0.00  0.00    +0.000 C 
BRANCH  24  25
ATOM     25  C   UNL     1       1.846   9.564  18.538  0.00  0.00    +0.000 A 
ATOM     26  C   UNL     1       2.518  10.529  17.769  0.00  0.00    +0.000 A 
ATOM     27  C   UNL     1       2.162  11.879  17.833  0.00  0.00    +0.000 A 
ATOM     28  C   UNL     1       1.131  12.292  18.673  0.00  0.00    +0.000 A 
ATOM     29  C   UNL     1       0.455  11.354  19.453  0.00  0.00    +0.000 A 
ATOM     30  C   UNL     1       0.818  10.004  19.388  0.00  0.00    +0.000 A 
BRANCH  30  31
ATOM     31  O   UNL     1       0.158   9.098  20.178  0.00  0.00    +0.000 OA
ATOM     32  H   UNL     1       0.680   8.951  20.984  0.00  0.00    +0.000 HD
ENDBRANCH  30  31
ENDBRANCH  24  25
ENDBRANCH   7  23
TORSDOF 4
ENDMDL
MODEL 5
REMARK VINA RESULT:      -7.2      4.441      8.598
REMARK  Name = 
REMARK  4 active torsions:
REMARK  status: ('A' for Active; 'I' for Inactive)
REMARK    1  A    between atoms: C_7  and  C_8
REMARK    2  A    between atoms: C_7  and  C_17
REMARK    3  A    between atoms: C_9  and  C_10
REMARK    4  A    between atoms: C_15  and  O_16
REMARK                            x       y       z     vdW  Elec       q    Type
REMARK                         _______ _______ _______ _____ _____    ______ ____
ROOT
ATOM      1  O   UNL     1      -4.805  11.217  17.804  0.00  0.00    +0.000 OA
ATOM      2  C   UNL     1      -3.588  11.194  17.946  0.00  0.00    +0.000 C 
ATOM      3  N   UNL     1      -2.879  10.044  17.814  0.00  0.00    +0.000 N 
ATOM      4  C   UNL     1      -1.534  10.027  17.591  0.00  0.00    +0.000 C 
ATOM      5  O   UNL     1      -1.053   9.197  16.827  0.00  0.00    +0.000 OA
ATOM      6  C   UNL     1      -0.769  11.125  18.260  0.00  0.00    +0.000 C 
ATOM      7  C   UNL     1       0.558  10.982  18.530  0.00  0.00    +0.000 C 
ATOM      8  C   UNL     1      -1.566  12.344  18.617  0.00  0.00    +0.000 C 
ATOM      9  O   UNL     1      -1.161  13.283  19.291  0.00  0.00    +0.000 OA
ATOM     10  N   UNL     1      -2.878  12.314  18.229  0.00  0.00    +0.000 N 
ATOM     11  H   UNL     1      -3.397   9.287  17.390  0.00  0.00    +0.000 HD
ATOM     12  H   UNL     1      -3.427  13.133  18.454  0.00  0.00    +0.000 HD
ENDROOT
BRANCH   7  13
ATOM     13  C   UNL     1       1.322  12.113  18.946  0.00  0.00    +0.000 A 
ATOM     14  N   UNL     1       2.018  12.953  18.207  0.00  0.00    +0.000 NA
ATOM     15  C   UNL     1       2.582  13.841  19.086  0.00  0.00    +0.000 A 
ATOM     16  C   UNL     1       3.405  14.945  18.832  0.00  0.00    +0.000 A 
ATOM     17  C   UNL     1       3.845  15.717  19.913  0.00  0.00    +0.000 A 
ATOM     18  C   UNL     1       3.478  15.392  21.220  0.00  0.00    +0.000 A 
ATOM     19  C   UNL     1       2.664  14.283  21.498  0.00  0.00    +0.000 A 
ATOM     20  C   UNL     1       2.240  13.533  20.396  0.00  0.00    +0.000 A 
ATOM     21  N   UNL     1       1.451  12.414  20.281  0.00  0.00    +0.000 N 
ATOM     22  H   UNL     1       1.010  11.921  21.046  0.00  0.00    +0.000 HD
ENDBRANCH   7  13
BRANCH   7  23
ATOM     23  C   UNL     1       1.264   9.725  18.264  0.00  0.00    +0.000 C 
ATOM     24  C   UNL     1       1.790   8.929  19.212  0.00  0.00    +0.000 C 
BRANCH  24  25
ATOM     25  C   UNL     1       2.433   7.624  18.941  0.00  0.00    +0.000 A 
ATOM     26  C   UNL     1       3.135   7.395  17.746  0.00  0.00    +0.000 A 
ATOM     27  C   UNL     1       3.686   6.142  17.461  0.00  0.00    +0.000 A 
ATOM     28  C   UNL     1       3.538   5.091  18.362  0.00  0.00    +0.000 A 
ATOM     29  C   UNL     1       2.838   5.291  19.551  0.00  0.00    +0.000 A 
ATOM     30  C   UNL     1       2.285   6.546  19.830  0.00  0.00    +0.000 A 
BRANCH  30  31
ATOM     31  O   UNL     1       1.580   6.720  20.994  0.00  0.00    +0.000 OA
ATOM     32  H   UNL     1       2.212   6.818  21.726  0.00  0.00    +0.000 HD
ENDBRANCH  30  31
ENDBRANCH  24  25
ENDBRANCH   7  23
TORSDOF 4
ENDMDL
MODEL 6
REMARK VINA RESULT:      -7.1      0.137      1.105
REMARK  Name = 
REMARK  4 active torsions:
REMARK  status: ('A' for Active; 'I' for Inactive)
REMARK    1  A    between atoms: C_7  and  C_8
REMARK    2  A    between atoms: C_7  and  C_17
REMARK    3  A    between atoms: C_9  and  C_10
REMARK    4  A    between atoms: C_15  and  O_16
REMARK                            x       y       z     vdW  Elec       q    Type
REMARK                         _______ _______ _______ _____ _____    ______ ____
ROOT
ATOM      1  O   UNL     1       1.753   1.747  22.384  0.00  0.00    +0.000 OA
ATOM      2  C   UNL     1       2.028   2.569  21.517  0.00  0.00    +0.000 C 
ATOM      3  N   UNL     1       1.298   3.702  21.356  0.00  0.00    +0.000 N 
ATOM      4  C   UNL     1       1.768   4.794  20.687  0.00  0.00    +0.000 C 
ATOM      5  O   UNL     1       1.511   5.920  21.099  0.00  0.00    +0.000 OA
ATOM      6  C   UNL     1       2.658   4.486  19.523  0.00  0.00    +0.000 C 
ATOM      7  C   UNL     1       2.807   5.382  18.509  0.00  0.00    +0.000 C 
ATOM      8  C   UNL     1       3.327   3.145  19.558  0.00  0.00    +0.000 C 
ATOM      9  O   UNL     1       3.973   2.652  18.641  0.00  0.00    +0.000 OA
ATOM     10  N   UNL     1       3.082   2.402  20.680  0.00  0.00    +0.000 N 
ATOM     11  H   UNL     1       0.672   3.903  22.124  0.00  0.00    +0.000 HD
ATOM     12  H   UNL     1       3.534   1.499  20.723  0.00  0.00    +0.000 HD
ENDROOT
BRANCH   7  13
ATOM     13  C   UNL     1       3.831   5.183  17.534  0.00  0.00    +0.000 A 
ATOM     14  N   UNL     1       3.766   4.524  16.396  0.00  0.00    +0.000 NA
ATOM     15  C   UNL     1       5.019   4.610  15.845  0.00  0.00    +0.000 A 
ATOM     16  C   UNL     1       5.497   4.097  14.634  0.00  0.00    +0.000 A 
ATOM     17  C   UNL     1       6.831   4.336  14.282  0.00  0.00    +0.000 A 
ATOM     18  C   UNL     1       7.672   5.065  15.125  0.00  0.00    +0.000 A 
ATOM     19  C   UNL     1       7.216   5.578  16.350  0.00  0.00    +0.000 A 
ATOM     20  C   UNL     1       5.878   5.323  16.670  0.00  0.00    +0.000 A 
ATOM     21  N   UNL     1       5.102   5.661  17.752  0.00  0.00    +0.000 N 
ATOM     22  H   UNL     1       5.403   6.203  18.550  0.00  0.00    +0.000 HD
ENDBRANCH   7  13
BRANCH   7  23
ATOM     23  C   UNL     1       2.041   6.631  18.468  0.00  0.00    +0.000 C 
ATOM     24  C   UNL     1       2.364   7.748  19.143  0.00  0.00    +0.000 C 
BRANCH  24  25
ATOM     25  C   UNL     1       1.631   9.029  19.036  0.00  0.00    +0.000 A 
ATOM     26  C   UNL     1       1.908   9.939  18.003  0.00  0.00    +0.000 A 
ATOM     27  C   UNL     1       1.262  11.178  17.940  0.00  0.00    +0.000 A 
ATOM     28  C   UNL     1       0.333  11.533  18.913  0.00  0.00    +0.000 A 
ATOM     29  C   UNL     1       0.048  10.650  19.954  0.00  0.00    +0.000 A 
ATOM     30  C   UNL     1       0.699   9.413  20.015  0.00  0.00    +0.000 A 
BRANCH  30  31
ATOM     31  O   UNL     1       0.423   8.565  21.057  0.00  0.00    +0.000 OA
ATOM     32  H   UNL     1       0.785   8.949  21.873  0.00  0.00    +0.000 HD
ENDBRANCH  30  31
ENDBRANCH  24  25
ENDBRANCH   7  23
TORSDOF 4
ENDMDL
MODEL 7
REMARK VINA RESULT:      -7.1      0.877      1.261
REMARK  Name = 
REMARK  4 active torsions:
REMARK  status: ('A' for Active; 'I' for Inactive)
REMARK    1  A    between atoms: C_7  and  C_8
REMARK    2  A    between atoms: C_7  and  C_17
REMARK    3  A    between atoms: C_9  and  C_10
REMARK    4  A    between atoms: C_15  and  O_16
REMARK                            x       y       z     vdW  Elec       q    Type
REMARK                         _______ _______ _______ _____ _____    ______ ____
ROOT
ATOM      1  O   UNL     1       1.840   1.662  22.370  0.00  0.00    +0.000 OA
ATOM      2  C   UNL     1       2.113   2.535  21.553  0.00  0.00    +0.000 C 
ATOM      3  N   UNL     1       1.323   3.626  21.388  0.00  0.00    +0.000 N 
ATOM      4  C   UNL     1       1.760   4.772  20.792  0.00  0.00    +0.000 C 
ATOM      5  O   UNL     1       1.405   5.861  21.229  0.00  0.00    +0.000 OA
ATOM      6  C   UNL     1       2.737   4.569  19.677  0.00  0.00    +0.000 C 
ATOM      7  C   UNL     1       2.890   5.514  18.708  0.00  0.00    +0.000 C 
ATOM      8  C   UNL     1       3.490   3.273  19.703  0.00  0.00    +0.000 C 
ATOM      9  O   UNL     1       4.221   2.859  18.812  0.00  0.00    +0.000 OA
ATOM     10  N   UNL     1       3.225   2.469  20.779  0.00  0.00    +0.000 N 
ATOM     11  H   UNL     1       0.639   3.755  22.122  0.00  0.00    +0.000 HD
ATOM     12  H   UNL     1       3.732   1.595  20.817  0.00  0.00    +0.000 HD
ENDROOT
BRANCH   7  13
ATOM     13  C   UNL     1       3.982   5.421  17.794  0.00  0.00    +0.000 A 
ATOM     14  N   UNL     1       5.167   5.992  17.867  0.00  0.00    +0.000 NA
ATOM     15  C   UNL     1       5.836   5.605  16.734  0.00  0.00    +0.000 A 
ATOM     16  C   UNL     1       7.136   5.915  16.317  0.00  0.00    +0.000 A 
ATOM     17  C   UNL     1       7.601   5.376  15.112  0.00  0.00    +0.000 A 
ATOM     18  C   UNL     1       6.784   4.551  14.335  0.00  0.00    +0.000 A 
ATOM     19  C   UNL     1       5.474   4.238  14.729  0.00  0.00    +0.000 A 
ATOM     20  C   UNL     1       5.040   4.791  15.939  0.00  0.00    +0.000 A 
ATOM     21  N   UNL     1       3.854   4.705  16.628  0.00  0.00    +0.000 N 
ATOM     22  H   UNL     1       3.043   4.173  16.344  0.00  0.00    +0.000 HD
ENDBRANCH   7  13
BRANCH   7  23
ATOM     23  C   UNL     1       2.048   6.713  18.666  0.00  0.00    +0.000 C 
ATOM     24  C   UNL     1       2.221   7.797  19.442  0.00  0.00    +0.000 C 
BRANCH  24  25
ATOM     25  C   UNL     1       1.416   9.034  19.340  0.00  0.00    +0.000 A 
ATOM     26  C   UNL     1       0.506   9.393  20.348  0.00  0.00    +0.000 A 
ATOM     27  C   UNL     1      -0.303  10.526  20.221  0.00  0.00    +0.000 A 
ATOM     28  C   UNL     1      -0.223  11.318  19.078  0.00  0.00    +0.000 A 
ATOM     29  C   UNL     1       0.666  10.977  18.060  0.00  0.00    +0.000 A 
ATOM     30  C   UNL     1       1.471   9.840  18.190  0.00  0.00    +0.000 A 
BRANCH  30  31
ATOM     31  O   UNL     1       2.324   9.507  17.170  0.00  0.00    +0.000 OA
ATOM     32  H   UNL     1       2.469   8.546  17.189  0.00  0.00    +0.000 HD
ENDBRANCH  30  31
ENDBRANCH  24  25
ENDBRANCH   7  23
TORSDOF 4
ENDMDL
MODEL 8
REMARK VINA RESULT:      -7.1      5.519     10.686
REMARK  Name = 
REMARK  4 active torsions:
REMARK  status: ('A' for Active; 'I' for Inactive)
REMARK    1  A    between atoms: C_7  and  C_8
REMARK    2  A    between atoms: C_7  and  C_17
REMARK    3  A    between atoms: C_9  and  C_10
REMARK    4  A    between atoms: C_15  and  O_16
REMARK                            x       y       z     vdW  Elec       q    Type
REMARK                         _______ _______ _______ _____ _____    ______ ____
ROOT
ATOM      1  O   UNL     1       2.432  17.734  17.852  0.00  0.00    +0.000 OA
ATOM      2  C   UNL     1       1.942  16.689  18.264  0.00  0.00    +0.000 C 
ATOM      3  N   UNL     1       2.543  15.490  18.051  0.00  0.00    +0.000 N 
ATOM      4  C   UNL     1       2.255  14.379  18.786  0.00  0.00    +0.000 C 
ATOM      5  O   UNL     1       3.154  13.607  19.103  0.00  0.00    +0.000 OA
ATOM      6  C   UNL     1       0.828  14.261  19.221  0.00  0.00    +0.000 C 
ATOM      7  C   UNL     1       0.293  13.047  19.524  0.00  0.00    +0.000 C 
ATOM      8  C   UNL     1       0.059  15.548  19.271  0.00  0.00    +0.000 C 
ATOM      9  O   UNL     1      -1.147  15.645  19.461  0.00  0.00    +0.000 OA
ATOM     10  N   UNL     1       0.782  16.669  18.967  0.00  0.00    +0.000 N 
ATOM     11  H   UNL     1       3.498  15.559  17.728  0.00  0.00    +0.000 HD
ATOM     12  H   UNL     1       0.281  17.546  19.006  0.00  0.00    +0.000 HD
ENDROOT
BRANCH   7  13
ATOM     13  C   UNL     1      -0.983  12.974  20.160  0.00  0.00    +0.000 A 
ATOM     14  N   UNL     1      -1.261  12.970  21.448  0.00  0.00    +0.000 NA
ATOM     15  C   UNL     1      -2.626  12.860  21.532  0.00  0.00    +0.000 A 
ATOM     16  C   UNL     1      -3.448  12.823  22.664  0.00  0.00    +0.000 A 
ATOM     17  C   UNL     1      -4.833  12.722  22.486  0.00  0.00    +0.000 A 
ATOM     18  C   UNL     1      -5.385  12.652  21.205  0.00  0.00    +0.000 A 
ATOM     19  C   UNL     1      -4.578  12.675  20.057  0.00  0.00    +0.000 A 
ATOM     20  C   UNL     1      -3.199  12.778  20.270  0.00  0.00    +0.000 A 
ATOM     21  N   UNL     1      -2.128  12.833  19.411  0.00  0.00    +0.000 N 
ATOM     22  H   UNL     1      -2.177  12.814  18.402  0.00  0.00    +0.000 HD
ENDBRANCH   7  13
BRANCH   7  23
ATOM     23  C   UNL     1       1.055  11.806  19.349  0.00  0.00    +0.000 C 
ATOM     24  C   UNL     1       0.569  10.573  19.575  0.00  0.00    +0.000 C 
BRANCH  24  25
ATOM     25  C   UNL     1       1.318   9.323  19.322  0.00  0.00    +0.000 A 
ATOM     26  C   UNL     1       1.834   9.031  18.048  0.00  0.00    +0.000 A 
ATOM     27  C   UNL     1       2.484   7.820  17.793  0.00  0.00    +0.000 A 
ATOM     28  C   UNL     1       2.624   6.874  18.804  0.00  0.00    +0.000 A 
ATOM     29  C   UNL     1       2.113   7.136  20.074  0.00  0.00    +0.000 A 
ATOM     30  C   UNL     1       1.460   8.348  20.324  0.00  0.00    +0.000 A 
BRANCH  30  31
ATOM     31  O   UNL     1       0.943   8.582  21.573  0.00  0.00    +0.000 OA
ATOM     32  H   UNL     1       0.972   7.753  22.080  0.00  0.00    +0.000 HD
ENDBRANCH  30  31
ENDBRANCH  24  25
ENDBRANCH   7  23
TORSDOF 4
ENDMDL
MODEL 9
REMARK VINA RESULT:      -7.0      4.581      7.239
REMARK  Name = 
REMARK  4 active torsions:
REMARK  status: ('A' for Active; 'I' for Inactive)
REMARK    1  A    between atoms: C_7  and  C_8
REMARK    2  A    between atoms: C_7  and  C_17
REMARK    3  A    between atoms: C_9  and  C_10
REMARK    4  A    between atoms: C_15  and  O_16
REMARK                            x       y       z     vdW  Elec       q    Type
REMARK                         _______ _______ _______ _____ _____    ______ ____
ROOT
ATOM      1  O   UNL     1      -4.539  11.324  17.018  0.00  0.00    +0.000 OA
ATOM      2  C   UNL     1      -3.381  11.239  17.410  0.00  0.00    +0.000 C 
ATOM      3  N   UNL     1      -2.709  12.320  17.880  0.00  0.00    +0.000 N 
ATOM      4  C   UNL     1      -1.593  12.217  18.656  0.00  0.00    +0.000 C 
ATOM      5  O   UNL     1      -1.421  12.997  19.586  0.00  0.00    +0.000 OA
ATOM      6  C   UNL     1      -0.703  11.058  18.330  0.00  0.00    +0.000 C 
ATOM      7  C   UNL     1       0.618  11.084  18.658  0.00  0.00    +0.000 C 
ATOM      8  C   UNL     1      -1.364   9.916  17.617  0.00  0.00    +0.000 C 
ATOM      9  O   UNL     1      -0.784   8.948  17.140  0.00  0.00    +0.000 OA
ATOM     10  N   UNL     1      -2.708  10.061  17.409  0.00  0.00    +0.000 N 
ATOM     11  H   UNL     1      -3.298  13.119  18.075  0.00  0.00    +0.000 HD
ATOM     12  H   UNL     1      -3.171   9.295  16.938  0.00  0.00    +0.000 HD
ENDROOT
BRANCH   7  13
ATOM     13  C   UNL     1       1.395   9.890  18.560  0.00  0.00    +0.000 A 
ATOM     14  N   UNL     1       2.234   9.531  17.611  0.00  0.00    +0.000 NA
ATOM     15  C   UNL     1       2.699   8.293  17.975  0.00  0.00    +0.000 A 
ATOM     16  C   UNL     1       3.624   7.464  17.330  0.00  0.00    +0.000 A 
ATOM     17  C   UNL     1       3.951   6.237  17.919  0.00  0.00    +0.000 A 
ATOM     18  C   UNL     1       3.364   5.844  19.124  0.00  0.00    +0.000 A 
ATOM     19  C   UNL     1       2.426   6.655  19.781  0.00  0.00    +0.000 A 
ATOM     20  C   UNL     1       2.122   7.875  19.166  0.00  0.00    +0.000 A 
ATOM     21  N   UNL     1       1.278   8.903  19.509  0.00  0.00    +0.000 N 
ATOM     22  H   UNL     1       0.701   8.943  20.338  0.00  0.00    +0.000 HD
ENDBRANCH   7  13
BRANCH   7  23
ATOM     23  C   UNL     1       1.238  12.271  19.253  0.00  0.00    +0.000 C 
ATOM     24  C   UNL     1       2.060  13.112  18.601  0.00  0.00    +0.000 C 
BRANCH  24  25
ATOM     25  C   UNL     1       2.620  14.351  19.185  0.00  0.00    +0.000 A 
ATOM     26  C   UNL     1       2.365  14.703  20.521  0.00  0.00    +0.000 A 
ATOM     27  C   UNL     1       2.839  15.906  21.053  0.00  0.00    +0.000 A 
ATOM     28  C   UNL     1       3.570  16.783  20.258  0.00  0.00    +0.000 A 
ATOM     29  C   UNL     1       3.829  16.460  18.926  0.00  0.00    +0.000 A 
ATOM     30  C   UNL     1       3.349  15.257  18.397  0.00  0.00    +0.000 A 
BRANCH  30  31
ATOM     31  O   UNL     1       3.594  14.964  17.079  0.00  0.00    +0.000 OA
ATOM     32  H   UNL     1       4.499  15.243  16.863  0.00  0.00    +0.000 HD
ENDBRANCH  30  31
ENDBRANCH  24  25
ENDBRANCH   7  23
TORSDOF 4
ENDMDL
