MODEL 1
REMARK VINA RESULT:      -7.4      0.000      0.000
REMARK  Name = 
REMARK  8 active torsions:
REMARK  status: ('A' for Active; 'I' for Inactive)
REMARK    1  A    between atoms: C_1  and  C_2
REMARK    2  A    between atoms: C_2  and  C_3
REMARK    3  A    between atoms: C_3  and  C_4
REMARK    4  A    between atoms: C_4  and  C_5
REMARK    5  A    between atoms: C_5  and  C_6
REMARK    6  A    between atoms: C_6  and  C_7
REMARK    7  A    between atoms: C_8  and  C_9
REMARK    8  A    between atoms: C_14  and  O_15
REMARK                            x       y       z     vdW  Elec       q    Type
REMARK                         _______ _______ _______ _____ _____    ______ ____
ROOT
ATOM      1  C   UNL     1       4.931   3.845  17.699  0.00  0.00    +0.000 C 
ATOM      2  C   UNL     1       4.346   5.142  18.278  0.00  0.00    +0.000 C 
ATOM      3  C   UNL     1       3.229   4.603  19.065  0.00  0.00    +0.000 C 
ATOM      4  C   UNL     1       3.160   3.289  18.967  0.00  0.00    +0.000 C 
ATOM      5  O   UNL     1       4.137   2.719  18.158  0.00  0.00    +0.000 OA
ATOM      6  C   UNL     1       2.166   2.407  19.634  0.00  0.00    +0.000 C 
ATOM      7  C   UNL     1       1.108   3.146  20.469  0.00  0.00    +0.000 C 
ATOM      8  C   UNL     1       1.169   4.674  20.563  0.00  0.00    +0.000 C 
ATOM      9  C   UNL     1       2.288   5.389  19.847  0.00  0.00    +0.000 C 
ATOM     10  O   UNL     1       2.408   6.612  19.893  0.00  0.00    +0.000 OA
ENDROOT
BRANCH   1  12
ATOM     11  C   UNL     1       5.539   4.761  15.448  0.00  0.00    +0.000 C 
ATOM     12  C   UNL     1       4.892   3.862  16.202  0.00  0.00    +0.000 C 
BRANCH  11  13
ATOM     13  C   UNL     1       5.459   4.770  13.956  0.00  0.00    +0.000 C 
BRANCH  13  14
ATOM     14  C   UNL     1       6.352   3.678  13.384  0.00  0.00    +0.000 C 
BRANCH  14  15
ATOM     15  C   UNL     1       5.716   3.071  12.141  0.00  0.00    +0.000 C 
BRANCH  15  16
ATOM     16  C   UNL     1       4.374   3.732  11.858  0.00  0.00    +0.000 C 
BRANCH  16  18
ATOM     17  C   UNL     1       3.029   4.085   9.778  0.00  0.00    +0.000 C 
ATOM     18  C   UNL     1       3.673   3.054  10.687  0.00  0.00    +0.000 C 
ENDBRANCH  16  18
ENDBRANCH  15  16
ENDBRANCH  14  15
ENDBRANCH  13  14
ENDBRANCH  11  13
ENDBRANCH   1  12
BRANCH   6  19
ATOM     19  O   UNL     1       1.489   1.620  18.656  0.00  0.00    +0.000 OA
ATOM     20  H   UNL     1       1.052   0.886  19.118  0.00  0.00    +0.000 HD
ENDBRANCH   6  19
TORSDOF 7
ENDMDL
MODEL 2
REMARK VINA RESULT:      -7.3      1.230      1.618
REMARK  Name = 
REMARK  8 active torsions:
REMARK  status: ('A' for Active; 'I' for Inactive)
REMARK    1  A    between atoms: C_1  and  C_2
REMARK    2  A    between atoms: C_2  and  C_3
REMARK    3  A    between atoms: C_3  and  C_4
REMARK    4  A    between atoms: C_4  and  C_5
REMARK    5  A    between atoms: C_5  and  C_6
REMARK    6  A    between atoms: C_6  and  C_7
REMARK    7  A    between atoms: C_8  and  C_9
REMARK    8  A    between atoms: C_14  and  O_15
REMARK                            x       y       z     vdW  Elec       q    Type
REMARK                         _______ _______ _______ _____ _____    ______ ____
ROOT
ATOM      1  C   UNL     1       5.370   4.561  18.575  0.00  0.00    +0.000 C 
ATOM      2  C   UNL     1       4.411   5.612  19.156  0.00  0.00    +0.000 C 
ATOM      3  C   UNL     1       3.298   4.752  19.580  0.00  0.00    +0.000 C 
ATOM      4  C   UNL     1       3.537   3.484  19.305  0.00  0.00    +0.000 C 
ATOM      5  O   UNL     1       4.761   3.248  18.687  0.00  0.00    +0.000 OA
ATOM      6  C   UNL     1       2.641   2.334  19.600  0.00  0.00    +0.000 C 
ATOM      7  C   UNL     1       1.299   2.714  20.244  0.00  0.00    +0.000 C 
ATOM      8  C   UNL     1       1.006   4.188  20.540  0.00  0.00    +0.000 C 
ATOM      9  C   UNL     1       2.068   5.207  20.207  0.00  0.00    +0.000 C 
ATOM     10  O   UNL     1       1.908   6.405  20.433  0.00  0.00    +0.000 OA
ENDROOT
BRANCH   1  12
ATOM     11  C   UNL     1       6.706   4.353  16.466  0.00  0.00    +0.000 C 
ATOM     12  C   UNL     1       5.640   4.827  17.126  0.00  0.00    +0.000 C 
BRANCH  11  13
ATOM     13  C   UNL     1       6.965   4.657  15.027  0.00  0.00    +0.000 C 
BRANCH  13  14
ATOM     14  C   UNL     1       5.944   3.940  14.155  0.00  0.00    +0.000 C 
BRANCH  14  15
ATOM     15  C   UNL     1       6.455   3.826  12.726  0.00  0.00    +0.000 C 
BRANCH  15  16
ATOM     16  C   UNL     1       5.388   3.209  11.831  0.00  0.00    +0.000 C 
BRANCH  16  18
ATOM     17  C   UNL     1       7.233   1.721  11.030  0.00  0.00    +0.000 C 
ATOM     18  C   UNL     1       5.771   1.789  11.432  0.00  0.00    +0.000 C 
ENDBRANCH  16  18
ENDBRANCH  15  16
ENDBRANCH  14  15
ENDBRANCH  13  14
ENDBRANCH  11  13
ENDBRANCH   1  12
BRANCH   6  19
ATOM     19  O   UNL     1       2.370   1.616  18.398  0.00  0.00    +0.000 OA
ATOM     20  H   UNL     1       2.533   0.675  18.572  0.00  0.00    +0.000 HD
ENDBRANCH   6  19
TORSDOF 7
ENDMDL
MODEL 3
REMARK VINA RESULT:      -7.2      1.072      1.374
REMARK  Name = 
REMARK  8 active torsions:
REMARK  status: ('A' for Active; 'I' for Inactive)
REMARK    1  A    between atoms: C_1  and  C_2
REMARK    2  A    between atoms: C_2  and  C_3
REMARK    3  A    between atoms: C_3  and  C_4
REMARK    4  A    between atoms: C_4  and  C_5
REMARK    5  A    between atoms: C_5  and  C_6
REMARK    6  A    between atoms: C_6  and  C_7
REMARK    7  A    between atoms: C_8  and  C_9
REMARK    8  A    between atoms: C_14  and  O_15
REMARK                            x       y       z     vdW  Elec       q    Type
REMARK                         _______ _______ _______ _____ _____    ______ ____
ROOT
ATOM      1  C   UNL     1       5.570   4.625  19.069  0.00  0.00    +0.000 C 
ATOM      2  C   UNL     1       4.489   5.638  19.475  0.00  0.00    +0.000 C 
ATOM      3  C   UNL     1       3.372   4.732  19.776  0.00  0.00    +0.000 C 
ATOM      4  C   UNL     1       3.711   3.472  19.583  0.00  0.00    +0.000 C 
ATOM      5  O   UNL     1       5.017   3.284  19.146  0.00  0.00    +0.000 OA
ATOM      6  C   UNL     1       2.841   2.284  19.796  0.00  0.00    +0.000 C 
ATOM      7  C   UNL     1       1.405   2.609  20.237  0.00  0.00    +0.000 C 
ATOM      8  C   UNL     1       1.002   4.074  20.436  0.00  0.00    +0.000 C 
ATOM      9  C   UNL     1       2.046   5.138  20.212  0.00  0.00    +0.000 C 
ATOM     10  O   UNL     1       1.797   6.332  20.370  0.00  0.00    +0.000 OA
ENDROOT
BRANCH   1  12
ATOM     11  C   UNL     1       5.222   5.303  16.682  0.00  0.00    +0.000 C 
ATOM     12  C   UNL     1       6.023   4.861  17.661  0.00  0.00    +0.000 C 
BRANCH  11  13
ATOM     13  C   UNL     1       5.696   5.503  15.280  0.00  0.00    +0.000 C 
BRANCH  13  14
ATOM     14  C   UNL     1       6.041   4.159  14.655  0.00  0.00    +0.000 C 
BRANCH  14  15
ATOM     15  C   UNL     1       5.288   3.975  13.345  0.00  0.00    +0.000 C 
BRANCH  15  16
ATOM     16  C   UNL     1       6.166   3.262  12.325  0.00  0.00    +0.000 C 
BRANCH  16  18
ATOM     17  C   UNL     1       3.984   3.083  11.114  0.00  0.00    +0.000 C 
ATOM     18  C   UNL     1       5.320   2.416  11.381  0.00  0.00    +0.000 C 
ENDBRANCH  16  18
ENDBRANCH  15  16
ENDBRANCH  14  15
ENDBRANCH  13  14
ENDBRANCH  11  13
ENDBRANCH   1  12
BRANCH   6  19
ATOM     19  O   UNL     1       2.773   1.516  18.596  0.00  0.00    +0.000 OA
ATOM     20  H   UNL     1       1.836   1.400  18.371  0.00  0.00    +0.000 HD
ENDBRANCH   6  19
TORSDOF 7
ENDMDL
MODEL 4
REMARK VINA RESULT:      -7.2      1.626      2.421
REMARK  Name = 
REMARK  8 active torsions:
REMARK  status: ('A' for Active; 'I' for Inactive)
REMARK    1  A    between atoms: C_1  and  C_2
REMARK    2  A    between atoms: C_2  and  C_3
REMARK    3  A    between atoms: C_3  and  C_4
REMARK    4  A    between atoms: C_4  and  C_5
REMARK    5  A    between atoms: C_5  and  C_6
REMARK    6  A    between atoms: C_6  and  C_7
REMARK    7  A    between atoms: C_8  and  C_9
REMARK    8  A    between atoms: C_14  and  O_15
REMARK                            x       y       z     vdW  Elec       q    Type
REMARK                         _______ _______ _______ _____ _____    ______ ____
ROOT
ATOM      1  C   UNL     1       5.995   5.312  15.809  0.00  0.00    +0.000 C 
ATOM      2  C   UNL     1       4.984   6.433  16.092  0.00  0.00    +0.000 C 
ATOM      3  C   UNL     1       4.425   5.972  17.370  0.00  0.00    +0.000 C 
ATOM      4  C   UNL     1       4.972   4.833  17.751  0.00  0.00    +0.000 C 
ATOM      5  O   UNL     1       5.932   4.333  16.879  0.00  0.00    +0.000 OA
ATOM      6  C   UNL     1       4.659   4.080  18.995  0.00  0.00    +0.000 C 
ATOM      7  C   UNL     1       3.554   4.701  19.863  0.00  0.00    +0.000 C 
ATOM      8  C   UNL     1       2.898   6.009  19.409  0.00  0.00    +0.000 C 
ATOM      9  C   UNL     1       3.388   6.647  18.132  0.00  0.00    +0.000 C 
ATOM     10  O   UNL     1       2.918   7.705  17.717  0.00  0.00    +0.000 OA
ENDROOT
BRANCH   1  12
ATOM     11  C   UNL     1       6.602   4.125  13.687  0.00  0.00    +0.000 C 
ATOM     12  C   UNL     1       5.675   4.615  14.522  0.00  0.00    +0.000 C 
BRANCH  11  13
ATOM     13  C   UNL     1       6.254   3.459  12.396  0.00  0.00    +0.000 C 
BRANCH  13  14
ATOM     14  C   UNL     1       4.832   3.824  11.994  0.00  0.00    +0.000 C 
BRANCH  14  15
ATOM     15  C   UNL     1       4.260   2.769  11.056  0.00  0.00    +0.000 C 
BRANCH  15  16
ATOM     16  C   UNL     1       2.991   3.285  10.392  0.00  0.00    +0.000 C 
BRANCH  16  18
ATOM     17  C   UNL     1       2.040   5.070   8.920  0.00  0.00    +0.000 C 
ATOM     18  C   UNL     1       3.312   4.398   9.402  0.00  0.00    +0.000 C 
ENDBRANCH  16  18
ENDBRANCH  15  16
ENDBRANCH  14  15
ENDBRANCH  13  14
ENDBRANCH  11  13
ENDBRANCH   1  12
BRANCH   6  19
ATOM     19  O   UNL     1       4.269   2.748  18.665  0.00  0.00    +0.000 OA
ATOM     20  H   UNL     1       4.940   2.146  19.026  0.00  0.00    +0.000 HD
ENDBRANCH   6  19
TORSDOF 7
ENDMDL
MODEL 5
REMARK VINA RESULT:      -7.1      1.681      1.831
REMARK  Name = 
REMARK  8 active torsions:
REMARK  status: ('A' for Active; 'I' for Inactive)
REMARK    1  A    between atoms: C_1  and  C_2
REMARK    2  A    between atoms: C_2  and  C_3
REMARK    3  A    between atoms: C_3  and  C_4
REMARK    4  A    between atoms: C_4  and  C_5
REMARK    5  A    between atoms: C_5  and  C_6
REMARK    6  A    between atoms: C_6  and  C_7
REMARK    7  A    between atoms: C_8  and  C_9
REMARK    8  A    between atoms: C_14  and  O_15
REMARK                            x       y       z     vdW  Elec       q    Type
REMARK                         _______ _______ _______ _____ _____    ______ ____
ROOT
ATOM      1  C   UNL     1       5.521   5.091  17.646  0.00  0.00    +0.000 C 
ATOM      2  C   UNL     1       4.065   5.121  17.159  0.00  0.00    +0.000 C 
ATOM      3  C   UNL     1       3.450   4.173  18.098  0.00  0.00    +0.000 C 
ATOM      4  C   UNL     1       4.339   3.684  18.940  0.00  0.00    +0.000 C 
ATOM      5  O   UNL     1       5.632   4.163  18.757  0.00  0.00    +0.000 OA
ATOM      6  C   UNL     1       4.075   2.709  20.032  0.00  0.00    +0.000 C 
ATOM      7  C   UNL     1       2.623   2.215  20.116  0.00  0.00    +0.000 C 
ATOM      8  C   UNL     1       1.593   2.760  19.121  0.00  0.00    +0.000 C 
ATOM      9  C   UNL     1       2.049   3.783  18.111  0.00  0.00    +0.000 C 
ATOM     10  O   UNL     1       1.273   4.276  17.294  0.00  0.00    +0.000 OA
ENDROOT
BRANCH   1  12
ATOM     11  C   UNL     1       6.092   4.556  15.266  0.00  0.00    +0.000 C 
ATOM     12  C   UNL     1       6.440   4.626  16.558  0.00  0.00    +0.000 C 
BRANCH  11  13
ATOM     13  C   UNL     1       7.021   4.061  14.206  0.00  0.00    +0.000 C 
BRANCH  13  14
ATOM     14  C   UNL     1       6.477   4.424  12.831  0.00  0.00    +0.000 C 
BRANCH  14  15
ATOM     15  C   UNL     1       5.606   3.298  12.292  0.00  0.00    +0.000 C 
BRANCH  15  16
ATOM     16  C   UNL     1       4.256   3.842  11.845  0.00  0.00    +0.000 C 
BRANCH  16  18
ATOM     17  C   UNL     1       2.957   4.019   9.714  0.00  0.00    +0.000 C 
ATOM     18  C   UNL     1       3.751   3.093  10.617  0.00  0.00    +0.000 C 
ENDBRANCH  16  18
ENDBRANCH  15  16
ENDBRANCH  14  15
ENDBRANCH  13  14
ENDBRANCH  11  13
ENDBRANCH   1  12
BRANCH   6  19
ATOM     19  O   UNL     1       4.923   1.572  19.875  0.00  0.00    +0.000 OA
ATOM     20  H   UNL     1       4.356   0.800  19.713  0.00  0.00    +0.000 HD
ENDBRANCH   6  19
TORSDOF 7
ENDMDL
MODEL 6
REMARK VINA RESULT:      -7.0      3.310      6.430
REMARK  Name = 
REMARK  8 active torsions:
REMARK  status: ('A' for Active; 'I' for Inactive)
REMARK    1  A    between atoms: C_1  and  C_2
REMARK    2  A    between atoms: C_2  and  C_3
REMARK    3  A    between atoms: C_3  and  C_4
REMARK    4  A    between atoms: C_4  and  C_5
REMARK    5  A    between atoms: C_5  and  C_6
REMARK    6  A    between atoms: C_6  and  C_7
REMARK    7  A    between atoms: C_8  and  C_9
REMARK    8  A    between atoms: C_14  and  O_15
REMARK                            x       y       z     vdW  Elec       q    Type
REMARK                         _______ _______ _______ _____ _____    ______ ____
ROOT
ATOM      1  C   UNL     1       4.695   3.056  17.418  0.00  0.00    +0.000 C 
ATOM      2  C   UNL     1       4.470   4.249  16.477  0.00  0.00    +0.000 C 
ATOM      3  C   UNL     1       5.511   5.169  16.958  0.00  0.00    +0.000 C 
ATOM      4  C   UNL     1       6.190   4.645  17.960  0.00  0.00    +0.000 C 
ATOM      5  O   UNL     1       5.779   3.370  18.332  0.00  0.00    +0.000 OA
ATOM      6  C   UNL     1       7.321   5.283  18.686  0.00  0.00    +0.000 C 
ATOM      7  C   UNL     1       7.663   6.707  18.221  0.00  0.00    +0.000 C 
ATOM      8  C   UNL     1       6.858   7.328  17.075  0.00  0.00    +0.000 C 
ATOM      9  C   UNL     1       5.773   6.499  16.433  0.00  0.00    +0.000 C 
ATOM     10  O   UNL     1       5.100   6.928  15.498  0.00  0.00    +0.000 OA
ENDROOT
BRANCH   1  12
ATOM     11  C   UNL     1       2.219   2.964  17.785  0.00  0.00    +0.000 C 
ATOM     12  C   UNL     1       3.468   2.777  18.231  0.00  0.00    +0.000 C 
BRANCH  11  13
ATOM     13  C   UNL     1       1.013   2.703  18.628  0.00  0.00    +0.000 C 
BRANCH  13  14
ATOM     14  C   UNL     1       1.342   2.958  20.093  0.00  0.00    +0.000 C 
BRANCH  14  15
ATOM     15  C   UNL     1       1.013   4.397  20.466  0.00  0.00    +0.000 C 
BRANCH  15  16
ATOM     16  C   UNL     1       2.291   5.212  20.605  0.00  0.00    +0.000 C 
BRANCH  16  18
ATOM     17  C   UNL     1       2.762   6.760  18.697  0.00  0.00    +0.000 C 
ATOM     18  C   UNL     1       2.099   6.620  20.054  0.00  0.00    +0.000 C 
ENDBRANCH  16  18
ENDBRANCH  15  16
ENDBRANCH  14  15
ENDBRANCH  13  14
ENDBRANCH  11  13
ENDBRANCH   1  12
BRANCH   6  19
ATOM     19  O   UNL     1       7.030   5.329  20.082  0.00  0.00    +0.000 OA
ATOM     20  H   UNL     1       7.869   5.239  20.562  0.00  0.00    +0.000 HD
ENDBRANCH   6  19
TORSDOF 7
ENDMDL
MODEL 7
REMARK VINA RESULT:      -7.0      1.733      2.221
REMARK  Name = 
REMARK  8 active torsions:
REMARK  status: ('A' for Active; 'I' for Inactive)
REMARK    1  A    between atoms: C_1  and  C_2
REMARK    2  A    between atoms: C_2  and  C_3
REMARK    3  A    between atoms: C_3  and  C_4
REMARK    4  A    between atoms: C_4  and  C_5
REMARK    5  A    between atoms: C_5  and  C_6
REMARK    6  A    between atoms: C_6  and  C_7
REMARK    7  A    between atoms: C_8  and  C_9
REMARK    8  A    between atoms: C_14  and  O_15
REMARK                            x       y       z     vdW  Elec       q    Type
REMARK                         _______ _______ _______ _____ _____    ______ ____
ROOT
ATOM      1  C   UNL     1       6.155   5.258  18.027  0.00  0.00    +0.000 C 
ATOM      2  C   UNL     1       4.749   5.829  17.788  0.00  0.00    +0.000 C 
ATOM      3  C   UNL     1       3.934   4.846  18.514  0.00  0.00    +0.000 C 
ATOM      4  C   UNL     1       4.683   3.903  19.052  0.00  0.00    +0.000 C 
ATOM      5  O   UNL     1       6.047   4.044  18.817  0.00  0.00    +0.000 OA
ATOM      6  C   UNL     1       4.203   2.754  19.865  0.00  0.00    +0.000 C 
ATOM      7  C   UNL     1       2.677   2.672  20.026  0.00  0.00    +0.000 C 
ATOM      8  C   UNL     1       1.803   3.751  19.379  0.00  0.00    +0.000 C 
ATOM      9  C   UNL     1       2.485   4.868  18.629  0.00  0.00    +0.000 C 
ATOM     10  O   UNL     1       1.846   5.776  18.099  0.00  0.00    +0.000 OA
ENDROOT
BRANCH   1  12
ATOM     11  C   UNL     1       6.230   5.028  15.534  0.00  0.00    +0.000 C 
ATOM     12  C   UNL     1       6.820   4.911  16.731  0.00  0.00    +0.000 C 
BRANCH  11  13
ATOM     13  C   UNL     1       6.909   4.648  14.258  0.00  0.00    +0.000 C 
BRANCH  13  14
ATOM     14  C   UNL     1       6.244   3.413  13.667  0.00  0.00    +0.000 C 
BRANCH  14  15
ATOM     15  C   UNL     1       6.154   3.535  12.152  0.00  0.00    +0.000 C 
BRANCH  15  16
ATOM     16  C   UNL     1       5.533   2.279  11.557  0.00  0.00    +0.000 C 
BRANCH  16  18
ATOM     17  C   UNL     1       6.129  -0.134  11.271  0.00  0.00    +0.000 C 
ATOM     18  C   UNL     1       6.613   1.296  11.120  0.00  0.00    +0.000 C 
ENDBRANCH  16  18
ENDBRANCH  15  16
ENDBRANCH  14  15
ENDBRANCH  13  14
ENDBRANCH  11  13
ENDBRANCH   1  12
BRANCH   6  19
ATOM     19  O   UNL     1       4.654   1.532  19.283  0.00  0.00    +0.000 OA
ATOM     20  H   UNL     1       4.195   1.422  18.434  0.00  0.00    +0.000 HD
ENDBRANCH   6  19
TORSDOF 7
ENDMDL
MODEL 8
REMARK VINA RESULT:      -7.0      3.244      6.114
REMARK  Name = 
REMARK  8 active torsions:
REMARK  status: ('A' for Active; 'I' for Inactive)
REMARK    1  A    between atoms: C_1  and  C_2
REMARK    2  A    between atoms: C_2  and  C_3
REMARK    3  A    between atoms: C_3  and  C_4
REMARK    4  A    between atoms: C_4  and  C_5
REMARK    5  A    between atoms: C_5  and  C_6
REMARK    6  A    between atoms: C_6  and  C_7
REMARK    7  A    between atoms: C_8  and  C_9
REMARK    8  A    between atoms: C_14  and  O_15
REMARK                            x       y       z     vdW  Elec       q    Type
REMARK                         _______ _______ _______ _____ _____    ______ ____
ROOT
ATOM      1  C   UNL     1       3.273   6.270  18.502  0.00  0.00    +0.000 C 
ATOM      2  C   UNL     1       4.459   6.011  19.444  0.00  0.00    +0.000 C 
ATOM      3  C   UNL     1       5.472   5.560  18.480  0.00  0.00    +0.000 C 
ATOM      4  C   UNL     1       4.993   5.545  17.251  0.00  0.00    +0.000 C 
ATOM      5  O   UNL     1       3.667   5.948  17.142  0.00  0.00    +0.000 OA
ATOM      6  C   UNL     1       5.735   5.155  16.022  0.00  0.00    +0.000 C 
ATOM      7  C   UNL     1       7.178   4.686  16.263  0.00  0.00    +0.000 C 
ATOM      8  C   UNL     1       7.728   4.677  17.693  0.00  0.00    +0.000 C 
ATOM      9  C   UNL     1       6.829   5.155  18.806  0.00  0.00    +0.000 C 
ATOM     10  O   UNL     1       7.210   5.191  19.975  0.00  0.00    +0.000 OA
ENDROOT
BRANCH   1  12
ATOM     11  C   UNL     1       1.946   4.826  20.061  0.00  0.00    +0.000 C 
ATOM     12  C   UNL     1       2.104   5.407  18.864  0.00  0.00    +0.000 C 
BRANCH  11  13
ATOM     13  C   UNL     1       0.783   3.947  20.385  0.00  0.00    +0.000 C 
BRANCH  13  14
ATOM     14  C   UNL     1       0.561   2.948  19.258  0.00  0.00    +0.000 C 
BRANCH  14  15
ATOM     15  C   UNL     1       1.696   1.933  19.219  0.00  0.00    +0.000 C 
BRANCH  15  16
ATOM     16  C   UNL     1       2.428   2.011  17.886  0.00  0.00    +0.000 C 
BRANCH  16  18
ATOM     17  C   UNL     1       4.257   2.225  19.579  0.00  0.00    +0.000 C 
ATOM     18  C   UNL     1       3.933   2.115  18.101  0.00  0.00    +0.000 C 
ENDBRANCH  16  18
ENDBRANCH  15  16
ENDBRANCH  14  15
ENDBRANCH  13  14
ENDBRANCH  11  13
ENDBRANCH   1  12
BRANCH   6  19
ATOM     19  O   UNL     1       5.035   4.109  15.350  0.00  0.00    +0.000 OA
ATOM     20  H   UNL     1       4.142   4.061  15.728  0.00  0.00    +0.000 HD
ENDBRANCH   6  19
TORSDOF 7
ENDMDL
MODEL 9
REMARK VINA RESULT:      -7.0      1.715      2.124
REMARK  Name = 
REMARK  8 active torsions:
REMARK  status: ('A' for Active; 'I' for Inactive)
REMARK    1  A    between atoms: C_1  and  C_2
REMARK    2  A    between atoms: C_2  and  C_3
REMARK    3  A    between atoms: C_3  and  C_4
REMARK    4  A    between atoms: C_4  and  C_5
REMARK    5  A    between atoms: C_5  and  C_6
REMARK    6  A    between atoms: C_6  and  C_7
REMARK    7  A    between atoms: C_8  and  C_9
REMARK    8  A    between atoms: C_14  and  O_15
REMARK                            x       y       z     vdW  Elec       q    Type
REMARK                         _______ _______ _______ _____ _____    ______ ____
ROOT
ATOM      1  C   UNL     1       4.752   5.818  18.203  0.00  0.00    +0.000 C 
ATOM      2  C   UNL     1       3.364   5.626  17.575  0.00  0.00    +0.000 C 
ATOM      3  C   UNL     1       2.901   4.439  18.306  0.00  0.00    +0.000 C 
ATOM      4  C   UNL     1       3.810   4.018  19.164  0.00  0.00    +0.000 C 
ATOM      5  O   UNL     1       4.979   4.772  19.184  0.00  0.00    +0.000 OA
ATOM      6  C   UNL     1       3.684   2.853  20.080  0.00  0.00    +0.000 C 
ATOM      7  C   UNL     1       2.370   2.067  19.944  0.00  0.00    +0.000 C 
ATOM      8  C   UNL     1       1.324   2.538  18.929  0.00  0.00    +0.000 C 
ATOM      9  C   UNL     1       1.620   3.776  18.120  0.00  0.00    +0.000 C 
ATOM     10  O   UNL     1       0.819   4.221  17.300  0.00  0.00    +0.000 OA
ENDROOT
BRANCH   1  12
ATOM     11  C   UNL     1       5.616   5.316  15.905  0.00  0.00    +0.000 C 
ATOM     12  C   UNL     1       5.828   5.722  17.164  0.00  0.00    +0.000 C 
BRANCH  11  13
ATOM     13  C   UNL     1       6.714   5.204  14.898  0.00  0.00    +0.000 C 
BRANCH  13  14
ATOM     14  C   UNL     1       6.582   3.894  14.134  0.00  0.00    +0.000 C 
BRANCH  14  15
ATOM     15  C   UNL     1       6.367   4.166  12.651  0.00  0.00    +0.000 C 
BRANCH  15  16
ATOM     16  C   UNL     1       6.671   2.916  11.836  0.00  0.00    +0.000 C 
BRANCH  16  18
ATOM     17  C   UNL     1       4.236   3.173  11.322  0.00  0.00    +0.000 C 
ATOM     18  C   UNL     1       5.385   2.191  11.458  0.00  0.00    +0.000 C 
ENDBRANCH  16  18
ENDBRANCH  15  16
ENDBRANCH  14  15
ENDBRANCH  13  14
ENDBRANCH  11  13
ENDBRANCH   1  12
BRANCH   6  19
ATOM     19  O   UNL     1       4.766   1.950  19.861  0.00  0.00    +0.000 OA
ATOM     20  H   UNL     1       4.388   1.078  19.660  0.00  0.00    +0.000 HD
ENDBRANCH   6  19
TORSDOF 7
ENDMDL
