MODEL 1
REMARK VINA RESULT:      -7.9      0.000      0.000
REMARK  Name = 
REMARK  2 active torsions:
REMARK  status: ('A' for Active; 'I' for Inactive)
REMARK    1  A    between atoms: C_3  and  C_4
REMARK    2  A    between atoms: C_10  and  O_11
REMARK                            x       y       z     vdW  Elec       q    Type
REMARK                         _______ _______ _______ _____ _____    ______ ____
ROOT
ATOM      1  O   UNL     1       4.344   6.955  16.836  0.00  0.00    +0.000 OA
ATOM      2  C   UNL     1       3.975   5.958  17.462  0.00  0.00    +0.000 A 
ATOM      3  C   UNL     1       4.452   4.601  17.040  0.00  0.00    +0.000 A 
ATOM      4  C   UNL     1       4.061   3.511  17.728  0.00  0.00    +0.000 A 
ATOM      5  C   UNL     1       3.150   3.636  18.880  0.00  0.00    +0.000 A 
ATOM      6  C   UNL     1       2.725   2.501  19.586  0.00  0.00    +0.000 A 
ATOM      7  C   UNL     1       1.870   2.620  20.679  0.00  0.00    +0.000 A 
ATOM      8  C   UNL     1       1.437   3.881  21.076  0.00  0.00    +0.000 A 
ATOM      9  C   UNL     1       1.850   5.034  20.385  0.00  0.00    +0.000 A 
ATOM     10  C   UNL     1       2.705   4.910  19.283  0.00  0.00    +0.000 A 
ATOM     11  N   UNL     1       3.132   6.047  18.563  0.00  0.00    +0.000 N 
ATOM     12  C   UNL     1       2.723   7.383  18.939  0.00  0.00    +0.000 C 
ATOM     13  C   UNL     1       1.784   7.580  20.114  0.00  0.00    +0.000 C 
ATOM     14  C   UNL     1       1.356   6.353  20.890  0.00  0.00    +0.000 C 
ENDROOT
BRANCH   3  15
ATOM     15  C   UNL     1       5.354   4.514  15.876  0.00  0.00    +0.000 A 
ATOM     16  C   UNL     1       4.873   4.075  14.637  0.00  0.00    +0.000 A 
ATOM     17  C   UNL     1       5.710   4.069  13.520  0.00  0.00    +0.000 A 
ATOM     18  C   UNL     1       7.035   4.489  13.638  0.00  0.00    +0.000 A 
ATOM     19  C   UNL     1       7.526   4.906  14.874  0.00  0.00    +0.000 A 
ATOM     20  C   UNL     1       6.691   4.918  15.991  0.00  0.00    +0.000 A 
ENDBRANCH   3  15
BRANCH   4  21
ATOM     21  O   UNL     1       4.472   2.222  17.436  0.00  0.00    +0.000 OA
ATOM     22  H   UNL     1       4.914   1.847  18.218  0.00  0.00    +0.000 HD
ENDBRANCH   4  21
TORSDOF 2
ENDMDL
MODEL 2
REMARK VINA RESULT:      -7.9      0.096      1.059
REMARK  Name = 
REMARK  2 active torsions:
REMARK  status: ('A' for Active; 'I' for Inactive)
REMARK    1  A    between atoms: C_3  and  C_4
REMARK    2  A    between atoms: C_10  and  O_11
REMARK                            x       y       z     vdW  Elec       q    Type
REMARK                         _______ _______ _______ _____ _____    ______ ____
ROOT
ATOM      1  O   UNL     1       4.256   7.059  16.902  0.00  0.00    +0.000 OA
ATOM      2  C   UNL     1       3.916   6.043  17.511  0.00  0.00    +0.000 A 
ATOM      3  C   UNL     1       4.421   4.705  17.060  0.00  0.00    +0.000 A 
ATOM      4  C   UNL     1       4.061   3.593  17.729  0.00  0.00    +0.000 A 
ATOM      5  C   UNL     1       3.157   3.675  18.891  0.00  0.00    +0.000 A 
ATOM      6  C   UNL     1       2.765   2.517  19.578  0.00  0.00    +0.000 A 
ATOM      7  C   UNL     1       1.917   2.595  20.680  0.00  0.00    +0.000 A 
ATOM      8  C   UNL     1       1.458   3.837  21.104  0.00  0.00    +0.000 A 
ATOM      9  C   UNL     1       1.838   5.013  20.433  0.00  0.00    +0.000 A 
ATOM     10  C   UNL     1       2.686   4.930  19.322  0.00  0.00    +0.000 A 
ATOM     11  N   UNL     1       3.080   6.091  18.621  0.00  0.00    +0.000 N 
ATOM     12  C   UNL     1       2.643   7.409  19.025  0.00  0.00    +0.000 C 
ATOM     13  C   UNL     1       1.710   7.561  20.212  0.00  0.00    +0.000 C 
ATOM     14  C   UNL     1       1.318   6.310  20.968  0.00  0.00    +0.000 C 
ENDROOT
BRANCH   3  15
ATOM     15  C   UNL     1       5.315   4.662  15.887  0.00  0.00    +0.000 A 
ATOM     16  C   UNL     1       6.660   5.033  16.007  0.00  0.00    +0.000 A 
ATOM     17  C   UNL     1       7.521   4.915  14.913  0.00  0.00    +0.000 A 
ATOM     18  C   UNL     1       7.040   4.439  13.694  0.00  0.00    +0.000 A 
ATOM     19  C   UNL     1       5.697   4.090  13.563  0.00  0.00    +0.000 A 
ATOM     20  C   UNL     1       4.835   4.201  14.654  0.00  0.00    +0.000 A 
ENDBRANCH   3  15
BRANCH   4  21
ATOM     21  O   UNL     1       4.500   2.320  17.410  0.00  0.00    +0.000 OA
ATOM     22  H   UNL     1       5.434   2.233  17.670  0.00  0.00    +0.000 HD
ENDBRANCH   4  21
TORSDOF 2
ENDMDL
MODEL 3
REMARK VINA RESULT:      -7.6      0.628      2.931
REMARK  Name = 
REMARK  2 active torsions:
REMARK  status: ('A' for Active; 'I' for Inactive)
REMARK    1  A    between atoms: C_3  and  C_4
REMARK    2  A    between atoms: C_10  and  O_11
REMARK                            x       y       z     vdW  Elec       q    Type
REMARK                         _______ _______ _______ _____ _____    ______ ____
ROOT
ATOM      1  O   UNL     1       4.349   2.411  17.339  0.00  0.00    +0.000 OA
ATOM      2  C   UNL     1       3.961   3.508  17.747  0.00  0.00    +0.000 A 
ATOM      3  C   UNL     1       4.417   4.758  17.055  0.00  0.00    +0.000 A 
ATOM      4  C   UNL     1       3.987   5.958  17.490  0.00  0.00    +0.000 A 
ATOM      5  C   UNL     1       3.090   6.058  18.655  0.00  0.00    +0.000 A 
ATOM      6  C   UNL     1       2.656   7.307  19.123  0.00  0.00    +0.000 A 
ATOM      7  C   UNL     1       1.802   7.400  20.219  0.00  0.00    +0.000 A 
ATOM      8  C   UNL     1       1.372   6.240  20.853  0.00  0.00    +0.000 A 
ATOM      9  C   UNL     1       1.791   4.975  20.402  0.00  0.00    +0.000 A 
ATOM     10  C   UNL     1       2.654   4.886  19.304  0.00  0.00    +0.000 A 
ATOM     11  N   UNL     1       3.101   3.632  18.831  0.00  0.00    +0.000 N 
ATOM     12  C   UNL     1       2.675   2.392  19.445  0.00  0.00    +0.000 C 
ATOM     13  C   UNL     1       1.753   2.427  20.649  0.00  0.00    +0.000 C 
ATOM     14  C   UNL     1       1.265   3.777  21.127  0.00  0.00    +0.000 C 
ENDROOT
BRANCH   3  15
ATOM     15  C   UNL     1       5.323   4.619  15.899  0.00  0.00    +0.000 A 
ATOM     16  C   UNL     1       4.832   4.187  14.661  0.00  0.00    +0.000 A 
ATOM     17  C   UNL     1       5.678   4.132  13.551  0.00  0.00    +0.000 A 
ATOM     18  C   UNL     1       7.018   4.497  13.675  0.00  0.00    +0.000 A 
ATOM     19  C   UNL     1       7.517   4.906  14.911  0.00  0.00    +0.000 A 
ATOM     20  C   UNL     1       6.675   4.967  16.021  0.00  0.00    +0.000 A 
ENDBRANCH   3  15
BRANCH   4  21
ATOM     21  O   UNL     1       4.325   7.163  16.899  0.00  0.00    +0.000 OA
ATOM     22  H   UNL     1       4.450   7.832  17.595  0.00  0.00    +0.000 HD
ENDBRANCH   4  21
TORSDOF 2
ENDMDL
MODEL 4
REMARK VINA RESULT:      -7.5      0.632      3.117
REMARK  Name = 
REMARK  2 active torsions:
REMARK  status: ('A' for Active; 'I' for Inactive)
REMARK    1  A    between atoms: C_3  and  C_4
REMARK    2  A    between atoms: C_10  and  O_11
REMARK                            x       y       z     vdW  Elec       q    Type
REMARK                         _______ _______ _______ _____ _____    ______ ____
ROOT
ATOM      1  O   UNL     1       4.385   2.522  17.324  0.00  0.00    +0.000 OA
ATOM      2  C   UNL     1       3.973   3.604  17.748  0.00  0.00    +0.000 A 
ATOM      3  C   UNL     1       4.397   4.874  17.072  0.00  0.00    +0.000 A 
ATOM      4  C   UNL     1       3.940   6.058  17.525  0.00  0.00    +0.000 A 
ATOM      5  C   UNL     1       3.042   6.120  18.692  0.00  0.00    +0.000 A 
ATOM      6  C   UNL     1       2.580   7.352  19.178  0.00  0.00    +0.000 A 
ATOM      7  C   UNL     1       1.725   7.410  20.276  0.00  0.00    +0.000 A 
ATOM      8  C   UNL     1       1.324   6.231  20.894  0.00  0.00    +0.000 A 
ATOM      9  C   UNL     1       1.772   4.983  20.425  0.00  0.00    +0.000 A 
ATOM     10  C   UNL     1       2.635   4.929  19.325  0.00  0.00    +0.000 A 
ATOM     11  N   UNL     1       3.110   3.693  18.834  0.00  0.00    +0.000 N 
ATOM     12  C   UNL     1       2.715   2.435  19.431  0.00  0.00    +0.000 C 
ATOM     13  C   UNL     1       1.794   2.431  20.636  0.00  0.00    +0.000 C 
ATOM     14  C   UNL     1       1.275   3.762  21.134  0.00  0.00    +0.000 C 
ENDROOT
BRANCH   3  15
ATOM     15  C   UNL     1       5.305   4.773  15.915  0.00  0.00    +0.000 A 
ATOM     16  C   UNL     1       6.668   5.064  16.055  0.00  0.00    +0.000 A 
ATOM     17  C   UNL     1       7.537   4.892  14.976  0.00  0.00    +0.000 A 
ATOM     18  C   UNL     1       7.048   4.440  13.750  0.00  0.00    +0.000 A 
ATOM     19  C   UNL     1       5.689   4.171  13.599  0.00  0.00    +0.000 A 
ATOM     20  C   UNL     1       4.818   4.337  14.676  0.00  0.00    +0.000 A 
ENDBRANCH   3  15
BRANCH   4  21
ATOM     21  O   UNL     1       4.249   7.278  16.951  0.00  0.00    +0.000 OA
ATOM     22  H   UNL     1       3.982   7.264  16.015  0.00  0.00    +0.000 HD
ENDBRANCH   4  21
TORSDOF 2
ENDMDL
MODEL 5
REMARK VINA RESULT:      -7.2      1.140      1.533
REMARK  Name = 
REMARK  2 active torsions:
REMARK  status: ('A' for Active; 'I' for Inactive)
REMARK    1  A    between atoms: C_3  and  C_4
REMARK    2  A    between atoms: C_10  and  O_11
REMARK                            x       y       z     vdW  Elec       q    Type
REMARK                         _______ _______ _______ _____ _____    ______ ____
ROOT
ATOM      1  O   UNL     1       4.875   7.067  15.309  0.00  0.00    +0.000 OA
ATOM      2  C   UNL     1       4.652   6.141  16.092  0.00  0.00    +0.000 A 
ATOM      3  C   UNL     1       5.185   4.772  15.792  0.00  0.00    +0.000 A 
ATOM      4  C   UNL     1       4.952   3.760  16.650  0.00  0.00    +0.000 A 
ATOM      5  C   UNL     1       4.159   3.979  17.873  0.00  0.00    +0.000 A 
ATOM      6  C   UNL     1       3.898   2.923  18.759  0.00  0.00    +0.000 A 
ATOM      7  C   UNL     1       3.156   3.133  19.918  0.00  0.00    +0.000 A 
ATOM      8  C   UNL     1       2.671   4.405  20.201  0.00  0.00    +0.000 A 
ATOM      9  C   UNL     1       2.920   5.481  19.330  0.00  0.00    +0.000 A 
ATOM     10  C   UNL     1       3.662   5.265  18.162  0.00  0.00    +0.000 A 
ATOM     11  N   UNL     1       3.923   6.322  17.262  0.00  0.00    +0.000 N 
ATOM     12  C   UNL     1       3.454   7.667  17.512  0.00  0.00    +0.000 C 
ATOM     13  C   UNL     1       2.631   7.959  18.753  0.00  0.00    +0.000 C 
ATOM     14  C   UNL     1       2.382   6.821  19.719  0.00  0.00    +0.000 C 
ENDROOT
BRANCH   3  15
ATOM     15  C   UNL     1       5.965   4.588  14.554  0.00  0.00    +0.000 A 
ATOM     16  C   UNL     1       5.436   3.853  13.485  0.00  0.00    +0.000 A 
ATOM     17  C   UNL     1       6.145   3.748  12.287  0.00  0.00    +0.000 A 
ATOM     18  C   UNL     1       7.388   4.366  12.153  0.00  0.00    +0.000 A 
ATOM     19  C   UNL     1       7.929   5.080  13.221  0.00  0.00    +0.000 A 
ATOM     20  C   UNL     1       7.222   5.192  14.418  0.00  0.00    +0.000 A 
ENDBRANCH   3  15
BRANCH   4  21
ATOM     21  O   UNL     1       5.428   2.473  16.477  0.00  0.00    +0.000 OA
ATOM     22  H   UNL     1       5.872   2.413  15.612  0.00  0.00    +0.000 HD
ENDBRANCH   4  21
TORSDOF 2
ENDMDL
MODEL 6
REMARK VINA RESULT:      -7.2      2.915      5.156
REMARK  Name = 
REMARK  2 active torsions:
REMARK  status: ('A' for Active; 'I' for Inactive)
REMARK    1  A    between atoms: C_3  and  C_4
REMARK    2  A    between atoms: C_10  and  O_11
REMARK                            x       y       z     vdW  Elec       q    Type
REMARK                         _______ _______ _______ _____ _____    ______ ____
ROOT
ATOM      1  O   UNL     1       2.577   8.601  17.165  0.00  0.00    +0.000 OA
ATOM      2  C   UNL     1       2.124   8.555  18.311  0.00  0.00    +0.000 A 
ATOM      3  C   UNL     1       2.227   7.283  19.098  0.00  0.00    +0.000 A 
ATOM      4  C   UNL     1       1.743   7.232  20.354  0.00  0.00    +0.000 A 
ATOM      5  C   UNL     1       1.093   8.409  20.957  0.00  0.00    +0.000 A 
ATOM      6  C   UNL     1       0.570   8.354  22.258  0.00  0.00    +0.000 A 
ATOM      7  C   UNL     1      -0.037   9.469  22.830  0.00  0.00    +0.000 A 
ATOM      8  C   UNL     1      -0.122  10.651  22.103  0.00  0.00    +0.000 A 
ATOM      9  C   UNL     1       0.395  10.733  20.798  0.00  0.00    +0.000 A 
ATOM     10  C   UNL     1       1.000   9.609  20.224  0.00  0.00    +0.000 A 
ATOM     11  N   UNL     1       1.522   9.655  18.913  0.00  0.00    +0.000 N 
ATOM     12  C   UNL     1       1.472  10.861  18.116  0.00  0.00    +0.000 C 
ATOM     13  C   UNL     1       0.814  12.107  18.679  0.00  0.00    +0.000 C 
ATOM     14  C   UNL     1       0.282  12.048  20.094  0.00  0.00    +0.000 C 
ENDROOT
BRANCH   3  15
ATOM     15  C   UNL     1       2.874   6.123  18.457  0.00  0.00    +0.000 A 
ATOM     16  C   UNL     1       4.270   6.026  18.411  0.00  0.00    +0.000 A 
ATOM     17  C   UNL     1       4.878   4.889  17.874  0.00  0.00    +0.000 A 
ATOM     18  C   UNL     1       4.095   3.850  17.370  0.00  0.00    +0.000 A 
ATOM     19  C   UNL     1       2.705   3.952  17.393  0.00  0.00    +0.000 A 
ATOM     20  C   UNL     1       2.094   5.084  17.934  0.00  0.00    +0.000 A 
ENDBRANCH   3  15
BRANCH   4  21
ATOM     21  O   UNL     1       1.819   6.117  21.169  0.00  0.00    +0.000 OA
ATOM     22  H   UNL     1       2.536   6.245  21.815  0.00  0.00    +0.000 HD
ENDBRANCH   4  21
TORSDOF 2
ENDMDL
MODEL 7
REMARK VINA RESULT:      -7.1      2.935      5.095
REMARK  Name = 
REMARK  2 active torsions:
REMARK  status: ('A' for Active; 'I' for Inactive)
REMARK    1  A    between atoms: C_3  and  C_4
REMARK    2  A    between atoms: C_10  and  O_11
REMARK                            x       y       z     vdW  Elec       q    Type
REMARK                         _______ _______ _______ _____ _____    ______ ____
ROOT
ATOM      1  O   UNL     1       2.521   8.692  17.157  0.00  0.00    +0.000 OA
ATOM      2  C   UNL     1       2.081   8.643  18.307  0.00  0.00    +0.000 A 
ATOM      3  C   UNL     1       2.208   7.374  19.096  0.00  0.00    +0.000 A 
ATOM      4  C   UNL     1       1.738   7.320  20.357  0.00  0.00    +0.000 A 
ATOM      5  C   UNL     1       1.081   8.491  20.965  0.00  0.00    +0.000 A 
ATOM      6  C   UNL     1       0.573   8.432  22.271  0.00  0.00    +0.000 A 
ATOM      7  C   UNL     1      -0.041   9.541  22.848  0.00  0.00    +0.000 A 
ATOM      8  C   UNL     1      -0.148  10.721  22.120  0.00  0.00    +0.000 A 
ATOM      9  C   UNL     1       0.355  10.806  20.809  0.00  0.00    +0.000 A 
ATOM     10  C   UNL     1       0.966   9.687  20.230  0.00  0.00    +0.000 A 
ATOM     11  N   UNL     1       1.473   9.737  18.913  0.00  0.00    +0.000 N 
ATOM     12  C   UNL     1       1.401  10.941  18.115  0.00  0.00    +0.000 C 
ATOM     13  C   UNL     1       0.735  12.180  18.682  0.00  0.00    +0.000 C 
ATOM     14  C   UNL     1       0.219  12.118  20.103  0.00  0.00    +0.000 C 
ENDROOT
BRANCH   3  15
ATOM     15  C   UNL     1       2.862   6.220  18.450  0.00  0.00    +0.000 A 
ATOM     16  C   UNL     1       2.101   5.133  18.002  0.00  0.00    +0.000 A 
ATOM     17  C   UNL     1       2.714   4.079  17.322  0.00  0.00    +0.000 A 
ATOM     18  C   UNL     1       4.091   4.100  17.098  0.00  0.00    +0.000 A 
ATOM     19  C   UNL     1       4.856   5.168  17.562  0.00  0.00    +0.000 A 
ATOM     20  C   UNL     1       4.246   6.225  18.237  0.00  0.00    +0.000 A 
ENDBRANCH   3  15
BRANCH   4  21
ATOM     21  O   UNL     1       1.836   6.207  21.173  0.00  0.00    +0.000 OA
ATOM     22  H   UNL     1       2.029   6.498  22.082  0.00  0.00    +0.000 HD
ENDBRANCH   4  21
TORSDOF 2
ENDMDL
MODEL 8
REMARK VINA RESULT:      -7.0      1.101      1.766
REMARK  Name = 
REMARK  2 active torsions:
REMARK  status: ('A' for Active; 'I' for Inactive)
REMARK    1  A    between atoms: C_3  and  C_4
REMARK    2  A    between atoms: C_10  and  O_11
REMARK                            x       y       z     vdW  Elec       q    Type
REMARK                         _______ _______ _______ _____ _____    ______ ____
ROOT
ATOM      1  O   UNL     1       4.800   7.087  15.446  0.00  0.00    +0.000 OA
ATOM      2  C   UNL     1       4.579   6.132  16.193  0.00  0.00    +0.000 A 
ATOM      3  C   UNL     1       5.101   4.773  15.834  0.00  0.00    +0.000 A 
ATOM      4  C   UNL     1       4.870   3.729  16.654  0.00  0.00    +0.000 A 
ATOM      5  C   UNL     1       4.090   3.904  17.892  0.00  0.00    +0.000 A 
ATOM      6  C   UNL     1       3.832   2.815  18.739  0.00  0.00    +0.000 A 
ATOM      7  C   UNL     1       3.101   2.983  19.912  0.00  0.00    +0.000 A 
ATOM      8  C   UNL     1       2.627   4.246  20.249  0.00  0.00    +0.000 A 
ATOM      9  C   UNL     1       2.874   5.354  19.419  0.00  0.00    +0.000 A 
ATOM     10  C   UNL     1       3.604   5.181  18.237  0.00  0.00    +0.000 A 
ATOM     11  N   UNL     1       3.862   6.270  17.377  0.00  0.00    +0.000 N 
ATOM     12  C   UNL     1       3.403   7.608  17.684  0.00  0.00    +0.000 C 
ATOM     13  C   UNL     1       2.594   7.854  18.943  0.00  0.00    +0.000 C 
ATOM     14  C   UNL     1       2.347   6.680  19.866  0.00  0.00    +0.000 C 
ENDROOT
BRANCH   3  15
ATOM     15  C   UNL     1       5.868   4.634  14.582  0.00  0.00    +0.000 A 
ATOM     16  C   UNL     1       7.131   5.226  14.454  0.00  0.00    +0.000 A 
ATOM     17  C   UNL     1       7.886   5.027  13.297  0.00  0.00    +0.000 A 
ATOM     18  C   UNL     1       7.380   4.246  12.258  0.00  0.00    +0.000 A 
ATOM     19  C   UNL     1       6.114   3.673  12.371  0.00  0.00    +0.000 A 
ATOM     20  C   UNL     1       5.358   3.866  13.527  0.00  0.00    +0.000 A 
ENDBRANCH   3  15
BRANCH   4  21
ATOM     21  O   UNL     1       5.337   2.447  16.426  0.00  0.00    +0.000 OA
ATOM     22  H   UNL     1       5.942   2.197  17.147  0.00  0.00    +0.000 HD
ENDBRANCH   4  21
TORSDOF 2
ENDMDL
MODEL 9
REMARK VINA RESULT:      -6.9      1.192      3.268
REMARK  Name = 
REMARK  2 active torsions:
REMARK  status: ('A' for Active; 'I' for Inactive)
REMARK    1  A    between atoms: C_3  and  C_4
REMARK    2  A    between atoms: C_10  and  O_11
REMARK                            x       y       z     vdW  Elec       q    Type
REMARK                         _______ _______ _______ _____ _____    ______ ____
ROOT
ATOM      1  O   UNL     1       5.277   2.619  16.466  0.00  0.00    +0.000 OA
ATOM      2  C   UNL     1       4.847   3.743  16.734  0.00  0.00    +0.000 A 
ATOM      3  C   UNL     1       5.115   4.881  15.796  0.00  0.00    +0.000 A 
ATOM      4  C   UNL     1       4.637   6.109  16.079  0.00  0.00    +0.000 A 
ATOM      5  C   UNL     1       3.871   6.350  17.315  0.00  0.00    +0.000 A 
ATOM      6  C   UNL     1       3.389   7.631  17.623  0.00  0.00    +0.000 A 
ATOM      7  C   UNL     1       2.658   7.857  18.787  0.00  0.00    +0.000 A 
ATOM      8  C   UNL     1       2.402   6.798  19.651  0.00  0.00    +0.000 A 
ATOM      9  C   UNL     1       2.872   5.504  19.364  0.00  0.00    +0.000 A 
ATOM     10  C   UNL     1       3.611   5.282  18.196  0.00  0.00    +0.000 A 
ATOM     11  N   UNL     1       4.106   3.997  17.883  0.00  0.00    +0.000 N 
ATOM     12  C   UNL     1       3.858   2.857  18.739  0.00  0.00    +0.000 C 
ATOM     13  C   UNL     1       3.077   3.039  20.026  0.00  0.00    +0.000 C 
ATOM     14  C   UNL     1       2.533   4.417  20.335  0.00  0.00    +0.000 C 
ENDROOT
BRANCH   3  15
ATOM     15  C   UNL     1       5.894   4.604  14.575  0.00  0.00    +0.000 A 
ATOM     16  C   UNL     1       5.350   3.822  13.548  0.00  0.00    +0.000 A 
ATOM     17  C   UNL     1       6.060   3.628  12.362  0.00  0.00    +0.000 A 
ATOM     18  C   UNL     1       7.321   4.202  12.200  0.00  0.00    +0.000 A 
ATOM     19  C   UNL     1       7.877   4.962  13.228  0.00  0.00    +0.000 A 
ATOM     20  C   UNL     1       7.168   5.163  14.412  0.00  0.00    +0.000 A 
ENDBRANCH   3  15
BRANCH   4  21
ATOM     21  O   UNL     1       4.804   7.213  15.262  0.00  0.00    +0.000 OA
ATOM     22  H   UNL     1       5.226   6.930  14.431  0.00  0.00    +0.000 HD
ENDBRANCH   4  21
TORSDOF 2
ENDMDL
