MODEL 1
REMARK VINA RESULT:      -7.3      0.000      0.000
REMARK  Name = 
REMARK  3 active torsions:
REMARK  status: ('A' for Active; 'I' for Inactive)
REMARK    1  A    between atoms: C_1  and  N_2
REMARK    2  A    between atoms: N_2  and  C_3
REMARK    3  A    between atoms: N_11  and  C_12
REMARK                            x       y       z     vdW  Elec       q    Type
REMARK                         _______ _______ _______ _____ _____    ______ ____
ROOT
ATOM      1  C   UNL     1       6.729   4.047  11.911  0.00  0.00    +0.000 C 
ATOM      2  N   UNL     1       7.424   4.808  12.933  0.00  0.00    +0.000 N 
ATOM      3  C   UNL     1       8.385   5.820  12.538  0.00  0.00    +0.000 C 
ATOM      4  C   UNL     1       7.037   4.626  14.251  0.00  0.00    +0.000 A 
ATOM      5  C   UNL     1       7.570   5.394  15.285  0.00  0.00    +0.000 A 
ATOM      6  C   UNL     1       7.150   5.241  16.594  0.00  0.00    +0.000 A 
ATOM      7  N   UNL     1       7.674   6.039  17.531  0.00  0.00    +0.000 NA
ATOM      8  C   UNL     1       7.205   5.899  18.774  0.00  0.00    +0.000 A 
ATOM      9  N   UNL     1       6.268   5.031  19.165  0.00  0.00    +0.000 NA
ATOM     10  C   UNL     1       5.752   4.227  18.216  0.00  0.00    +0.000 A 
ATOM     11  N   UNL     1       4.753   3.298  18.604  0.00  0.00    +0.000 N 
ATOM     12  C   UNL     1       6.185   4.286  16.883  0.00  0.00    +0.000 A 
ATOM     13  C   UNL     1       5.703   3.530  15.811  0.00  0.00    +0.000 A 
ATOM     14  N   UNL     1       6.113   3.683  14.530  0.00  0.00    +0.000 NA
ATOM     15  H   UNL     1       5.149   2.364  18.635  0.00  0.00    +0.000 HD
ENDROOT
BRANCH  11  16
ATOM     16  C   UNL     1       3.802   3.530  19.627  0.00  0.00    +0.000 A 
ATOM     17  C   UNL     1       3.400   2.492  20.477  0.00  0.00    +0.000 A 
ATOM     18  C   UNL     1       2.410   2.703  21.444  0.00  0.00    +0.000 A 
ATOM     19  C   UNL     1       1.788   3.946  21.552  0.00  0.00    +0.000 A 
ATOM     20  C   UNL     1       2.160   4.973  20.695  0.00  0.00    +0.000 A 
ATOM     21 BR   UNL     1       1.304   6.656  20.806  0.00  0.00    +0.000 Br
ATOM     22  C   UNL     1       3.153   4.770  19.736  0.00  0.00    +0.000 A 
ENDBRANCH  11  16
TORSDOF 1
ENDMDL
MODEL 2
REMARK VINA RESULT:      -7.2      3.039      7.335
REMARK  Name = 
REMARK  3 active torsions:
REMARK  status: ('A' for Active; 'I' for Inactive)
REMARK    1  A    between atoms: C_1  and  N_2
REMARK    2  A    between atoms: N_2  and  C_3
REMARK    3  A    between atoms: N_11  and  C_12
REMARK                            x       y       z     vdW  Elec       q    Type
REMARK                         _______ _______ _______ _____ _____    ______ ____
ROOT
ATOM      1  C   UNL     1       0.597   2.770  19.975  0.00  0.00    +0.000 C 
ATOM      2  N   UNL     1       1.945   3.116  20.389  0.00  0.00    +0.000 N 
ATOM      3  C   UNL     1       2.355   2.868  21.758  0.00  0.00    +0.000 C 
ATOM      4  C   UNL     1       2.831   3.547  19.416  0.00  0.00    +0.000 A 
ATOM      5  C   UNL     1       4.173   3.793  19.701  0.00  0.00    +0.000 A 
ATOM      6  C   UNL     1       5.066   4.180  18.719  0.00  0.00    +0.000 A 
ATOM      7  N   UNL     1       6.349   4.360  19.054  0.00  0.00    +0.000 NA
ATOM      8  C   UNL     1       7.191   4.681  18.068  0.00  0.00    +0.000 A 
ATOM      9  N   UNL     1       6.867   4.845  16.783  0.00  0.00    +0.000 NA
ATOM     10  C   UNL     1       5.573   4.670  16.456  0.00  0.00    +0.000 A 
ATOM     11  N   UNL     1       5.202   4.835  15.097  0.00  0.00    +0.000 N 
ATOM     12  C   UNL     1       4.606   4.343  17.418  0.00  0.00    +0.000 A 
ATOM     13  C   UNL     1       3.248   4.104  17.195  0.00  0.00    +0.000 A 
ATOM     14  N   UNL     1       2.376   3.722  18.157  0.00  0.00    +0.000 NA
ATOM     15  H   UNL     1       4.713   5.716  14.982  0.00  0.00    +0.000 HD
ENDROOT
BRANCH  11  16
ATOM     16  C   UNL     1       6.038   4.518  13.999  0.00  0.00    +0.000 A 
ATOM     17  C   UNL     1       7.057   5.394  13.602  0.00  0.00    +0.000 A 
ATOM     18  C   UNL     1       7.840   5.116  12.474  0.00  0.00    +0.000 A 
ATOM     19  C   UNL     1       7.593   3.974  11.713  0.00  0.00    +0.000 A 
ATOM     20  C   UNL     1       6.566   3.114  12.083  0.00  0.00    +0.000 A 
ATOM     21 BR   UNL     1       6.197   1.578  11.044  0.00  0.00    +0.000 Br
ATOM     22  C   UNL     1       5.790   3.383  13.211  0.00  0.00    +0.000 A 
ENDBRANCH  11  16
TORSDOF 1
ENDMDL
MODEL 3
REMARK VINA RESULT:      -7.0      4.991      7.506
REMARK  Name = 
REMARK  3 active torsions:
REMARK  status: ('A' for Active; 'I' for Inactive)
REMARK    1  A    between atoms: C_1  and  N_2
REMARK    2  A    between atoms: N_2  and  C_3
REMARK    3  A    between atoms: N_11  and  C_12
REMARK                            x       y       z     vdW  Elec       q    Type
REMARK                         _______ _______ _______ _____ _____    ______ ____
ROOT
ATOM      1  C   UNL     1       2.201   2.547  21.618  0.00  0.00    +0.000 C 
ATOM      2  N   UNL     1       3.001   3.131  20.556  0.00  0.00    +0.000 N 
ATOM      3  C   UNL     1       3.911   2.289  19.805  0.00  0.00    +0.000 C 
ATOM      4  C   UNL     1       2.758   4.451  20.214  0.00  0.00    +0.000 A 
ATOM      5  C   UNL     1       3.397   5.060  19.135  0.00  0.00    +0.000 A 
ATOM      6  C   UNL     1       3.121   6.365  18.768  0.00  0.00    +0.000 A 
ATOM      7  N   UNL     1       3.740   6.874  17.698  0.00  0.00    +0.000 NA
ATOM      8  C   UNL     1       3.408   8.117  17.342  0.00  0.00    +0.000 A 
ATOM      9  N   UNL     1       2.520   8.898  17.963  0.00  0.00    +0.000 NA
ATOM     10  C   UNL     1       1.906   8.381  19.043  0.00  0.00    +0.000 A 
ATOM     11  N   UNL     1       0.956   9.188  19.719  0.00  0.00    +0.000 N 
ATOM     12  C   UNL     1       2.193   7.088  19.507  0.00  0.00    +0.000 A 
ATOM     13  C   UNL     1       1.600   6.435  20.590  0.00  0.00    +0.000 A 
ATOM     14  N   UNL     1       1.870   5.157  20.946  0.00  0.00    +0.000 NA
ATOM     15  H   UNL     1       1.355   9.530  20.587  0.00  0.00    +0.000 HD
ENDROOT
BRANCH  11  16
ATOM     16  C   UNL     1       0.120  10.137  19.082  0.00  0.00    +0.000 A 
ATOM     17  C   UNL     1       0.081  11.465  19.525  0.00  0.00    +0.000 A 
ATOM     18  C   UNL     1      -0.796  12.388  18.941  0.00  0.00    +0.000 A 
ATOM     19  C   UNL     1      -1.665  11.987  17.928  0.00  0.00    +0.000 A 
ATOM     20  C   UNL     1      -1.653  10.665  17.501  0.00  0.00    +0.000 A 
ATOM     21 BR   UNL     1      -2.848  10.096  16.151  0.00  0.00    +0.000 Br
ATOM     22  C   UNL     1      -0.775   9.745  18.074  0.00  0.00    +0.000 A 
ENDBRANCH  11  16
TORSDOF 1
ENDMDL
MODEL 4
REMARK VINA RESULT:      -6.8      5.107      7.579
REMARK  Name = 
REMARK  3 active torsions:
REMARK  status: ('A' for Active; 'I' for Inactive)
REMARK    1  A    between atoms: C_1  and  N_2
REMARK    2  A    between atoms: N_2  and  C_3
REMARK    3  A    between atoms: N_11  and  C_12
REMARK                            x       y       z     vdW  Elec       q    Type
REMARK                         _______ _______ _______ _____ _____    ______ ____
ROOT
ATOM      1  C   UNL     1       2.109   2.559  21.573  0.00  0.00    +0.000 C 
ATOM      2  N   UNL     1       2.894   3.157  20.507  0.00  0.00    +0.000 N 
ATOM      3  C   UNL     1       3.773   2.320  19.714  0.00  0.00    +0.000 C 
ATOM      4  C   UNL     1       2.664   4.489  20.204  0.00  0.00    +0.000 A 
ATOM      5  C   UNL     1       3.288   5.114  19.126  0.00  0.00    +0.000 A 
ATOM      6  C   UNL     1       3.024   6.432  18.798  0.00  0.00    +0.000 A 
ATOM      7  N   UNL     1       3.627   6.959  17.727  0.00  0.00    +0.000 NA
ATOM      8  C   UNL     1       3.307   8.216  17.410  0.00  0.00    +0.000 A 
ATOM      9  N   UNL     1       2.446   8.995  18.071  0.00  0.00    +0.000 NA
ATOM     10  C   UNL     1       1.850   8.460  19.153  0.00  0.00    +0.000 A 
ATOM     11  N   UNL     1       0.929   9.265  19.870  0.00  0.00    +0.000 N 
ATOM     12  C   UNL     1       2.126   7.151  19.576  0.00  0.00    +0.000 A 
ATOM     13  C   UNL     1       1.548   6.480  20.657  0.00  0.00    +0.000 A 
ATOM     14  N   UNL     1       1.806   5.190  20.974  0.00  0.00    +0.000 NA
ATOM     15  H   UNL     1       1.354   9.578  20.737  0.00  0.00    +0.000 HD
ENDROOT
BRANCH  11  16
ATOM     16  C   UNL     1       0.094  10.243  19.277  0.00  0.00    +0.000 A 
ATOM     17  C   UNL     1      -0.981   9.864  18.462  0.00  0.00    +0.000 A 
ATOM     18  C   UNL     1      -1.765  10.829  17.820  0.00  0.00    +0.000 A 
ATOM     19  C   UNL     1      -1.466  12.184  17.960  0.00  0.00    +0.000 A 
ATOM     20  C   UNL     1      -0.386  12.567  18.744  0.00  0.00    +0.000 A 
ATOM     21 BR   UNL     1       0.054  14.399  18.919  0.00  0.00    +0.000 Br
ATOM     22  C   UNL     1       0.393  11.609  19.394  0.00  0.00    +0.000 A 
ENDBRANCH  11  16
TORSDOF 1
ENDMDL
MODEL 5
REMARK VINA RESULT:      -6.8      5.943      7.707
REMARK  Name = 
REMARK  3 active torsions:
REMARK  status: ('A' for Active; 'I' for Inactive)
REMARK    1  A    between atoms: C_1  and  N_2
REMARK    2  A    between atoms: N_2  and  C_3
REMARK    3  A    between atoms: N_11  and  C_12
REMARK                            x       y       z     vdW  Elec       q    Type
REMARK                         _______ _______ _______ _____ _____    ______ ____
ROOT
ATOM      1  C   UNL     1       5.317   4.528  17.106  0.00  0.00    +0.000 C 
ATOM      2  N   UNL     1       4.478   4.624  18.287  0.00  0.00    +0.000 N 
ATOM      3  C   UNL     1       4.582   3.611  19.320  0.00  0.00    +0.000 C 
ATOM      4  C   UNL     1       3.704   5.762  18.441  0.00  0.00    +0.000 A 
ATOM      5  C   UNL     1       2.956   5.991  19.594  0.00  0.00    +0.000 A 
ATOM      6  C   UNL     1       2.218   7.149  19.765  0.00  0.00    +0.000 A 
ATOM      7  N   UNL     1       1.555   7.323  20.913  0.00  0.00    +0.000 NA
ATOM      8  C   UNL     1       0.899   8.476  21.063  0.00  0.00    +0.000 A 
ATOM      9  N   UNL     1       0.840   9.466  20.168  0.00  0.00    +0.000 NA
ATOM     10  C   UNL     1       1.504   9.280  19.012  0.00  0.00    +0.000 A 
ATOM     11  N   UNL     1       1.459  10.317  18.046  0.00  0.00    +0.000 N 
ATOM     12  C   UNL     1       2.214   8.098  18.751  0.00  0.00    +0.000 A 
ATOM     13  C   UNL     1       2.964   7.806  17.609  0.00  0.00    +0.000 A 
ATOM     14  N   UNL     1       3.687   6.673  17.445  0.00  0.00    +0.000 NA
ATOM     15  H   UNL     1       0.841  10.049  17.287  0.00  0.00    +0.000 HD
ENDROOT
BRANCH  11  16
ATOM     16  C   UNL     1       1.388  11.695  18.359  0.00  0.00    +0.000 A 
ATOM     17  C   UNL     1       0.163  12.291  18.685  0.00  0.00    +0.000 A 
ATOM     18  C   UNL     1       0.078  13.667  18.928  0.00  0.00    +0.000 A 
ATOM     19  C   UNL     1       1.213  14.469  18.817  0.00  0.00    +0.000 A 
ATOM     20  C   UNL     1       2.427  13.892  18.466  0.00  0.00    +0.000 A 
ATOM     21 BR   UNL     1       3.969  14.972  18.280  0.00  0.00    +0.000 Br
ATOM     22  C   UNL     1       2.517  12.520  18.233  0.00  0.00    +0.000 A 
ENDBRANCH  11  16
TORSDOF 1
ENDMDL
MODEL 6
REMARK VINA RESULT:      -6.7      6.777      8.665
REMARK  Name = 
REMARK  3 active torsions:
REMARK  status: ('A' for Active; 'I' for Inactive)
REMARK    1  A    between atoms: C_1  and  N_2
REMARK    2  A    between atoms: N_2  and  C_3
REMARK    3  A    between atoms: N_11  and  C_12
REMARK                            x       y       z     vdW  Elec       q    Type
REMARK                         _______ _______ _______ _____ _____    ______ ____
ROOT
ATOM      1  C   UNL     1       4.087   5.104  17.360  0.00  0.00    +0.000 C 
ATOM      2  N   UNL     1       3.417   5.362  18.622  0.00  0.00    +0.000 N 
ATOM      3  C   UNL     1       3.558   4.413  19.710  0.00  0.00    +0.000 C 
ATOM      4  C   UNL     1       2.778   6.581  18.778  0.00  0.00    +0.000 A 
ATOM      5  C   UNL     1       2.207   6.960  19.992  0.00  0.00    +0.000 A 
ATOM      6  C   UNL     1       1.608   8.196  20.159  0.00  0.00    +0.000 A 
ATOM      7  N   UNL     1       1.115   8.511  21.362  0.00  0.00    +0.000 NA
ATOM      8  C   UNL     1       0.593   9.733  21.499  0.00  0.00    +0.000 A 
ATOM      9  N   UNL     1       0.512  10.662  20.543  0.00  0.00    +0.000 NA
ATOM     10  C   UNL     1       1.004  10.333  19.333  0.00  0.00    +0.000 A 
ATOM     11  N   UNL     1       0.933  11.303  18.301  0.00  0.00    +0.000 N 
ATOM     12  C   UNL     1       1.562   9.071  19.082  0.00  0.00    +0.000 A 
ATOM     13  C   UNL     1       2.130   8.630  17.884  0.00  0.00    +0.000 A 
ATOM     14  N   UNL     1       2.719   7.421  17.724  0.00  0.00    +0.000 NA
ATOM     15  H   UNL     1       0.201  11.051  17.646  0.00  0.00    +0.000 HD
ENDROOT
BRANCH  11  16
ATOM     16  C   UNL     1       1.030  12.700  18.512  0.00  0.00    +0.000 A 
ATOM     17  C   UNL     1      -0.118  13.469  18.739  0.00  0.00    +0.000 A 
ATOM     18  C   UNL     1      -0.032  14.860  18.879  0.00  0.00    +0.000 A 
ATOM     19  C   UNL     1       1.200  15.501  18.764  0.00  0.00    +0.000 A 
ATOM     20  C   UNL     1       2.341  14.749  18.511  0.00  0.00    +0.000 A 
ATOM     21 BR   UNL     1       4.016  15.607  18.320  0.00  0.00    +0.000 Br
ATOM     22  C   UNL     1       2.260  13.363  18.380  0.00  0.00    +0.000 A 
ENDBRANCH  11  16
TORSDOF 1
ENDMDL
MODEL 7
REMARK VINA RESULT:      -6.5      7.020      9.420
REMARK  Name = 
REMARK  3 active torsions:
REMARK  status: ('A' for Active; 'I' for Inactive)
REMARK    1  A    between atoms: C_1  and  N_2
REMARK    2  A    between atoms: N_2  and  C_3
REMARK    3  A    between atoms: N_11  and  C_12
REMARK                            x       y       z     vdW  Elec       q    Type
REMARK                         _______ _______ _______ _____ _____    ______ ____
ROOT
ATOM      1  C   UNL     1      -4.949  11.483  16.881  0.00  0.00    +0.000 C 
ATOM      2  N   UNL     1      -4.260  11.842  18.108  0.00  0.00    +0.000 N 
ATOM      3  C   UNL     1      -4.976  12.568  19.140  0.00  0.00    +0.000 C 
ATOM      4  C   UNL     1      -2.978  11.354  18.298  0.00  0.00    +0.000 A 
ATOM      5  C   UNL     1      -2.286  11.554  19.491  0.00  0.00    +0.000 A 
ATOM      6  C   UNL     1      -1.023  11.028  19.695  0.00  0.00    +0.000 A 
ATOM      7  N   UNL     1      -0.431  11.223  20.879  0.00  0.00    +0.000 NA
ATOM      8  C   UNL     1       0.764  10.655  21.058  0.00  0.00    +0.000 A 
ATOM      9  N   UNL     1       1.423   9.918  20.160  0.00  0.00    +0.000 NA
ATOM     10  C   UNL     1       0.824   9.733  18.969  0.00  0.00    +0.000 A 
ATOM     11  N   UNL     1       1.502   8.951  17.999  0.00  0.00    +0.000 N 
ATOM     12  C   UNL     1      -0.427  10.297  18.676  0.00  0.00    +0.000 A 
ATOM     13  C   UNL     1      -1.157  10.148  17.495  0.00  0.00    +0.000 A 
ATOM     14  N   UNL     1      -2.395  10.661  17.298  0.00  0.00    +0.000 NA
ATOM     15  H   UNL     1       1.883   9.556  17.279  0.00  0.00    +0.000 HD
ENDROOT
BRANCH  11  16
ATOM     16  C   UNL     1       2.344   7.855  18.305  0.00  0.00    +0.000 A 
ATOM     17  C   UNL     1       3.499   7.610  17.551  0.00  0.00    +0.000 A 
ATOM     18  C   UNL     1       4.296   6.488  17.808  0.00  0.00    +0.000 A 
ATOM     19  C   UNL     1       3.931   5.581  18.802  0.00  0.00    +0.000 A 
ATOM     20  C   UNL     1       2.772   5.801  19.536  0.00  0.00    +0.000 A 
ATOM     21 BR   UNL     1       2.246   4.563  20.865  0.00  0.00    +0.000 Br
ATOM     22  C   UNL     1       1.981   6.922  19.289  0.00  0.00    +0.000 A 
ENDBRANCH  11  16
TORSDOF 1
ENDMDL
MODEL 8
REMARK VINA RESULT:      -6.5      2.084      2.530
REMARK  Name = 
REMARK  3 active torsions:
REMARK  status: ('A' for Active; 'I' for Inactive)
REMARK    1  A    between atoms: C_1  and  N_2
REMARK    2  A    between atoms: N_2  and  C_3
REMARK    3  A    between atoms: N_11  and  C_12
REMARK                            x       y       z     vdW  Elec       q    Type
REMARK                         _______ _______ _______ _____ _____    ______ ____
ROOT
ATOM      1  C   UNL     1       5.491   2.755  11.767  0.00  0.00    +0.000 C 
ATOM      2  N   UNL     1       6.469   3.563  12.473  0.00  0.00    +0.000 N 
ATOM      3  C   UNL     1       7.691   3.954  11.796  0.00  0.00    +0.000 C 
ATOM      4  C   UNL     1       6.129   4.044  13.726  0.00  0.00    +0.000 A 
ATOM      5  C   UNL     1       6.957   4.918  14.427  0.00  0.00    +0.000 A 
ATOM      6  C   UNL     1       6.596   5.432  15.660  0.00  0.00    +0.000 A 
ATOM      7  N   UNL     1       7.420   6.298  16.259  0.00  0.00    +0.000 NA
ATOM      8  C   UNL     1       7.012   6.814  17.421  0.00  0.00    +0.000 A 
ATOM      9  N   UNL     1       5.861   6.538  18.040  0.00  0.00    +0.000 NA
ATOM     10  C   UNL     1       5.041   5.660  17.434  0.00  0.00    +0.000 A 
ATOM     11  N   UNL     1       3.811   5.352  18.068  0.00  0.00    +0.000 N 
ATOM     12  C   UNL     1       5.381   5.052  16.216  0.00  0.00    +0.000 A 
ATOM     13  C   UNL     1       4.602   4.157  15.479  0.00  0.00    +0.000 A 
ATOM     14  N   UNL     1       4.956   3.657  14.272  0.00  0.00    +0.000 NA
ATOM     15  H   UNL     1       3.864   4.427  18.483  0.00  0.00    +0.000 HD
ENDROOT
BRANCH  11  16
ATOM     16  C   UNL     1       3.065   6.267  18.849  0.00  0.00    +0.000 A 
ATOM     17  C   UNL     1       2.575   5.898  20.108  0.00  0.00    +0.000 A 
ATOM     18  C   UNL     1       1.779   6.778  20.852  0.00  0.00    +0.000 A 
ATOM     19  C   UNL     1       1.440   8.026  20.333  0.00  0.00    +0.000 A 
ATOM     20  C   UNL     1       1.899   8.390  19.073  0.00  0.00    +0.000 A 
ATOM     21 BR   UNL     1       1.421  10.067  18.341  0.00  0.00    +0.000 Br
ATOM     22  C   UNL     1       2.699   7.521  18.333  0.00  0.00    +0.000 A 
ENDBRANCH  11  16
TORSDOF 1
ENDMDL
MODEL 9
REMARK VINA RESULT:      -6.5      6.935      8.931
REMARK  Name = 
REMARK  3 active torsions:
REMARK  status: ('A' for Active; 'I' for Inactive)
REMARK    1  A    between atoms: C_1  and  N_2
REMARK    2  A    between atoms: N_2  and  C_3
REMARK    3  A    between atoms: N_11  and  C_12
REMARK                            x       y       z     vdW  Elec       q    Type
REMARK                         _______ _______ _______ _____ _____    ______ ____
ROOT
ATOM      1  C   UNL     1       3.450   4.937  17.761  0.00  0.00    +0.000 C 
ATOM      2  N   UNL     1       2.844   5.366  19.009  0.00  0.00    +0.000 N 
ATOM      3  C   UNL     1       2.886   4.486  20.161  0.00  0.00    +0.000 C 
ATOM      4  C   UNL     1       2.367   6.664  19.084  0.00  0.00    +0.000 A 
ATOM      5  C   UNL     1       1.872   7.197  20.273  0.00  0.00    +0.000 A 
ATOM      6  C   UNL     1       1.437   8.507  20.357  0.00  0.00    +0.000 A 
ATOM      7  N   UNL     1       1.012   8.967  21.539  0.00  0.00    +0.000 NA
ATOM      8  C   UNL     1       0.651  10.251  21.593  0.00  0.00    +0.000 A 
ATOM      9  N   UNL     1       0.669  11.114  20.574  0.00  0.00    +0.000 NA
ATOM     10  C   UNL     1       1.090  10.641  19.386  0.00  0.00    +0.000 A 
ATOM     11  N   UNL     1       1.122  11.538  18.287  0.00  0.00    +0.000 N 
ATOM     12  C   UNL     1       1.481   9.304  19.220  0.00  0.00    +0.000 A 
ATOM     13  C   UNL     1       1.965   8.711  18.051  0.00  0.00    +0.000 A 
ATOM     14  N   UNL     1       2.393   7.429  17.972  0.00  0.00    +0.000 NA
ATOM     15  H   UNL     1       0.351  11.334  17.659  0.00  0.00    +0.000 HD
ENDROOT
BRANCH  11  16
ATOM     16  C   UNL     1       1.398  12.922  18.395  0.00  0.00    +0.000 A 
ATOM     17  C   UNL     1       2.715  13.394  18.333  0.00  0.00    +0.000 A 
ATOM     18  C   UNL     1       2.997  14.754  18.509  0.00  0.00    +0.000 A 
ATOM     19  C   UNL     1       1.967  15.654  18.779  0.00  0.00    +0.000 A 
ATOM     20  C   UNL     1       0.661  15.191  18.870  0.00  0.00    +0.000 A 
ATOM     21 BR   UNL     1      -0.744  16.393  19.268  0.00  0.00    +0.000 Br
ATOM     22  C   UNL     1       0.375  13.838  18.686  0.00  0.00    +0.000 A 
ENDBRANCH  11  16
TORSDOF 1
ENDMDL
