MODEL 1
REMARK VINA RESULT:      -6.4      0.000      0.000
REMARK  Name = 
REMARK  7 active torsions:
REMARK  status: ('A' for Active; 'I' for Inactive)
REMARK    1  A    between atoms: C_1  and  N_2
REMARK    2  A    between atoms: N_2  and  C_3
REMARK    3  A    between atoms: N_2  and  C_4
REMARK    4  A    between atoms: C_4  and  C_5
REMARK    5  A    between atoms: C_7  and  C_8
REMARK    6  A    between atoms: C_8  and  C_9
REMARK    7  A    between atoms: C_12  and  N_13
REMARK                            x       y       z     vdW  Elec       q    Type
REMARK                         _______ _______ _______ _____ _____    ______ ____
ROOT
ATOM      1  C   UNL     1       5.436   5.228  19.218  0.00  0.00    +0.000 C 
ENDROOT
BRANCH   1   2
ATOM      2  C   UNL     1       4.187   4.381  19.178  0.00  0.00    +0.000 A 
ATOM      3  C   UNL     1       4.281   2.987  19.275  0.00  0.00    +0.000 A 
ATOM      4  C   UNL     1       3.145   2.186  19.143  0.00  0.00    +0.000 A 
ATOM      5  C   UNL     1       1.884   2.759  18.972  0.00  0.00    +0.000 A 
ATOM      6  C   UNL     1       1.792   4.150  18.866  0.00  0.00    +0.000 A 
ATOM      7  C   UNL     1       2.927   4.958  18.987  0.00  0.00    +0.000 A 
BRANCH   5   8
ATOM      8  N   UNL     1       0.782   1.953  18.667  0.00  0.00    +0.000 N 
ATOM      9  H   UNL     1      -0.111   2.428  18.754  0.00  0.00    +0.000 HD
ATOM     10  H   UNL     1       0.870   1.446  17.793  0.00  0.00    +0.000 HD
ENDBRANCH   5   8
ENDBRANCH   1   2
BRANCH   1  13
ATOM     11  C   UNL     1       6.917   5.015  15.782  0.00  0.00    +0.000 C 
ATOM     12  C   UNL     1       5.750   5.446  16.642  0.00  0.00    +0.000 C 
ATOM     13  C   UNL     1       6.260   5.047  17.972  0.00  0.00    +0.000 C 
ATOM     14  N   UNL     1       7.433   4.502  17.991  0.00  0.00    +0.000 NA
ATOM     15  O   UNL     1       7.885   4.411  16.660  0.00  0.00    +0.000 OA
BRANCH  11  16
ATOM     16  C   UNL     1       6.545   3.998  14.686  0.00  0.00    +0.000 C 
BRANCH  16  18
ATOM     17  C   UNL     1       7.861   5.143  12.978  0.00  0.00    +0.000 C 
ATOM     18  N   UNL     1       6.579   4.513  13.298  0.00  0.00    +0.000 NA
ATOM     19  C   UNL     1       6.330   3.410  12.361  0.00  0.00    +0.000 C 
ENDBRANCH  16  18
ENDBRANCH  11  16
ENDBRANCH   1  13
TORSDOF 5
ENDMDL
MODEL 2
REMARK VINA RESULT:      -6.3      2.614      3.575
REMARK  Name = 
REMARK  7 active torsions:
REMARK  status: ('A' for Active; 'I' for Inactive)
REMARK    1  A    between atoms: C_1  and  N_2
REMARK    2  A    between atoms: N_2  and  C_3
REMARK    3  A    between atoms: N_2  and  C_4
REMARK    4  A    between atoms: C_4  and  C_5
REMARK    5  A    between atoms: C_7  and  C_8
REMARK    6  A    between atoms: C_8  and  C_9
REMARK    7  A    between atoms: C_12  and  N_13
REMARK                            x       y       z     vdW  Elec       q    Type
REMARK                         _______ _______ _______ _____ _____    ______ ____
ROOT
ATOM      1  C   UNL     1       3.249   3.135  17.116  0.00  0.00    +0.000 C 
ENDROOT
BRANCH   1   2
ATOM      2  C   UNL     1       2.679   3.088  18.513  0.00  0.00    +0.000 A 
ATOM      3  C   UNL     1       3.504   2.765  19.597  0.00  0.00    +0.000 A 
ATOM      4  C   UNL     1       2.970   2.624  20.880  0.00  0.00    +0.000 A 
ATOM      5  C   UNL     1       1.617   2.861  21.120  0.00  0.00    +0.000 A 
ATOM      6  C   UNL     1       0.792   3.174  20.036  0.00  0.00    +0.000 A 
ATOM      7  C   UNL     1       1.318   3.308  18.746  0.00  0.00    +0.000 A 
BRANCH   5   8
ATOM      8  N   UNL     1       1.059   2.550  22.365  0.00  0.00    +0.000 N 
ATOM      9  H   UNL     1       1.091   3.314  23.032  0.00  0.00    +0.000 HD
ATOM     10  H   UNL     1       0.143   2.118  22.311  0.00  0.00    +0.000 HD
ENDBRANCH   5   8
ENDBRANCH   1   2
BRANCH   1  13
ATOM     11  C   UNL     1       5.670   5.843  16.193  0.00  0.00    +0.000 C 
ATOM     12  C   UNL     1       5.251   4.400  16.031  0.00  0.00    +0.000 C 
ATOM     13  C   UNL     1       4.048   4.390  16.893  0.00  0.00    +0.000 C 
ATOM     14  N   UNL     1       3.753   5.510  17.469  0.00  0.00    +0.000 NA
ATOM     15  O   UNL     1       4.741   6.448  17.113  0.00  0.00    +0.000 OA
BRANCH  11  16
ATOM     16  C   UNL     1       7.097   6.023  16.745  0.00  0.00    +0.000 C 
BRANCH  16  18
ATOM     17  C   UNL     1       7.824   5.852  19.069  0.00  0.00    +0.000 C 
ATOM     18  N   UNL     1       7.194   6.701  18.057  0.00  0.00    +0.000 NA
ATOM     19  C   UNL     1       7.967   7.941  17.910  0.00  0.00    +0.000 C 
ENDBRANCH  16  18
ENDBRANCH  11  16
ENDBRANCH   1  13
TORSDOF 5
ENDMDL
MODEL 3
REMARK VINA RESULT:      -6.3      0.683      1.348
REMARK  Name = 
REMARK  7 active torsions:
REMARK  status: ('A' for Active; 'I' for Inactive)
REMARK    1  A    between atoms: C_1  and  N_2
REMARK    2  A    between atoms: N_2  and  C_3
REMARK    3  A    between atoms: N_2  and  C_4
REMARK    4  A    between atoms: C_4  and  C_5
REMARK    5  A    between atoms: C_7  and  C_8
REMARK    6  A    between atoms: C_8  and  C_9
REMARK    7  A    between atoms: C_12  and  N_13
REMARK                            x       y       z     vdW  Elec       q    Type
REMARK                         _______ _______ _______ _____ _____    ______ ____
ROOT
ATOM      1  C   UNL     1       5.901   5.370  19.319  0.00  0.00    +0.000 C 
ENDROOT
BRANCH   1   2
ATOM      2  C   UNL     1       4.517   4.770  19.387  0.00  0.00    +0.000 A 
ATOM      3  C   UNL     1       3.398   5.601  19.524  0.00  0.00    +0.000 A 
ATOM      4  C   UNL     1       2.123   5.056  19.685  0.00  0.00    +0.000 A 
ATOM      5  C   UNL     1       1.928   3.675  19.652  0.00  0.00    +0.000 A 
ATOM      6  C   UNL     1       3.046   2.846  19.525  0.00  0.00    +0.000 A 
ATOM      7  C   UNL     1       4.328   3.385  19.373  0.00  0.00    +0.000 A 
BRANCH   5   8
ATOM      8  N   UNL     1       0.681   3.134  19.987  0.00  0.00    +0.000 N 
ATOM      9  H   UNL     1       0.490   3.127  20.984  0.00  0.00    +0.000 HD
ATOM     10  H   UNL     1      -0.090   3.508  19.445  0.00  0.00    +0.000 HD
ENDBRANCH   5   8
ENDBRANCH   1   2
BRANCH   1  13
ATOM     11  C   UNL     1       6.910   5.016  15.726  0.00  0.00    +0.000 C 
ATOM     12  C   UNL     1       5.899   5.543  16.720  0.00  0.00    +0.000 C 
ATOM     13  C   UNL     1       6.542   5.116  17.982  0.00  0.00    +0.000 C 
ATOM     14  N   UNL     1       7.664   4.481  17.862  0.00  0.00    +0.000 NA
ATOM     15  O   UNL     1       7.933   4.345  16.486  0.00  0.00    +0.000 OA
BRANCH  11  16
ATOM     16  C   UNL     1       6.324   4.023  14.705  0.00  0.00    +0.000 C 
BRANCH  16  18
ATOM     17  C   UNL     1       7.707   5.089  12.999  0.00  0.00    +0.000 C 
ATOM     18  N   UNL     1       6.432   4.429  13.285  0.00  0.00    +0.000 NA
ATOM     19  C   UNL     1       6.292   3.245  12.427  0.00  0.00    +0.000 C 
ENDBRANCH  16  18
ENDBRANCH  11  16
ENDBRANCH   1  13
TORSDOF 5
ENDMDL
MODEL 4
REMARK VINA RESULT:      -6.2      1.505      1.620
REMARK  Name = 
REMARK  7 active torsions:
REMARK  status: ('A' for Active; 'I' for Inactive)
REMARK    1  A    between atoms: C_1  and  N_2
REMARK    2  A    between atoms: N_2  and  C_3
REMARK    3  A    between atoms: N_2  and  C_4
REMARK    4  A    between atoms: C_4  and  C_5
REMARK    5  A    between atoms: C_7  and  C_8
REMARK    6  A    between atoms: C_8  and  C_9
REMARK    7  A    between atoms: C_12  and  N_13
REMARK                            x       y       z     vdW  Elec       q    Type
REMARK                         _______ _______ _______ _____ _____    ______ ____
ROOT
ATOM      1  C   UNL     1       3.868   6.524  17.645  0.00  0.00    +0.000 C 
ENDROOT
BRANCH   1   2
ATOM      2  C   UNL     1       3.052   5.525  18.428  0.00  0.00    +0.000 A 
ATOM      3  C   UNL     1       2.275   4.573  17.756  0.00  0.00    +0.000 A 
ATOM      4  C   UNL     1       1.442   3.705  18.465  0.00  0.00    +0.000 A 
ATOM      5  C   UNL     1       1.411   3.727  19.859  0.00  0.00    +0.000 A 
ATOM      6  C   UNL     1       2.179   4.683  20.529  0.00  0.00    +0.000 A 
ATOM      7  C   UNL     1       3.009   5.562  19.825  0.00  0.00    +0.000 A 
BRANCH   5   8
ATOM      8  N   UNL     1       0.451   2.980  20.552  0.00  0.00    +0.000 N 
ATOM      9  H   UNL     1       0.686   1.998  20.649  0.00  0.00    +0.000 HD
ATOM     10  H   UNL     1       0.155   3.398  21.427  0.00  0.00    +0.000 HD
ENDBRANCH   5   8
ENDBRANCH   1   2
BRANCH   1  13
ATOM     11  C   UNL     1       6.599   5.151  15.475  0.00  0.00    +0.000 C 
ATOM     12  C   UNL     1       5.350   5.998  15.568  0.00  0.00    +0.000 C 
ATOM     13  C   UNL     1       5.072   5.876  17.016  0.00  0.00    +0.000 C 
ATOM     14  N   UNL     1       5.900   5.149  17.695  0.00  0.00    +0.000 NA
ATOM     15  O   UNL     1       6.852   4.632  16.794  0.00  0.00    +0.000 OA
BRANCH  11  16
ATOM     16  C   UNL     1       6.482   3.969  14.495  0.00  0.00    +0.000 C 
BRANCH  16  18
ATOM     17  C   UNL     1       7.633   4.949  12.578  0.00  0.00    +0.000 C 
ATOM     18  N   UNL     1       6.397   4.333  13.062  0.00  0.00    +0.000 NA
ATOM     19  C   UNL     1       6.107   3.131  12.269  0.00  0.00    +0.000 C 
ENDBRANCH  16  18
ENDBRANCH  11  16
ENDBRANCH   1  13
TORSDOF 5
ENDMDL
MODEL 5
REMARK VINA RESULT:      -6.2      1.024      1.088
REMARK  Name = 
REMARK  7 active torsions:
REMARK  status: ('A' for Active; 'I' for Inactive)
REMARK    1  A    between atoms: C_1  and  N_2
REMARK    2  A    between atoms: N_2  and  C_3
REMARK    3  A    between atoms: N_2  and  C_4
REMARK    4  A    between atoms: C_4  and  C_5
REMARK    5  A    between atoms: C_7  and  C_8
REMARK    6  A    between atoms: C_8  and  C_9
REMARK    7  A    between atoms: C_12  and  N_13
REMARK                            x       y       z     vdW  Elec       q    Type
REMARK                         _______ _______ _______ _____ _____    ______ ____
ROOT
ATOM      1  C   UNL     1       4.824   6.018  17.900  0.00  0.00    +0.000 C 
ENDROOT
BRANCH   1   2
ATOM      2  C   UNL     1       3.795   4.956  18.204  0.00  0.00    +0.000 A 
ATOM      3  C   UNL     1       4.194   3.730  18.753  0.00  0.00    +0.000 A 
ATOM      4  C   UNL     1       3.267   2.704  18.950  0.00  0.00    +0.000 A 
ATOM      5  C   UNL     1       1.916   2.897  18.660  0.00  0.00    +0.000 A 
ATOM      6  C   UNL     1       1.521   4.116  18.103  0.00  0.00    +0.000 A 
ATOM      7  C   UNL     1       2.445   5.146  17.895  0.00  0.00    +0.000 A 
BRANCH   5   8
ATOM      8  N   UNL     1       1.029   1.815  18.694  0.00  0.00    +0.000 N 
ATOM      9  H   UNL     1       0.066   2.067  18.494  0.00  0.00    +0.000 HD
ATOM     10  H   UNL     1       1.339   1.009  18.162  0.00  0.00    +0.000 HD
ENDBRANCH   5   8
ENDBRANCH   1   2
BRANCH   1  13
ATOM     11  C   UNL     1       6.587   5.010  14.750  0.00  0.00    +0.000 C 
ATOM     12  C   UNL     1       5.328   5.552  15.387  0.00  0.00    +0.000 C 
ATOM     13  C   UNL     1       5.756   5.579  16.803  0.00  0.00    +0.000 C 
ATOM     14  N   UNL     1       6.960   5.168  17.041  0.00  0.00    +0.000 NA
ATOM     15  O   UNL     1       7.522   4.758  15.816  0.00  0.00    +0.000 OA
BRANCH  11  16
ATOM     16  C   UNL     1       6.377   3.704  13.961  0.00  0.00    +0.000 C 
BRANCH  16  18
ATOM     17  C   UNL     1       7.312   4.460  11.836  0.00  0.00    +0.000 C 
ATOM     18  N   UNL     1       6.155   3.865  12.506  0.00  0.00    +0.000 NA
ATOM     19  C   UNL     1       5.864   2.555  11.908  0.00  0.00    +0.000 C 
ENDBRANCH  16  18
ENDBRANCH  11  16
ENDBRANCH   1  13
TORSDOF 5
ENDMDL
MODEL 6
REMARK VINA RESULT:      -6.1      1.683      1.970
REMARK  Name = 
REMARK  7 active torsions:
REMARK  status: ('A' for Active; 'I' for Inactive)
REMARK    1  A    between atoms: C_1  and  N_2
REMARK    2  A    between atoms: N_2  and  C_3
REMARK    3  A    between atoms: N_2  and  C_4
REMARK    4  A    between atoms: C_4  and  C_5
REMARK    5  A    between atoms: C_7  and  C_8
REMARK    6  A    between atoms: C_8  and  C_9
REMARK    7  A    between atoms: C_12  and  N_13
REMARK                            x       y       z     vdW  Elec       q    Type
REMARK                         _______ _______ _______ _____ _____    ______ ____
ROOT
ATOM      1  C   UNL     1       3.681   6.995  18.016  0.00  0.00    +0.000 C 
ENDROOT
BRANCH   1   2
ATOM      2  C   UNL     1       2.752   5.942  18.570  0.00  0.00    +0.000 A 
ATOM      3  C   UNL     1       2.327   6.013  19.903  0.00  0.00    +0.000 A 
ATOM      4  C   UNL     1       1.547   4.995  20.456  0.00  0.00    +0.000 A 
ATOM      5  C   UNL     1       1.124   3.918  19.677  0.00  0.00    +0.000 A 
ATOM      6  C   UNL     1       1.556   3.843  18.350  0.00  0.00    +0.000 A 
ATOM      7  C   UNL     1       2.346   4.854  17.792  0.00  0.00    +0.000 A 
BRANCH   5   8
ATOM      8  N   UNL     1       0.493   2.822  20.278  0.00  0.00    +0.000 N 
ATOM      9  H   UNL     1       0.610   1.951  19.770  0.00  0.00    +0.000 HD
ATOM     10  H   UNL     1       0.690   2.724  21.268  0.00  0.00    +0.000 HD
ENDBRANCH   5   8
ENDBRANCH   1   2
BRANCH   1  13
ATOM     11  C   UNL     1       6.961   5.838  16.620  0.00  0.00    +0.000 C 
ATOM     12  C   UNL     1       5.696   6.638  16.405  0.00  0.00    +0.000 C 
ATOM     13  C   UNL     1       5.039   6.423  17.713  0.00  0.00    +0.000 C 
ATOM     14  N   UNL     1       5.683   5.685  18.558  0.00  0.00    +0.000 NA
ATOM     15  O   UNL     1       6.868   5.251  17.932  0.00  0.00    +0.000 OA
BRANCH  11  16
ATOM     16  C   UNL     1       7.171   4.712  15.590  0.00  0.00    +0.000 C 
BRANCH  16  18
ATOM     17  C   UNL     1       7.779   5.171  13.271  0.00  0.00    +0.000 C 
ATOM     18  N   UNL     1       6.680   4.997  14.222  0.00  0.00    +0.000 NA
ATOM     19  C   UNL     1       5.816   3.897  13.774  0.00  0.00    +0.000 C 
ENDBRANCH  16  18
ENDBRANCH  11  16
ENDBRANCH   1  13
TORSDOF 5
ENDMDL
MODEL 7
REMARK VINA RESULT:      -6.0      2.128      3.037
REMARK  Name = 
REMARK  7 active torsions:
REMARK  status: ('A' for Active; 'I' for Inactive)
REMARK    1  A    between atoms: C_1  and  N_2
REMARK    2  A    between atoms: N_2  and  C_3
REMARK    3  A    between atoms: N_2  and  C_4
REMARK    4  A    between atoms: C_4  and  C_5
REMARK    5  A    between atoms: C_7  and  C_8
REMARK    6  A    between atoms: C_8  and  C_9
REMARK    7  A    between atoms: C_12  and  N_13
REMARK                            x       y       z     vdW  Elec       q    Type
REMARK                         _______ _______ _______ _____ _____    ______ ____
ROOT
ATOM      1  C   UNL     1       7.191   4.647  16.937  0.00  0.00    +0.000 C 
ENDROOT
BRANCH   1   2
ATOM      2  C   UNL     1       5.937   5.044  17.678  0.00  0.00    +0.000 A 
ATOM      3  C   UNL     1       5.413   4.205  18.668  0.00  0.00    +0.000 A 
ATOM      4  C   UNL     1       4.203   4.512  19.294  0.00  0.00    +0.000 A 
ATOM      5  C   UNL     1       3.522   5.691  18.990  0.00  0.00    +0.000 A 
ATOM      6  C   UNL     1       4.041   6.524  17.995  0.00  0.00    +0.000 A 
ATOM      7  C   UNL     1       5.248   6.217  17.356  0.00  0.00    +0.000 A 
BRANCH   5   8
ATOM      8  N   UNL     1       2.232   5.906  19.489  0.00  0.00    +0.000 N 
ATOM      9  H   UNL     1       1.603   5.120  19.355  0.00  0.00    +0.000 HD
ATOM     10  H   UNL     1       2.211   6.264  20.437  0.00  0.00    +0.000 HD
ENDBRANCH   5   8
ENDBRANCH   1   2
BRANCH   1  13
ATOM     11  C   UNL     1       6.256   4.426  13.314  0.00  0.00    +0.000 C 
ATOM     12  C   UNL     1       5.981   3.974  14.730  0.00  0.00    +0.000 C 
ATOM     13  C   UNL     1       7.007   4.763  15.448  0.00  0.00    +0.000 C 
ATOM     14  N   UNL     1       7.755   5.522  14.715  0.00  0.00    +0.000 NA
ATOM     15  O   UNL     1       7.373   5.332  13.372  0.00  0.00    +0.000 OA
BRANCH  11  16
ATOM     16  C   UNL     1       6.604   3.277  12.347  0.00  0.00    +0.000 C 
BRANCH  16  18
ATOM     17  C   UNL     1       4.400   3.127  11.308  0.00  0.00    +0.000 C 
ATOM     18  N   UNL     1       5.476   2.393  11.974  0.00  0.00    +0.000 NA
ATOM     19  C   UNL     1       5.963   1.329  11.087  0.00  0.00    +0.000 C 
ENDBRANCH  16  18
ENDBRANCH  11  16
ENDBRANCH   1  13
TORSDOF 5
ENDMDL
MODEL 8
REMARK VINA RESULT:      -6.0      1.320      1.993
REMARK  Name = 
REMARK  7 active torsions:
REMARK  status: ('A' for Active; 'I' for Inactive)
REMARK    1  A    between atoms: C_1  and  N_2
REMARK    2  A    between atoms: N_2  and  C_3
REMARK    3  A    between atoms: N_2  and  C_4
REMARK    4  A    between atoms: C_4  and  C_5
REMARK    5  A    between atoms: C_7  and  C_8
REMARK    6  A    between atoms: C_8  and  C_9
REMARK    7  A    between atoms: C_12  and  N_13
REMARK                            x       y       z     vdW  Elec       q    Type
REMARK                         _______ _______ _______ _____ _____    ______ ____
ROOT
ATOM      1  C   UNL     1       5.415   6.286  17.846  0.00  0.00    +0.000 C 
ENDROOT
BRANCH   1   2
ATOM      2  C   UNL     1       4.378   5.290  18.308  0.00  0.00    +0.000 A 
ATOM      3  C   UNL     1       3.015   5.590  18.186  0.00  0.00    +0.000 A 
ATOM      4  C   UNL     1       2.048   4.722  18.696  0.00  0.00    +0.000 A 
ATOM      5  C   UNL     1       2.414   3.511  19.283  0.00  0.00    +0.000 A 
ATOM      6  C   UNL     1       3.774   3.216  19.412  0.00  0.00    +0.000 A 
ATOM      7  C   UNL     1       4.750   4.086  18.912  0.00  0.00    +0.000 A 
BRANCH   5   8
ATOM      8  N   UNL     1       1.457   2.732  19.944  0.00  0.00    +0.000 N 
ATOM      9  H   UNL     1       1.817   2.239  20.755  0.00  0.00    +0.000 HD
ATOM     10  H   UNL     1       0.590   3.221  20.139  0.00  0.00    +0.000 HD
ENDBRANCH   5   8
ENDBRANCH   1   2
BRANCH   1  13
ATOM     11  C   UNL     1       6.275   5.042  14.417  0.00  0.00    +0.000 C 
ATOM     12  C   UNL     1       5.196   5.312  15.440  0.00  0.00    +0.000 C 
ATOM     13  C   UNL     1       6.021   5.875  16.532  0.00  0.00    +0.000 C 
ATOM     14  N   UNL     1       7.292   5.954  16.301  0.00  0.00    +0.000 NA
ATOM     15  O   UNL     1       7.528   5.416  15.021  0.00  0.00    +0.000 OA
BRANCH  11  16
ATOM     16  C   UNL     1       6.363   3.570  13.972  0.00  0.00    +0.000 C 
BRANCH  16  18
ATOM     17  C   UNL     1       4.990   3.379  11.963  0.00  0.00    +0.000 C 
ATOM     18  N   UNL     1       6.347   3.342  12.509  0.00  0.00    +0.000 NA
ATOM     19  C   UNL     1       7.168   4.364  11.847  0.00  0.00    +0.000 C 
ENDBRANCH  16  18
ENDBRANCH  11  16
ENDBRANCH   1  13
TORSDOF 5
ENDMDL
MODEL 9
REMARK VINA RESULT:      -5.9      1.680      2.125
REMARK  Name = 
REMARK  7 active torsions:
REMARK  status: ('A' for Active; 'I' for Inactive)
REMARK    1  A    between atoms: C_1  and  N_2
REMARK    2  A    between atoms: N_2  and  C_3
REMARK    3  A    between atoms: N_2  and  C_4
REMARK    4  A    between atoms: C_4  and  C_5
REMARK    5  A    between atoms: C_7  and  C_8
REMARK    6  A    between atoms: C_8  and  C_9
REMARK    7  A    between atoms: C_12  and  N_13
REMARK                            x       y       z     vdW  Elec       q    Type
REMARK                         _______ _______ _______ _____ _____    ______ ____
ROOT
ATOM      1  C   UNL     1       2.872   5.258  17.557  0.00  0.00    +0.000 C 
ENDROOT
BRANCH   1   2
ATOM      2  C   UNL     1       2.377   4.530  18.783  0.00  0.00    +0.000 A 
ATOM      3  C   UNL     1       2.479   5.131  20.045  0.00  0.00    +0.000 A 
ATOM      4  C   UNL     1       2.114   4.432  21.197  0.00  0.00    +0.000 A 
ATOM      5  C   UNL     1       1.585   3.144  21.113  0.00  0.00    +0.000 A 
ATOM      6  C   UNL     1       1.492   2.541  19.855  0.00  0.00    +0.000 A 
ATOM      7  C   UNL     1       1.865   3.232  18.697  0.00  0.00    +0.000 A 
BRANCH   5   8
ATOM      8  N   UNL     1       1.386   2.389  22.275  0.00  0.00    +0.000 N 
ATOM      9  H   UNL     1       2.243   2.167  22.772  0.00  0.00    +0.000 HD
ATOM     10  H   UNL     1       0.665   2.755  22.887  0.00  0.00    +0.000 HD
ENDBRANCH   5   8
ENDBRANCH   1   2
BRANCH   1  13
ATOM     11  C   UNL     1       6.509   5.403  16.660  0.00  0.00    +0.000 C 
ATOM     12  C   UNL     1       5.098   5.841  16.337  0.00  0.00    +0.000 C 
ATOM     13  C   UNL     1       4.369   5.171  17.437  0.00  0.00    +0.000 C 
ATOM     14  N   UNL     1       5.091   4.479  18.258  0.00  0.00    +0.000 NA
ATOM     15  O   UNL     1       6.426   4.543  17.813  0.00  0.00    +0.000 OA
BRANCH  11  16
ATOM     16  C   UNL     1       7.201   4.632  15.520  0.00  0.00    +0.000 C 
BRANCH  16  18
ATOM     17  C   UNL     1       7.878   5.382  13.298  0.00  0.00    +0.000 C 
ATOM     18  N   UNL     1       6.758   4.982  14.151  0.00  0.00    +0.000 NA
ATOM     19  C   UNL     1       6.073   3.831  13.551  0.00  0.00    +0.000 C 
ENDBRANCH  16  18
ENDBRANCH  11  16
ENDBRANCH   1  13
TORSDOF 5
ENDMDL
