MODEL 1
REMARK VINA RESULT:      -7.9      0.000      0.000
REMARK  Name = 
REMARK  10 active torsions:
REMARK  status: ('A' for Active; 'I' for Inactive)
REMARK    1  A    between atoms: C_1  and  O_2
REMARK    2  A    between atoms: O_2  and  C_3
REMARK    3  A    between atoms: C_8  and  C_9
REMARK    4  A    between atoms: C_10  and  C_11
REMARK    5  A    between atoms: C_11  and  C_12
REMARK    6  A    between atoms: C_12  and  N_13
REMARK    7  A    between atoms: N_13  and  C_14
REMARK    8  A    between atoms: C_14  and  C_15
REMARK    9  A    between atoms: C_17  and  O_18
REMARK   10  A    between atoms: O_18  and  C_19
REMARK                            x       y       z     vdW  Elec       q    Type
REMARK                         _______ _______ _______ _____ _____    ______ ____
ROOT
ATOM      1  C   UNL     1       1.864   4.924  19.978  0.00  0.00    +0.000 C 
ENDROOT
BRANCH   1   2
ATOM      2  N   UNL     1       2.038   4.331  18.644  0.00  0.00    +0.000 NA
ATOM      3  H   UNL     1       2.337   5.051  17.987  0.00  0.00    +0.000 HD
BRANCH   2   4
ATOM      4  C   UNL     1       3.053   3.278  18.679  0.00  0.00    +0.000 C 
BRANCH   4   5
ATOM      5  C   UNL     1       4.302   3.677  17.927  0.00  0.00    +0.000 A 
ATOM      6  C   UNL     1       5.447   4.131  18.624  0.00  0.00    +0.000 A 
ATOM      7  C   UNL     1       6.603   4.565  17.952  0.00  0.00    +0.000 A 
ATOM      8  C   UNL     1       6.575   4.543  16.569  0.00  0.00    +0.000 A 
ATOM      9  C   UNL     1       5.464   4.093  15.886  0.00  0.00    +0.000 A 
ATOM     10  C   UNL     1       4.325   3.649  16.527  0.00  0.00    +0.000 A 
ATOM     11  O   UNL     1       5.613   4.152  14.534  0.00  0.00    +0.000 OA
ATOM     12  C   UNL     1       6.907   4.769  14.434  0.00  0.00    +0.000 C 
ATOM     13  O   UNL     1       7.554   4.942  15.708  0.00  0.00    +0.000 OA
BRANCH   7  14
ATOM     14  O   UNL     1       7.617   4.972  18.770  0.00  0.00    +0.000 OA
ATOM     15  C   UNL     1       7.900   6.364  18.806  0.00  0.00    +0.000 C 
ENDBRANCH   7  14
ENDBRANCH   4   5
ENDBRANCH   2   4
ENDBRANCH   1   2
BRANCH   1  16
ATOM     16  C   UNL     1       2.830   6.098  20.197  0.00  0.00    +0.000 C 
BRANCH  16  24
ATOM     17  C   UNL     1      -0.122   9.534  21.451  0.00  0.00    +0.000 A 
ATOM     18  C   UNL     1      -0.260  10.503  20.458  0.00  0.00    +0.000 A 
ATOM     19  C   UNL     1       0.439  10.407  19.249  0.00  0.00    +0.000 A 
ATOM     20  C   UNL     1       1.279   9.305  19.071  0.00  0.00    +0.000 A 
ATOM     21  N   UNL     1       2.077   8.972  18.005  0.00  0.00    +0.000 N 
ATOM     22  C   UNL     1       2.747   7.800  18.250  0.00  0.00    +0.000 A 
ATOM     23  C   UNL     1       3.687   7.238  17.245  0.00  0.00    +0.000 C 
ATOM     24  C   UNL     1       2.365   7.350  19.504  0.00  0.00    +0.000 A 
ATOM     25  C   UNL     1       1.440   8.311  20.033  0.00  0.00    +0.000 A 
ATOM     26  C   UNL     1       0.721   8.433  21.241  0.00  0.00    +0.000 A 
ATOM     27  H   UNL     1       2.161   9.524  17.164  0.00  0.00    +0.000 HD
BRANCH  17  29
ATOM     28  C   UNL     1      -1.174  10.820  23.148  0.00  0.00    +0.000 C 
ATOM     29  O   UNL     1      -0.754   9.549  22.667  0.00  0.00    +0.000 OA
ENDBRANCH  17  29
ENDBRANCH  16  24
ENDBRANCH   1  16
TORSDOF 7
ENDMDL
MODEL 2
REMARK VINA RESULT:      -7.6      1.912      8.249
REMARK  Name = 
REMARK  10 active torsions:
REMARK  status: ('A' for Active; 'I' for Inactive)
REMARK    1  A    between atoms: C_1  and  O_2
REMARK    2  A    between atoms: O_2  and  C_3
REMARK    3  A    between atoms: C_8  and  C_9
REMARK    4  A    between atoms: C_10  and  C_11
REMARK    5  A    between atoms: C_11  and  C_12
REMARK    6  A    between atoms: C_12  and  N_13
REMARK    7  A    between atoms: N_13  and  C_14
REMARK    8  A    between atoms: C_14  and  C_15
REMARK    9  A    between atoms: C_17  and  O_18
REMARK   10  A    between atoms: O_18  and  C_19
REMARK                            x       y       z     vdW  Elec       q    Type
REMARK                         _______ _______ _______ _____ _____    ______ ____
ROOT
ATOM      1  C   UNL     1       1.836   5.194  19.584  0.00  0.00    +0.000 C 
ENDROOT
BRANCH   1   2
ATOM      2  N   UNL     1       2.355   6.341  20.343  0.00  0.00    +0.000 NA
ATOM      3  H   UNL     1       3.321   6.162  20.615  0.00  0.00    +0.000 HD
BRANCH   2   4
ATOM      4  C   UNL     1       2.315   7.556  19.529  0.00  0.00    +0.000 C 
BRANCH   4   5
ATOM      5  C   UNL     1       1.331   8.566  20.076  0.00  0.00    +0.000 A 
ATOM      6  C   UNL     1       0.826   9.598  19.249  0.00  0.00    +0.000 A 
ATOM      7  C   UNL     1      -0.043  10.586  19.742  0.00  0.00    +0.000 A 
ATOM      8  C   UNL     1      -0.381  10.519  21.082  0.00  0.00    +0.000 A 
ATOM      9  C   UNL     1       0.102   9.509  21.889  0.00  0.00    +0.000 A 
ATOM     10  C   UNL     1       0.945   8.521  21.421  0.00  0.00    +0.000 A 
ATOM     11  O   UNL     1      -0.327   9.609  23.177  0.00  0.00    +0.000 OA
ATOM     12  C   UNL     1      -1.067  10.840  23.118  0.00  0.00    +0.000 C 
ATOM     13  O   UNL     1      -1.175  11.375  21.787  0.00  0.00    +0.000 OA
BRANCH   7  14
ATOM     14  O   UNL     1      -0.437  11.508  18.817  0.00  0.00    +0.000 OA
ATOM     15  C   UNL     1      -1.815  11.527  18.467  0.00  0.00    +0.000 C 
ENDBRANCH   7  14
ENDBRANCH   4   5
ENDBRANCH   2   4
ENDBRANCH   1   2
BRANCH   1  16
ATOM     16  C   UNL     1       2.140   5.333  18.085  0.00  0.00    +0.000 C 
BRANCH  16  24
ATOM     17  C   UNL     1       6.497   6.798  17.105  0.00  0.00    +0.000 A 
ATOM     18  C   UNL     1       7.346   5.745  16.769  0.00  0.00    +0.000 A 
ATOM     19  C   UNL     1       6.891   4.422  16.755  0.00  0.00    +0.000 A 
ATOM     20  C   UNL     1       5.554   4.192  17.087  0.00  0.00    +0.000 A 
ATOM     21  N   UNL     1       4.858   3.012  17.162  0.00  0.00    +0.000 N 
ATOM     22  C   UNL     1       3.557   3.240  17.534  0.00  0.00    +0.000 A 
ATOM     23  C   UNL     1       2.604   2.111  17.696  0.00  0.00    +0.000 C 
ATOM     24  C   UNL     1       3.398   4.608  17.693  0.00  0.00    +0.000 A 
ATOM     25  C   UNL     1       4.669   5.214  17.420  0.00  0.00    +0.000 A 
ATOM     26  C   UNL     1       5.155   6.539  17.424  0.00  0.00    +0.000 A 
ATOM     27  H   UNL     1       5.258   2.104  16.976  0.00  0.00    +0.000 HD
BRANCH  17  29
ATOM     28  C   UNL     1       8.056   8.425  17.854  0.00  0.00    +0.000 C 
ATOM     29  O   UNL     1       6.854   8.120  17.158  0.00  0.00    +0.000 OA
ENDBRANCH  17  29
ENDBRANCH  16  24
ENDBRANCH   1  16
TORSDOF 7
ENDMDL
MODEL 3
REMARK VINA RESULT:      -7.5      2.021      8.923
REMARK  Name = 
REMARK  10 active torsions:
REMARK  status: ('A' for Active; 'I' for Inactive)
REMARK    1  A    between atoms: C_1  and  O_2
REMARK    2  A    between atoms: O_2  and  C_3
REMARK    3  A    between atoms: C_8  and  C_9
REMARK    4  A    between atoms: C_10  and  C_11
REMARK    5  A    between atoms: C_11  and  C_12
REMARK    6  A    between atoms: C_12  and  N_13
REMARK    7  A    between atoms: N_13  and  C_14
REMARK    8  A    between atoms: C_14  and  C_15
REMARK    9  A    between atoms: C_17  and  O_18
REMARK   10  A    between atoms: O_18  and  C_19
REMARK                            x       y       z     vdW  Elec       q    Type
REMARK                         _______ _______ _______ _____ _____    ______ ____
ROOT
ATOM      1  C   UNL     1       2.377   6.576  19.986  0.00  0.00    +0.000 C 
ENDROOT
BRANCH   1   2
ATOM      2  N   UNL     1       1.815   7.788  20.601  0.00  0.00    +0.000 NA
ATOM      3  H   UNL     1       2.514   8.219  21.205  0.00  0.00    +0.000 HD
BRANCH   2   4
ATOM      4  C   UNL     1       1.424   8.752  19.572  0.00  0.00    +0.000 C 
BRANCH   4   5
ATOM      5  C   UNL     1       0.437   9.768  20.102  0.00  0.00    +0.000 A 
ATOM      6  C   UNL     1      -0.469  10.413  19.227  0.00  0.00    +0.000 A 
ATOM      7  C   UNL     1      -1.359  11.403  19.677  0.00  0.00    +0.000 A 
ATOM      8  C   UNL     1      -1.306  11.736  21.019  0.00  0.00    +0.000 A 
ATOM      9  C   UNL     1      -0.431  11.103  21.877  0.00  0.00    +0.000 A 
ATOM     10  C   UNL     1       0.440  10.118  21.457  0.00  0.00    +0.000 A 
ATOM     11  O   UNL     1      -0.513  11.566  23.155  0.00  0.00    +0.000 OA
ATOM     12  C   UNL     1      -1.476  12.620  22.996  0.00  0.00    +0.000 C 
ATOM     13  O   UNL     1      -2.041  12.680  21.674  0.00  0.00    +0.000 OA
BRANCH   7  14
ATOM     14  O   UNL     1      -2.164  11.926  18.708  0.00  0.00    +0.000 OA
ATOM     15  C   UNL     1      -2.071  11.355  17.410  0.00  0.00    +0.000 C 
ENDBRANCH   7  14
ENDBRANCH   4   5
ENDBRANCH   2   4
ENDBRANCH   1   2
BRANCH   1  16
ATOM     16  C   UNL     1       2.494   6.727  18.462  0.00  0.00    +0.000 C 
BRANCH  16  24
ATOM     17  C   UNL     1       6.748   6.063  16.577  0.00  0.00    +0.000 A 
ATOM     18  C   UNL     1       6.913   4.769  16.084  0.00  0.00    +0.000 A 
ATOM     19  C   UNL     1       5.889   3.820  16.181  0.00  0.00    +0.000 A 
ATOM     20  C   UNL     1       4.694   4.215  16.787  0.00  0.00    +0.000 A 
ATOM     21  N   UNL     1       3.548   3.496  17.020  0.00  0.00    +0.000 N 
ATOM     22  C   UNL     1       2.610   4.272  17.652  0.00  0.00    +0.000 A 
ATOM     23  C   UNL     1       1.284   3.711  18.023  0.00  0.00    +0.000 C 
ATOM     24  C   UNL     1       3.155   5.535  17.825  0.00  0.00    +0.000 A 
ATOM     25  C   UNL     1       4.483   5.498  17.285  0.00  0.00    +0.000 A 
ATOM     26  C   UNL     1       5.533   6.435  17.172  0.00  0.00    +0.000 A 
ATOM     27  H   UNL     1       3.424   2.527  16.765  0.00  0.00    +0.000 HD
BRANCH  17  29
ATOM     28  C   UNL     1       7.747   7.925  17.662  0.00  0.00    +0.000 C 
ATOM     29  O   UNL     1       7.694   7.054  16.539  0.00  0.00    +0.000 OA
ENDBRANCH  17  29
ENDBRANCH  16  24
ENDBRANCH   1  16
TORSDOF 7
ENDMDL
MODEL 4
REMARK VINA RESULT:      -7.5      2.566      8.156
REMARK  Name = 
REMARK  10 active torsions:
REMARK  status: ('A' for Active; 'I' for Inactive)
REMARK    1  A    between atoms: C_1  and  O_2
REMARK    2  A    between atoms: O_2  and  C_3
REMARK    3  A    between atoms: C_8  and  C_9
REMARK    4  A    between atoms: C_10  and  C_11
REMARK    5  A    between atoms: C_11  and  C_12
REMARK    6  A    between atoms: C_12  and  N_13
REMARK    7  A    between atoms: N_13  and  C_14
REMARK    8  A    between atoms: C_14  and  C_15
REMARK    9  A    between atoms: C_17  and  O_18
REMARK   10  A    between atoms: O_18  and  C_19
REMARK                            x       y       z     vdW  Elec       q    Type
REMARK                         _______ _______ _______ _____ _____    ______ ____
ROOT
ATOM      1  C   UNL     1       4.991   3.861  18.237  0.00  0.00    +0.000 C 
ENDROOT
BRANCH   1   2
ATOM      2  N   UNL     1       4.249   4.590  19.276  0.00  0.00    +0.000 NA
ATOM      3  H   UNL     1       4.698   5.489  19.448  0.00  0.00    +0.000 HD
BRANCH   2   4
ATOM      4  C   UNL     1       2.870   4.829  18.850  0.00  0.00    +0.000 C 
BRANCH   4   5
ATOM      5  C   UNL     1       2.452   6.264  19.082  0.00  0.00    +0.000 A 
ATOM      6  C   UNL     1       1.882   6.656  20.316  0.00  0.00    +0.000 A 
ATOM      7  C   UNL     1       1.429   7.967  20.542  0.00  0.00    +0.000 A 
ATOM      8  C   UNL     1       1.552   8.866  19.498  0.00  0.00    +0.000 A 
ATOM      9  C   UNL     1       2.116   8.490  18.296  0.00  0.00    +0.000 A 
ATOM     10  C   UNL     1       2.580   7.212  18.060  0.00  0.00    +0.000 A 
ATOM     11  O   UNL     1       2.146   9.502  17.385  0.00  0.00    +0.000 OA
ATOM     12  C   UNL     1       1.462  10.536  18.111  0.00  0.00    +0.000 C 
ATOM     13  O   UNL     1       1.159  10.172  19.470  0.00  0.00    +0.000 OA
BRANCH   7  14
ATOM     14  O   UNL     1       0.904   8.181  21.783  0.00  0.00    +0.000 OA
ATOM     15  C   UNL     1       1.458   9.246  22.545  0.00  0.00    +0.000 C 
ENDBRANCH   7  14
ENDBRANCH   4   5
ENDBRANCH   2   4
ENDBRANCH   1   2
BRANCH   1  16
ATOM     16  C   UNL     1       4.563   4.306  16.830  0.00  0.00    +0.000 C 
BRANCH  16  24
ATOM     17  C   UNL     1       5.883   3.437  12.404  0.00  0.00    +0.000 A 
ATOM     18  C   UNL     1       7.071   4.087  12.068  0.00  0.00    +0.000 A 
ATOM     19  C   UNL     1       7.738   4.900  12.991  0.00  0.00    +0.000 A 
ATOM     20  C   UNL     1       7.176   5.037  14.261  0.00  0.00    +0.000 A 
ATOM     21  N   UNL     1       7.607   5.769  15.339  0.00  0.00    +0.000 N 
ATOM     22  C   UNL     1       6.745   5.627  16.398  0.00  0.00    +0.000 A 
ATOM     23  C   UNL     1       6.993   6.336  17.680  0.00  0.00    +0.000 C 
ATOM     24  C   UNL     1       5.732   4.768  16.003  0.00  0.00    +0.000 A 
ATOM     25  C   UNL     1       5.997   4.400  14.642  0.00  0.00    +0.000 A 
ATOM     26  C   UNL     1       5.346   3.584  13.691  0.00  0.00    +0.000 A 
ATOM     27  H   UNL     1       8.441   6.339  15.341  0.00  0.00    +0.000 HD
BRANCH  17  29
ATOM     28  C   UNL     1       3.893   3.135  11.144  0.00  0.00    +0.000 C 
ATOM     29  O   UNL     1       5.155   2.632  11.567  0.00  0.00    +0.000 OA
ENDBRANCH  17  29
ENDBRANCH  16  24
ENDBRANCH   1  16
TORSDOF 7
ENDMDL
MODEL 5
REMARK VINA RESULT:      -7.1      1.771      8.376
REMARK  Name = 
REMARK  10 active torsions:
REMARK  status: ('A' for Active; 'I' for Inactive)
REMARK    1  A    between atoms: C_1  and  O_2
REMARK    2  A    between atoms: O_2  and  C_3
REMARK    3  A    between atoms: C_8  and  C_9
REMARK    4  A    between atoms: C_10  and  C_11
REMARK    5  A    between atoms: C_11  and  C_12
REMARK    6  A    between atoms: C_12  and  N_13
REMARK    7  A    between atoms: N_13  and  C_14
REMARK    8  A    between atoms: C_14  and  C_15
REMARK    9  A    between atoms: C_17  and  O_18
REMARK   10  A    between atoms: O_18  and  C_19
REMARK                            x       y       z     vdW  Elec       q    Type
REMARK                         _______ _______ _______ _____ _____    ______ ____
ROOT
ATOM      1  C   UNL     1       1.405   5.499  20.745  0.00  0.00    +0.000 C 
ENDROOT
BRANCH   1   2
ATOM      2  N   UNL     1       1.876   6.813  21.206  0.00  0.00    +0.000 NA
ATOM      3  H   UNL     1       2.845   6.740  21.514  0.00  0.00    +0.000 HD
BRANCH   2   4
ATOM      4  C   UNL     1       1.802   7.794  20.122  0.00  0.00    +0.000 C 
BRANCH   4   5
ATOM      5  C   UNL     1       0.923   8.968  20.487  0.00  0.00    +0.000 A 
ATOM      6  C   UNL     1       0.615   9.961  19.527  0.00  0.00    +0.000 A 
ATOM      7  C   UNL     1      -0.151  11.094  19.850  0.00  0.00    +0.000 A 
ATOM      8  C   UNL     1      -0.587  11.210  21.158  0.00  0.00    +0.000 A 
ATOM      9  C   UNL     1      -0.297  10.240  22.094  0.00  0.00    +0.000 A 
ATOM     10  C   UNL     1       0.441   9.113  21.794  0.00  0.00    +0.000 A 
ATOM     11  O   UNL     1      -0.799  10.526  23.328  0.00  0.00    +0.000 OA
ATOM     12  C   UNL     1      -1.366  11.825  23.091  0.00  0.00    +0.000 C 
ATOM     13  O   UNL     1      -1.310  12.226  21.710  0.00  0.00    +0.000 OA
BRANCH   7  14
ATOM     14  O   UNL     1      -0.356  11.956  18.812  0.00  0.00    +0.000 OA
ATOM     15  C   UNL     1       0.633  12.954  18.594  0.00  0.00    +0.000 C 
ENDBRANCH   7  14
ENDBRANCH   4   5
ENDBRANCH   2   4
ENDBRANCH   1   2
BRANCH   1  16
ATOM     16  C   UNL     1       2.561   4.492  20.655  0.00  0.00    +0.000 C 
BRANCH  16  24
ATOM     17  C   UNL     1       6.020   5.621  17.680  0.00  0.00    +0.000 A 
ATOM     18  C   UNL     1       5.868   5.011  16.436  0.00  0.00    +0.000 A 
ATOM     19  C   UNL     1       4.789   4.161  16.172  0.00  0.00    +0.000 A 
ATOM     20  C   UNL     1       3.866   3.945  17.198  0.00  0.00    +0.000 A 
ATOM     21  N   UNL     1       2.739   3.164  17.215  0.00  0.00    +0.000 N 
ATOM     22  C   UNL     1       2.119   3.233  18.438  0.00  0.00    +0.000 A 
ATOM     23  C   UNL     1       0.879   2.460  18.708  0.00  0.00    +0.000 C 
ATOM     24  C   UNL     1       2.858   4.095  19.235  0.00  0.00    +0.000 A 
ATOM     25  C   UNL     1       3.974   4.541  18.452  0.00  0.00    +0.000 A 
ATOM     26  C   UNL     1       5.072   5.396  18.690  0.00  0.00    +0.000 A 
ATOM     27  H   UNL     1       2.420   2.609  16.434  0.00  0.00    +0.000 HD
BRANCH  17  29
ATOM     28  C   UNL     1       7.922   5.990  19.054  0.00  0.00    +0.000 C 
ATOM     29  O   UNL     1       7.046   6.457  18.035  0.00  0.00    +0.000 OA
ENDBRANCH  17  29
ENDBRANCH  16  24
ENDBRANCH   1  16
TORSDOF 7
ENDMDL
MODEL 6
REMARK VINA RESULT:      -7.1      5.136      7.801
REMARK  Name = 
REMARK  10 active torsions:
REMARK  status: ('A' for Active; 'I' for Inactive)
REMARK    1  A    between atoms: C_1  and  O_2
REMARK    2  A    between atoms: O_2  and  C_3
REMARK    3  A    between atoms: C_8  and  C_9
REMARK    4  A    between atoms: C_10  and  C_11
REMARK    5  A    between atoms: C_11  and  C_12
REMARK    6  A    between atoms: C_12  and  N_13
REMARK    7  A    between atoms: N_13  and  C_14
REMARK    8  A    between atoms: C_14  and  C_15
REMARK    9  A    between atoms: C_17  and  O_18
REMARK   10  A    between atoms: O_18  and  C_19
REMARK                            x       y       z     vdW  Elec       q    Type
REMARK                         _______ _______ _______ _____ _____    ______ ____
ROOT
ATOM      1  C   UNL     1       7.334   7.158  17.697  0.00  0.00    +0.000 C 
ENDROOT
BRANCH   1   2
ATOM      2  N   UNL     1       7.933   8.453  17.344  0.00  0.00    +0.000 NA
ATOM      3  H   UNL     1       7.201   9.096  17.041  0.00  0.00    +0.000 HD
BRANCH   2   4
ATOM      4  C   UNL     1       8.619   9.034  18.498  0.00  0.00    +0.000 C 
BRANCH   4   5
ATOM      5  C   UNL     1       9.005  10.475  18.255  0.00  0.00    +0.000 A 
ATOM      6  C   UNL     1       8.029  11.425  17.870  0.00  0.00    +0.000 A 
ATOM      7  C   UNL     1       8.365  12.759  17.579  0.00  0.00    +0.000 A 
ATOM      8  C   UNL     1       9.701  13.108  17.672  0.00  0.00    +0.000 A 
ATOM      9  C   UNL     1      10.653  12.187  18.057  0.00  0.00    +0.000 A 
ATOM     10  C   UNL     1      10.342  10.877  18.360  0.00  0.00    +0.000 A 
ATOM     11  O   UNL     1      11.912  12.706  18.084  0.00  0.00    +0.000 OA
ATOM     12  C   UNL     1      11.665  14.034  17.594  0.00  0.00    +0.000 C 
ATOM     13  O   UNL     1      10.266  14.322  17.411  0.00  0.00    +0.000 OA
BRANCH   7  14
ATOM     14  O   UNL     1       7.309  13.546  17.222  0.00  0.00    +0.000 OA
ATOM     15  C   UNL     1       7.114  14.742  17.964  0.00  0.00    +0.000 C 
ENDBRANCH   7  14
ENDBRANCH   4   5
ENDBRANCH   2   4
ENDBRANCH   1   2
BRANCH   1  16
ATOM     16  C   UNL     1       5.931   7.007  17.090  0.00  0.00    +0.000 C 
BRANCH  16  24
ATOM     17  C   UNL     1       3.000   4.185  19.442  0.00  0.00    +0.000 A 
ATOM     18  C   UNL     1       2.972   2.894  18.916  0.00  0.00    +0.000 A 
ATOM     19  C   UNL     1       3.747   2.547  17.804  0.00  0.00    +0.000 A 
ATOM     20  C   UNL     1       4.552   3.538  17.240  0.00  0.00    +0.000 A 
ATOM     21  N   UNL     1       5.392   3.477  16.156  0.00  0.00    +0.000 N 
ATOM     22  C   UNL     1       5.992   4.691  15.938  0.00  0.00    +0.000 A 
ATOM     23  C   UNL     1       6.940   4.880  14.808  0.00  0.00    +0.000 C 
ATOM     24  C   UNL     1       5.541   5.565  16.916  0.00  0.00    +0.000 A 
ATOM     25  C   UNL     1       4.618   4.837  17.738  0.00  0.00    +0.000 A 
ATOM     26  C   UNL     1       3.827   5.159  18.862  0.00  0.00    +0.000 A 
ATOM     27  H   UNL     1       5.535   2.649  15.595  0.00  0.00    +0.000 HD
BRANCH  17  29
ATOM     28  C   UNL     1       2.064   3.681  21.566  0.00  0.00    +0.000 C 
ATOM     29  O   UNL     1       2.270   4.620  20.518  0.00  0.00    +0.000 OA
ENDBRANCH  17  29
ENDBRANCH  16  24
ENDBRANCH   1  16
TORSDOF 7
ENDMDL
MODEL 7
REMARK VINA RESULT:      -7.1      1.108      1.412
REMARK  Name = 
REMARK  10 active torsions:
REMARK  status: ('A' for Active; 'I' for Inactive)
REMARK    1  A    between atoms: C_1  and  O_2
REMARK    2  A    between atoms: O_2  and  C_3
REMARK    3  A    between atoms: C_8  and  C_9
REMARK    4  A    between atoms: C_10  and  C_11
REMARK    5  A    between atoms: C_11  and  C_12
REMARK    6  A    between atoms: C_12  and  N_13
REMARK    7  A    between atoms: N_13  and  C_14
REMARK    8  A    between atoms: C_14  and  C_15
REMARK    9  A    between atoms: C_17  and  O_18
REMARK   10  A    between atoms: O_18  and  C_19
REMARK                            x       y       z     vdW  Elec       q    Type
REMARK                         _______ _______ _______ _____ _____    ______ ____
ROOT
ATOM      1  C   UNL     1       1.712   6.220  20.259  0.00  0.00    +0.000 C 
ENDROOT
BRANCH   1   2
ATOM      2  N   UNL     1       2.999   5.516  20.171  0.00  0.00    +0.000 NA
ATOM      3  H   UNL     1       3.218   5.090  21.072  0.00  0.00    +0.000 HD
BRANCH   2   4
ATOM      4  C   UNL     1       2.942   4.464  19.157  0.00  0.00    +0.000 C 
BRANCH   4   5
ATOM      5  C   UNL     1       4.184   4.446  18.295  0.00  0.00    +0.000 A 
ATOM      6  C   UNL     1       5.459   4.671  18.867  0.00  0.00    +0.000 A 
ATOM      7  C   UNL     1       6.625   4.719  18.085  0.00  0.00    +0.000 A 
ATOM      8  C   UNL     1       6.479   4.550  16.720  0.00  0.00    +0.000 A 
ATOM      9  C   UNL     1       5.239   4.322  16.159  0.00  0.00    +0.000 A 
ATOM     10  C   UNL     1       4.083   4.256  16.911  0.00  0.00    +0.000 A 
ATOM     11  O   UNL     1       5.285   4.190  14.805  0.00  0.00    +0.000 OA
ATOM     12  C   UNL     1       6.678   4.443  14.559  0.00  0.00    +0.000 C 
ATOM     13  O   UNL     1       7.451   4.589  15.764  0.00  0.00    +0.000 OA
BRANCH   7  14
ATOM     14  O   UNL     1       7.772   4.945  18.789  0.00  0.00    +0.000 OA
ATOM     15  C   UNL     1       8.089   6.297  19.094  0.00  0.00    +0.000 C 
ENDBRANCH   7  14
ENDBRANCH   4   5
ENDBRANCH   2   4
ENDBRANCH   1   2
BRANCH   1  16
ATOM     16  C   UNL     1       1.865   7.579  20.958  0.00  0.00    +0.000 C 
BRANCH  16  24
ATOM     17  C   UNL     1      -0.832  11.317  21.878  0.00  0.00    +0.000 A 
ATOM     18  C   UNL     1      -1.047  12.105  20.748  0.00  0.00    +0.000 A 
ATOM     19  C   UNL     1      -0.486  11.769  19.511  0.00  0.00    +0.000 A 
ATOM     20  C   UNL     1       0.297  10.614  19.446  0.00  0.00    +0.000 A 
ATOM     21  N   UNL     1       0.965  10.065  18.381  0.00  0.00    +0.000 N 
ATOM     22  C   UNL     1       1.623   8.921  18.759  0.00  0.00    +0.000 A 
ATOM     23  C   UNL     1       2.432   8.150  17.780  0.00  0.00    +0.000 C 
ATOM     24  C   UNL     1       1.365   8.713  20.106  0.00  0.00    +0.000 A 
ATOM     25  C   UNL     1       0.531   9.794  20.547  0.00  0.00    +0.000 A 
ATOM     26  C   UNL     1      -0.049  10.156  21.781  0.00  0.00    +0.000 A 
ATOM     27  H   UNL     1       0.974  10.459  17.451  0.00  0.00    +0.000 HD
BRANCH  17  29
ATOM     28  C   UNL     1      -2.674  12.026  23.197  0.00  0.00    +0.000 C 
ATOM     29  O   UNL     1      -1.328  11.571  23.129  0.00  0.00    +0.000 OA
ENDBRANCH  17  29
ENDBRANCH  16  24
ENDBRANCH   1  16
TORSDOF 7
ENDMDL
MODEL 8
REMARK VINA RESULT:      -7.1      2.497      8.679
REMARK  Name = 
REMARK  10 active torsions:
REMARK  status: ('A' for Active; 'I' for Inactive)
REMARK    1  A    between atoms: C_1  and  O_2
REMARK    2  A    between atoms: O_2  and  C_3
REMARK    3  A    between atoms: C_8  and  C_9
REMARK    4  A    between atoms: C_10  and  C_11
REMARK    5  A    between atoms: C_11  and  C_12
REMARK    6  A    between atoms: C_12  and  N_13
REMARK    7  A    between atoms: N_13  and  C_14
REMARK    8  A    between atoms: C_14  and  C_15
REMARK    9  A    between atoms: C_17  and  O_18
REMARK   10  A    between atoms: O_18  and  C_19
REMARK                            x       y       z     vdW  Elec       q    Type
REMARK                         _______ _______ _______ _____ _____    ______ ____
ROOT
ATOM      1  C   UNL     1       2.254   7.184  19.721  0.00  0.00    +0.000 C 
ENDROOT
BRANCH   1   2
ATOM      2  N   UNL     1       1.540   8.411  20.100  0.00  0.00    +0.000 NA
ATOM      3  H   UNL     1       2.041   8.878  20.855  0.00  0.00    +0.000 HD
BRANCH   2   4
ATOM      4  C   UNL     1       1.450   9.326  18.962  0.00  0.00    +0.000 C 
BRANCH   4   5
ATOM      5  C   UNL     1       0.161  10.116  18.978  0.00  0.00    +0.000 A 
ATOM      6  C   UNL     1      -0.169  10.930  20.088  0.00  0.00    +0.000 A 
ATOM      7  C   UNL     1      -1.386  11.630  20.160  0.00  0.00    +0.000 A 
ATOM      8  C   UNL     1      -2.263  11.483  19.100  0.00  0.00    +0.000 A 
ATOM      9  C   UNL     1      -1.941  10.698  18.012  0.00  0.00    +0.000 A 
ATOM     10  C   UNL     1      -0.746  10.014  17.916  0.00  0.00    +0.000 A 
ATOM     11  O   UNL     1      -2.926  10.664  17.072  0.00  0.00    +0.000 OA
ATOM     12  C   UNL     1      -3.942  11.445  17.722  0.00  0.00    +0.000 C 
ATOM     13  O   UNL     1      -3.503  12.032  18.960  0.00  0.00    +0.000 OA
BRANCH   7  14
ATOM     14  O   UNL     1      -1.551  12.368  21.296  0.00  0.00    +0.000 OA
ATOM     15  C   UNL     1      -0.401  13.023  21.815  0.00  0.00    +0.000 C 
ENDBRANCH   7  14
ENDBRANCH   4   5
ENDBRANCH   2   4
ENDBRANCH   1   2
BRANCH   1  16
ATOM     16  C   UNL     1       2.397   7.070  18.196  0.00  0.00    +0.000 C 
BRANCH  16  24
ATOM     17  C   UNL     1       6.838   6.420  16.801  0.00  0.00    +0.000 A 
ATOM     18  C   UNL     1       7.111   5.084  16.508  0.00  0.00    +0.000 A 
ATOM     19  C   UNL     1       6.129   4.097  16.644  0.00  0.00    +0.000 A 
ATOM     20  C   UNL     1       4.865   4.495  17.083  0.00  0.00    +0.000 A 
ATOM     21  N   UNL     1       3.738   3.745  17.311  0.00  0.00    +0.000 N 
ATOM     22  C   UNL     1       2.707   4.541  17.746  0.00  0.00    +0.000 A 
ATOM     23  C   UNL     1       1.381   3.955  18.073  0.00  0.00    +0.000 C 
ATOM     24  C   UNL     1       3.172   5.846  17.789  0.00  0.00    +0.000 A 
ATOM     25  C   UNL     1       4.546   5.818  17.379  0.00  0.00    +0.000 A 
ATOM     26  C   UNL     1       5.555   6.794  17.230  0.00  0.00    +0.000 A 
ATOM     27  H   UNL     1       3.685   2.745  17.183  0.00  0.00    +0.000 HD
BRANCH  17  29
ATOM     28  C   UNL     1       7.989   8.180  17.904  0.00  0.00    +0.000 C 
ATOM     29  O   UNL     1       7.734   7.452  16.709  0.00  0.00    +0.000 OA
ENDBRANCH  17  29
ENDBRANCH  16  24
ENDBRANCH   1  16
TORSDOF 7
ENDMDL
MODEL 9
REMARK VINA RESULT:      -7.1      1.932      8.188
REMARK  Name = 
REMARK  10 active torsions:
REMARK  status: ('A' for Active; 'I' for Inactive)
REMARK    1  A    between atoms: C_1  and  O_2
REMARK    2  A    between atoms: O_2  and  C_3
REMARK    3  A    between atoms: C_8  and  C_9
REMARK    4  A    between atoms: C_10  and  C_11
REMARK    5  A    between atoms: C_11  and  C_12
REMARK    6  A    between atoms: C_12  and  N_13
REMARK    7  A    between atoms: N_13  and  C_14
REMARK    8  A    between atoms: C_14  and  C_15
REMARK    9  A    between atoms: C_17  and  O_18
REMARK   10  A    between atoms: O_18  and  C_19
REMARK                            x       y       z     vdW  Elec       q    Type
REMARK                         _______ _______ _______ _____ _____    ______ ____
ROOT
ATOM      1  C   UNL     1       2.120   5.303  20.016  0.00  0.00    +0.000 C 
ENDROOT
BRANCH   1   2
ATOM      2  N   UNL     1       1.785   6.562  20.697  0.00  0.00    +0.000 NA
ATOM      3  H   UNL     1       2.316   6.632  21.564  0.00  0.00    +0.000 HD
BRANCH   2   4
ATOM      4  C   UNL     1       2.114   7.708  19.850  0.00  0.00    +0.000 C 
BRANCH   4   5
ATOM      5  C   UNL     1       1.156   8.858  20.063  0.00  0.00    +0.000 A 
ATOM      6  C   UNL     1       0.554   9.067  21.327  0.00  0.00    +0.000 A 
ATOM      7  C   UNL     1      -0.385  10.090  21.542  0.00  0.00    +0.000 A 
ATOM      8  C   UNL     1      -0.713  10.885  20.459  0.00  0.00    +0.000 A 
ATOM      9  C   UNL     1      -0.122  10.690  19.227  0.00  0.00    +0.000 A 
ATOM     10  C   UNL     1       0.814   9.701  18.999  0.00  0.00    +0.000 A 
ATOM     11  O   UNL     1      -0.572  11.558  18.279  0.00  0.00    +0.000 OA
ATOM     12  C   UNL     1      -1.575  12.269  19.023  0.00  0.00    +0.000 C 
ATOM     13  O   UNL     1      -1.613  11.909  20.416  0.00  0.00    +0.000 OA
BRANCH   7  14
ATOM     14  O   UNL     1      -0.871  10.156  22.816  0.00  0.00    +0.000 OA
ATOM     15  C   UNL     1      -1.484  11.376  23.212  0.00  0.00    +0.000 C 
ENDBRANCH   7  14
ENDBRANCH   4   5
ENDBRANCH   2   4
ENDBRANCH   1   2
BRANCH   1  16
ATOM     16  C   UNL     1       2.207   5.498  18.495  0.00  0.00    +0.000 C 
BRANCH  16  24
ATOM     17  C   UNL     1       6.479   6.657  16.914  0.00  0.00    +0.000 A 
ATOM     18  C   UNL     1       7.173   5.558  16.409  0.00  0.00    +0.000 A 
ATOM     19  C   UNL     1       6.607   4.279  16.412  0.00  0.00    +0.000 A 
ATOM     20  C   UNL     1       5.320   4.140  16.937  0.00  0.00    +0.000 A 
ATOM     21  N   UNL     1       4.542   3.017  17.071  0.00  0.00    +0.000 N 
ATOM     22  C   UNL     1       3.337   3.329  17.648  0.00  0.00    +0.000 A 
ATOM     23  C   UNL     1       2.324   2.273  17.910  0.00  0.00    +0.000 C 
ATOM     24  C   UNL     1       3.324   4.695  17.885  0.00  0.00    +0.000 A 
ATOM     25  C   UNL     1       4.587   5.211  17.443  0.00  0.00    +0.000 A 
ATOM     26  C   UNL     1       5.183   6.491  17.425  0.00  0.00    +0.000 A 
ATOM     27  H   UNL     1       4.829   2.091  16.790  0.00  0.00    +0.000 HD
BRANCH  17  29
ATOM     28  C   UNL     1       7.992   8.198  17.901  0.00  0.00    +0.000 C 
ATOM     29  O   UNL     1       6.954   7.942  16.964  0.00  0.00    +0.000 OA
ENDBRANCH  17  29
ENDBRANCH  16  24
ENDBRANCH   1  16
TORSDOF 7
ENDMDL
