MODEL 1
REMARK VINA RESULT:      -7.7      0.000      0.000
REMARK  Name = 
REMARK  8 active torsions:
REMARK  status: ('A' for Active; 'I' for Inactive)
REMARK    1  A    between atoms: C_1  and  C_2
REMARK    2  A    between atoms: C_2  and  C_3
REMARK    3  A    between atoms: C_3  and  C_4
REMARK    4  A    between atoms: N_6  and  C_7
REMARK    5  A    between atoms: N_10  and  C_11
REMARK    6  A    between atoms: C_11  and  C_12
REMARK    7  A    between atoms: C_18  and  C_19
REMARK    8  A    between atoms: C_20  and  C_21
REMARK                            x       y       z     vdW  Elec       q    Type
REMARK                         _______ _______ _______ _____ _____    ______ ____
ROOT
ATOM      1  C   UNL     1       6.142   6.715  17.112  0.00  0.00    +0.000 A 
ATOM      2  N   UNL     1       6.581   5.533  16.662  0.00  0.00    +0.000 NA
ATOM      3  N   UNL     1       5.499   4.724  16.789  0.00  0.00    +0.000 N 
ATOM      4  C   UNL     1       5.633   3.340  16.399  0.00  0.00    +0.000 C 
ATOM      5  C   UNL     1       4.386   5.346  17.297  0.00  0.00    +0.000 A 
ATOM      6  C   UNL     1       3.066   4.989  17.563  0.00  0.00    +0.000 A 
ATOM      7  N   UNL     1       2.537   3.742  17.276  0.00  0.00    +0.000 N 
ATOM      8  N   UNL     1       2.265   5.970  18.061  0.00  0.00    +0.000 NA
ATOM      9  C   UNL     1       2.763   7.208  18.265  0.00  0.00    +0.000 A 
ATOM     10  N   UNL     1       4.020   7.599  18.050  0.00  0.00    +0.000 NA
ATOM     11  C   UNL     1       4.806   6.638  17.549  0.00  0.00    +0.000 A 
ATOM     12  H   UNL     1       3.202   3.001  17.115  0.00  0.00    +0.000 HD
ENDROOT
BRANCH   9  13
ATOM     13  C   UNL     1       1.826   8.248  18.699  0.00  0.00    +0.000 C 
ATOM     14  C   UNL     1       1.579   9.354  17.975  0.00  0.00    +0.000 C 
BRANCH  14  15
ATOM     15  C   UNL     1       0.628  10.320  18.391  0.00  0.00    +0.000 A 
ATOM     16  C   UNL     1      -0.755  10.302  18.225  0.00  0.00    +0.000 A 
ATOM     17  C   UNL     1      -1.281  11.474  18.818  0.00  0.00    +0.000 A 
ATOM     18  C   UNL     1      -0.202  12.154  19.319  0.00  0.00    +0.000 A 
ATOM     19  O   UNL     1       0.944  11.478  19.068  0.00  0.00    +0.000 OA
ENDBRANCH  14  15
ENDBRANCH   9  13
BRANCH   1  20
ATOM     20  C   UNL     1       6.987   7.942  17.091  0.00  0.00    +0.000 C 
BRANCH  20  22
ATOM     21  C   UNL     1       8.678   9.306  18.466  0.00  0.00    +0.000 C 
ATOM     22  C   UNL     1       8.106   7.929  18.138  0.00  0.00    +0.000 C 
ENDBRANCH  20  22
ENDBRANCH   1  20
BRANCH   7  23
ATOM     23  C   UNL     1       1.427   3.293  18.105  0.00  0.00    +0.000 C 
BRANCH  23  24
ATOM     24  C   UNL     1       1.820   3.159  19.541  0.00  0.00    +0.000 A 
ATOM     25  C   UNL     1       1.240   3.564  20.726  0.00  0.00    +0.000 A 
ATOM     26  C   UNL     1       2.079   3.093  21.764  0.00  0.00    +0.000 A 
ATOM     27  C   UNL     1       3.121   2.438  21.149  0.00  0.00    +0.000 A 
ATOM     28  O   UNL     1       2.975   2.473  19.799  0.00  0.00    +0.000 OA
ENDBRANCH  23  24
ENDBRANCH   7  23
TORSDOF 6
ENDMDL
MODEL 2
REMARK VINA RESULT:      -7.6      2.456      5.486
REMARK  Name = 
REMARK  8 active torsions:
REMARK  status: ('A' for Active; 'I' for Inactive)
REMARK    1  A    between atoms: C_1  and  C_2
REMARK    2  A    between atoms: C_2  and  C_3
REMARK    3  A    between atoms: C_3  and  C_4
REMARK    4  A    between atoms: N_6  and  C_7
REMARK    5  A    between atoms: N_10  and  C_11
REMARK    6  A    between atoms: C_11  and  C_12
REMARK    7  A    between atoms: C_18  and  C_19
REMARK    8  A    between atoms: C_20  and  C_21
REMARK                            x       y       z     vdW  Elec       q    Type
REMARK                         _______ _______ _______ _____ _____    ______ ____
ROOT
ATOM      1  C   UNL     1       1.966   3.398  18.795  0.00  0.00    +0.000 A 
ATOM      2  N   UNL     1       2.605   2.264  18.482  0.00  0.00    +0.000 NA
ATOM      3  N   UNL     1       3.681   2.691  17.775  0.00  0.00    +0.000 N 
ATOM      4  C   UNL     1       4.596   1.700  17.258  0.00  0.00    +0.000 C 
ATOM      5  C   UNL     1       3.757   4.054  17.631  0.00  0.00    +0.000 A 
ATOM      6  C   UNL     1       4.650   4.960  17.063  0.00  0.00    +0.000 A 
ATOM      7  N   UNL     1       5.848   4.587  16.477  0.00  0.00    +0.000 N 
ATOM      8  N   UNL     1       4.329   6.277  17.178  0.00  0.00    +0.000 NA
ATOM      9  C   UNL     1       3.199   6.641  17.821  0.00  0.00    +0.000 A 
ATOM     10  N   UNL     1       2.298   5.820  18.363  0.00  0.00    +0.000 NA
ATOM     11  C   UNL     1       2.619   4.524  18.261  0.00  0.00    +0.000 A 
ATOM     12  H   UNL     1       5.940   3.615  16.227  0.00  0.00    +0.000 HD
ENDROOT
BRANCH   9  13
ATOM     13  C   UNL     1       2.963   8.076  18.008  0.00  0.00    +0.000 C 
ATOM     14  C   UNL     1       1.731   8.616  18.021  0.00  0.00    +0.000 C 
BRANCH  14  15
ATOM     15  C   UNL     1       1.527   9.999  18.257  0.00  0.00    +0.000 A 
ATOM     16  C   UNL     1       0.404  10.631  18.785  0.00  0.00    +0.000 A 
ATOM     17  C   UNL     1       0.672  12.019  18.845  0.00  0.00    +0.000 A 
ATOM     18  C   UNL     1       1.942  12.175  18.353  0.00  0.00    +0.000 A 
ATOM     19  O   UNL     1       2.462  10.976  17.995  0.00  0.00    +0.000 OA
ENDBRANCH  14  15
ENDBRANCH   9  13
BRANCH   1  20
ATOM     20  C   UNL     1       0.743   3.416  19.646  0.00  0.00    +0.000 C 
BRANCH  20  22
ATOM     21  C   UNL     1       2.234   3.515  21.737  0.00  0.00    +0.000 C 
ATOM     22  C   UNL     1       0.989   2.929  21.078  0.00  0.00    +0.000 C 
ENDBRANCH  20  22
ENDBRANCH   1  20
BRANCH   7  23
ATOM     23  C   UNL     1       6.367   5.460  15.432  0.00  0.00    +0.000 C 
BRANCH  23  24
ATOM     24  C   UNL     1       6.493   4.749  14.123  0.00  0.00    +0.000 A 
ATOM     25  C   UNL     1       5.800   3.709  13.537  0.00  0.00    +0.000 A 
ATOM     26  C   UNL     1       6.369   3.521  12.255  0.00  0.00    +0.000 A 
ATOM     27  C   UNL     1       7.377   4.450  12.142  0.00  0.00    +0.000 A 
ATOM     28  O   UNL     1       7.463   5.200  13.271  0.00  0.00    +0.000 OA
ENDBRANCH  23  24
ENDBRANCH   7  23
TORSDOF 6
ENDMDL
MODEL 3
REMARK VINA RESULT:      -7.5      2.665      7.592
REMARK  Name = 
REMARK  8 active torsions:
REMARK  status: ('A' for Active; 'I' for Inactive)
REMARK    1  A    between atoms: C_1  and  C_2
REMARK    2  A    between atoms: C_2  and  C_3
REMARK    3  A    between atoms: C_3  and  C_4
REMARK    4  A    between atoms: N_6  and  C_7
REMARK    5  A    between atoms: N_10  and  C_11
REMARK    6  A    between atoms: C_11  and  C_12
REMARK    7  A    between atoms: C_18  and  C_19
REMARK    8  A    between atoms: C_20  and  C_21
REMARK                            x       y       z     vdW  Elec       q    Type
REMARK                         _______ _______ _______ _____ _____    ______ ____
ROOT
ATOM      1  C   UNL     1       3.343   4.087  19.981  0.00  0.00    +0.000 A 
ATOM      2  N   UNL     1       2.433   4.559  20.842  0.00  0.00    +0.000 NA
ATOM      3  N   UNL     1       2.131   5.785  20.344  0.00  0.00    +0.000 N 
ATOM      4  C   UNL     1       1.169   6.592  21.057  0.00  0.00    +0.000 C 
ATOM      5  C   UNL     1       2.808   6.109  19.196  0.00  0.00    +0.000 A 
ATOM      6  C   UNL     1       2.821   7.178  18.301  0.00  0.00    +0.000 A 
ATOM      7  N   UNL     1       1.980   8.273  18.405  0.00  0.00    +0.000 N 
ATOM      8  N   UNL     1       3.666   7.066  17.241  0.00  0.00    +0.000 NA
ATOM      9  C   UNL     1       4.426   5.960  17.099  0.00  0.00    +0.000 A 
ATOM     10  N   UNL     1       4.472   4.919  17.933  0.00  0.00    +0.000 NA
ATOM     11  C   UNL     1       3.633   5.023  18.970  0.00  0.00    +0.000 A 
ATOM     12  H   UNL     1       1.537   8.413  19.301  0.00  0.00    +0.000 HD
ENDROOT
BRANCH   9  13
ATOM     13  C   UNL     1       5.234   5.849  15.880  0.00  0.00    +0.000 C 
ATOM     14  C   UNL     1       5.587   4.667  15.345  0.00  0.00    +0.000 C 
BRANCH  14  15
ATOM     15  C   UNL     1       6.324   4.587  14.136  0.00  0.00    +0.000 A 
ATOM     16  C   UNL     1       6.140   3.715  13.066  0.00  0.00    +0.000 A 
ATOM     17  C   UNL     1       7.107   4.023  12.080  0.00  0.00    +0.000 A 
ATOM     18  C   UNL     1       7.837   5.066  12.589  0.00  0.00    +0.000 A 
ATOM     19  O   UNL     1       7.381   5.409  13.817  0.00  0.00    +0.000 OA
ENDBRANCH  14  15
ENDBRANCH   9  13
BRANCH   1  20
ATOM     20  C   UNL     1       3.915   2.716  20.095  0.00  0.00    +0.000 C 
BRANCH  20  22
ATOM     21  C   UNL     1       2.037   1.868  18.558  0.00  0.00    +0.000 C 
ATOM     22  C   UNL     1       3.512   1.789  18.943  0.00  0.00    +0.000 C 
ENDBRANCH  20  22
ENDBRANCH   1  20
BRANCH   7  23
ATOM     23  C   UNL     1       2.464   9.528  17.846  0.00  0.00    +0.000 C 
BRANCH  23  24
ATOM     24  C   UNL     1       1.651  10.695  18.307  0.00  0.00    +0.000 A 
ATOM     25  C   UNL     1       1.946  12.021  18.550  0.00  0.00    +0.000 A 
ATOM     26  C   UNL     1       0.729  12.640  18.922  0.00  0.00    +0.000 A 
ATOM     27  C   UNL     1      -0.230  11.654  18.890  0.00  0.00    +0.000 A 
ATOM     28  O   UNL     1       0.318  10.468  18.520  0.00  0.00    +0.000 OA
ENDBRANCH  23  24
ENDBRANCH   7  23
TORSDOF 6
ENDMDL
MODEL 4
REMARK VINA RESULT:      -7.5      1.110      1.250
REMARK  Name = 
REMARK  8 active torsions:
REMARK  status: ('A' for Active; 'I' for Inactive)
REMARK    1  A    between atoms: C_1  and  C_2
REMARK    2  A    between atoms: C_2  and  C_3
REMARK    3  A    between atoms: C_3  and  C_4
REMARK    4  A    between atoms: N_6  and  C_7
REMARK    5  A    between atoms: N_10  and  C_11
REMARK    6  A    between atoms: C_11  and  C_12
REMARK    7  A    between atoms: C_18  and  C_19
REMARK    8  A    between atoms: C_20  and  C_21
REMARK                            x       y       z     vdW  Elec       q    Type
REMARK                         _______ _______ _______ _____ _____    ______ ____
ROOT
ATOM      1  C   UNL     1       6.249   6.624  17.084  0.00  0.00    +0.000 A 
ATOM      2  N   UNL     1       6.642   5.443  16.593  0.00  0.00    +0.000 NA
ATOM      3  N   UNL     1       5.539   4.662  16.720  0.00  0.00    +0.000 N 
ATOM      4  C   UNL     1       5.623   3.287  16.290  0.00  0.00    +0.000 C 
ATOM      5  C   UNL     1       4.456   5.303  17.268  0.00  0.00    +0.000 A 
ATOM      6  C   UNL     1       3.131   4.979  17.553  0.00  0.00    +0.000 A 
ATOM      7  N   UNL     1       2.559   3.756  17.243  0.00  0.00    +0.000 N 
ATOM      8  N   UNL     1       2.371   5.969  18.094  0.00  0.00    +0.000 NA
ATOM      9  C   UNL     1       2.910   7.185  18.321  0.00  0.00    +0.000 A 
ATOM     10  N   UNL     1       4.174   7.545  18.090  0.00  0.00    +0.000 NA
ATOM     11  C   UNL     1       4.920   6.575  17.546  0.00  0.00    +0.000 A 
ATOM     12  H   UNL     1       3.198   3.000  17.048  0.00  0.00    +0.000 HD
ENDROOT
BRANCH   9  13
ATOM     13  C   UNL     1       2.014   8.241  18.802  0.00  0.00    +0.000 C 
ATOM     14  C   UNL     1       1.586   8.307  20.076  0.00  0.00    +0.000 C 
BRANCH  14  15
ATOM     15  C   UNL     1       0.762   9.369  20.529  0.00  0.00    +0.000 A 
ATOM     16  C   UNL     1       0.587   9.835  21.829  0.00  0.00    +0.000 A 
ATOM     17  C   UNL     1      -0.321  10.919  21.787  0.00  0.00    +0.000 A 
ATOM     18  C   UNL     1      -0.661  11.067  20.467  0.00  0.00    +0.000 A 
ATOM     19  O   UNL     1      -0.024  10.146  19.707  0.00  0.00    +0.000 OA
ENDBRANCH  14  15
ENDBRANCH   9  13
BRANCH   1  20
ATOM     20  C   UNL     1       7.131   7.825  17.078  0.00  0.00    +0.000 C 
BRANCH  20  22
ATOM     21  C   UNL     1       8.656   9.250  18.578  0.00  0.00    +0.000 C 
ATOM     22  C   UNL     1       8.121   7.860  18.247  0.00  0.00    +0.000 C 
ENDBRANCH  20  22
ENDBRANCH   1  20
BRANCH   7  23
ATOM     23  C   UNL     1       1.453   3.318  18.083  0.00  0.00    +0.000 C 
BRANCH  23  24
ATOM     24  C   UNL     1       1.849   3.217  19.520  0.00  0.00    +0.000 A 
ATOM     25  C   UNL     1       1.274   3.654  20.697  0.00  0.00    +0.000 A 
ATOM     26  C   UNL     1       2.113   3.203  21.744  0.00  0.00    +0.000 A 
ATOM     27  C   UNL     1       3.149   2.528  21.143  0.00  0.00    +0.000 A 
ATOM     28  O   UNL     1       3.001   2.531  19.793  0.00  0.00    +0.000 OA
ENDBRANCH  23  24
ENDBRANCH   7  23
TORSDOF 6
ENDMDL
MODEL 5
REMARK VINA RESULT:      -7.4      0.827      1.046
REMARK  Name = 
REMARK  8 active torsions:
REMARK  status: ('A' for Active; 'I' for Inactive)
REMARK    1  A    between atoms: C_1  and  C_2
REMARK    2  A    between atoms: C_2  and  C_3
REMARK    3  A    between atoms: C_3  and  C_4
REMARK    4  A    between atoms: N_6  and  C_7
REMARK    5  A    between atoms: N_10  and  C_11
REMARK    6  A    between atoms: C_11  and  C_12
REMARK    7  A    between atoms: C_18  and  C_19
REMARK    8  A    between atoms: C_20  and  C_21
REMARK                            x       y       z     vdW  Elec       q    Type
REMARK                         _______ _______ _______ _____ _____    ______ ____
ROOT
ATOM      1  C   UNL     1       6.265   6.584  17.027  0.00  0.00    +0.000 A 
ATOM      2  N   UNL     1       6.627   5.362  16.619  0.00  0.00    +0.000 NA
ATOM      3  N   UNL     1       5.498   4.626  16.783  0.00  0.00    +0.000 N 
ATOM      4  C   UNL     1       5.545   3.223  16.445  0.00  0.00    +0.000 C 
ATOM      5  C   UNL     1       4.430   5.333  17.274  0.00  0.00    +0.000 A 
ATOM      6  C   UNL     1       3.093   5.069  17.561  0.00  0.00    +0.000 A 
ATOM      7  N   UNL     1       2.487   3.846  17.325  0.00  0.00    +0.000 N 
ATOM      8  N   UNL     1       2.358   6.114  18.027  0.00  0.00    +0.000 NA
ATOM      9  C   UNL     1       2.932   7.326  18.181  0.00  0.00    +0.000 A 
ATOM     10  N   UNL     1       4.209   7.632  17.944  0.00  0.00    +0.000 NA
ATOM     11  C   UNL     1       4.930   6.606  17.475  0.00  0.00    +0.000 A 
ATOM     12  H   UNL     1       3.104   3.060  17.188  0.00  0.00    +0.000 HD
ENDROOT
BRANCH   9  13
ATOM     13  C   UNL     1       2.063   8.437  18.581  0.00  0.00    +0.000 C 
ATOM     14  C   UNL     1       1.088   8.921  17.791  0.00  0.00    +0.000 C 
BRANCH  14  15
ATOM     15  C   UNL     1       0.227   9.961  18.223  0.00  0.00    +0.000 A 
ATOM     16  C   UNL     1       0.459  10.929  19.197  0.00  0.00    +0.000 A 
ATOM     17  C   UNL     1      -0.684  11.760  19.269  0.00  0.00    +0.000 A 
ATOM     18  C   UNL     1      -1.561  11.266  18.339  0.00  0.00    +0.000 A 
ATOM     19  O   UNL     1      -1.031  10.190  17.710  0.00  0.00    +0.000 OA
ENDBRANCH  14  15
ENDBRANCH   9  13
BRANCH   1  20
ATOM     20  C   UNL     1       7.183   7.755  16.955  0.00  0.00    +0.000 C 
BRANCH  20  22
ATOM     21  C   UNL     1       8.620   9.306  18.417  0.00  0.00    +0.000 C 
ATOM     22  C   UNL     1       8.092   7.894  18.181  0.00  0.00    +0.000 C 
ENDBRANCH  20  22
ENDBRANCH   1  20
BRANCH   7  23
ATOM     23  C   UNL     1       1.357   3.497  18.177  0.00  0.00    +0.000 C 
BRANCH  23  24
ATOM     24  C   UNL     1       1.797   3.089  19.546  0.00  0.00    +0.000 A 
ATOM     25  C   UNL     1       3.021   2.757  20.091  0.00  0.00    +0.000 A 
ATOM     26  C   UNL     1       2.793   2.510  21.466  0.00  0.00    +0.000 A 
ATOM     27  C   UNL     1       1.447   2.700  21.673  0.00  0.00    +0.000 A 
ATOM     28  O   UNL     1       0.831   3.051  20.514  0.00  0.00    +0.000 OA
ENDBRANCH  23  24
ENDBRANCH   7  23
TORSDOF 6
ENDMDL
MODEL 6
REMARK VINA RESULT:      -7.3      0.911      1.154
REMARK  Name = 
REMARK  8 active torsions:
REMARK  status: ('A' for Active; 'I' for Inactive)
REMARK    1  A    between atoms: C_1  and  C_2
REMARK    2  A    between atoms: C_2  and  C_3
REMARK    3  A    between atoms: C_3  and  C_4
REMARK    4  A    between atoms: N_6  and  C_7
REMARK    5  A    between atoms: N_10  and  C_11
REMARK    6  A    between atoms: C_11  and  C_12
REMARK    7  A    between atoms: C_18  and  C_19
REMARK    8  A    between atoms: C_20  and  C_21
REMARK                            x       y       z     vdW  Elec       q    Type
REMARK                         _______ _______ _______ _____ _____    ______ ____
ROOT
ATOM      1  C   UNL     1       6.736   7.307  17.199  0.00  0.00    +0.000 A 
ATOM      2  N   UNL     1       7.432   6.259  16.743  0.00  0.00    +0.000 NA
ATOM      3  N   UNL     1       6.508   5.266  16.686  0.00  0.00    +0.000 N 
ATOM      4  C   UNL     1       6.936   3.961  16.239  0.00  0.00    +0.000 C 
ATOM      5  C   UNL     1       5.250   5.643  17.081  0.00  0.00    +0.000 A 
ATOM      6  C   UNL     1       3.994   5.043  17.157  0.00  0.00    +0.000 A 
ATOM      7  N   UNL     1       3.739   3.749  16.735  0.00  0.00    +0.000 N 
ATOM      8  N   UNL     1       2.977   5.828  17.603  0.00  0.00    +0.000 NA
ATOM      9  C   UNL     1       3.214   7.114  17.937  0.00  0.00    +0.000 A 
ATOM     10  N   UNL     1       4.395   7.734  17.906  0.00  0.00    +0.000 NA
ATOM     11  C   UNL     1       5.395   6.966  17.456  0.00  0.00    +0.000 A 
ATOM     12  H   UNL     1       4.541   3.150  16.620  0.00  0.00    +0.000 HD
ENDROOT
BRANCH   9  13
ATOM     13  C   UNL     1       2.059   7.939  18.305  0.00  0.00    +0.000 C 
ATOM     14  C   UNL     1       1.997   9.259  18.053  0.00  0.00    +0.000 C 
BRANCH  14  15
ATOM     15  C   UNL     1       0.846  10.024  18.371  0.00  0.00    +0.000 A 
ATOM     16  C   UNL     1      -0.473   9.807  17.983  0.00  0.00    +0.000 A 
ATOM     17  C   UNL     1      -1.271  10.824  18.557  0.00  0.00    +0.000 A 
ATOM     18  C   UNL     1      -0.408  11.616  19.269  0.00  0.00    +0.000 A 
ATOM     19  O   UNL     1       0.859  11.151  19.163  0.00  0.00    +0.000 OA
ENDBRANCH  14  15
ENDBRANCH   9  13
BRANCH   1  20
ATOM     20  C   UNL     1       7.341   8.660  17.354  0.00  0.00    +0.000 C 
BRANCH  20  22
ATOM     21  C   UNL     1       9.023  10.103  18.657  0.00  0.00    +0.000 C 
ATOM     22  C   UNL     1       8.484   8.704  18.374  0.00  0.00    +0.000 C 
ENDBRANCH  20  22
ENDBRANCH   1  20
BRANCH   7  23
ATOM     23  C   UNL     1       2.640   3.051  17.390  0.00  0.00    +0.000 C 
BRANCH  23  24
ATOM     24  C   UNL     1       2.924   2.793  18.834  0.00  0.00    +0.000 A 
ATOM     25  C   UNL     1       3.984   2.217  19.506  0.00  0.00    +0.000 A 
ATOM     26  C   UNL     1       3.682   2.312  20.886  0.00  0.00    +0.000 A 
ATOM     27  C   UNL     1       2.457   2.932  20.970  0.00  0.00    +0.000 A 
ATOM     28  O   UNL     1       1.986   3.227  19.731  0.00  0.00    +0.000 OA
ENDBRANCH  23  24
ENDBRANCH   7  23
TORSDOF 6
ENDMDL
MODEL 7
REMARK VINA RESULT:      -7.1      1.572      1.831
REMARK  Name = 
REMARK  8 active torsions:
REMARK  status: ('A' for Active; 'I' for Inactive)
REMARK    1  A    between atoms: C_1  and  C_2
REMARK    2  A    between atoms: C_2  and  C_3
REMARK    3  A    between atoms: C_3  and  C_4
REMARK    4  A    between atoms: N_6  and  C_7
REMARK    5  A    between atoms: N_10  and  C_11
REMARK    6  A    between atoms: C_11  and  C_12
REMARK    7  A    between atoms: C_18  and  C_19
REMARK    8  A    between atoms: C_20  and  C_21
REMARK                            x       y       z     vdW  Elec       q    Type
REMARK                         _______ _______ _______ _____ _____    ______ ____
ROOT
ATOM      1  C   UNL     1       6.084   6.425  17.078  0.00  0.00    +0.000 A 
ATOM      2  N   UNL     1       6.420   5.283  16.466  0.00  0.00    +0.000 NA
ATOM      3  N   UNL     1       5.311   4.513  16.599  0.00  0.00    +0.000 N 
ATOM      4  C   UNL     1       5.338   3.177  16.051  0.00  0.00    +0.000 C 
ATOM      5  C   UNL     1       4.278   5.122  17.266  0.00  0.00    +0.000 A 
ATOM      6  C   UNL     1       2.967   4.796  17.606  0.00  0.00    +0.000 A 
ATOM      7  N   UNL     1       2.351   3.613  17.233  0.00  0.00    +0.000 N 
ATOM      8  N   UNL     1       2.263   5.749  18.276  0.00  0.00    +0.000 NA
ATOM      9  C   UNL     1       2.841   6.933  18.568  0.00  0.00    +0.000 A 
ATOM     10  N   UNL     1       4.096   7.291  18.288  0.00  0.00    +0.000 NA
ATOM     11  C   UNL     1       4.785   6.358  17.619  0.00  0.00    +0.000 A 
ATOM     12  H   UNL     1       2.960   2.867  16.935  0.00  0.00    +0.000 HD
ENDROOT
BRANCH   9  13
ATOM     13  C   UNL     1       2.000   7.958  19.192  0.00  0.00    +0.000 C 
ATOM     14  C   UNL     1       1.634   7.912  20.486  0.00  0.00    +0.000 C 
BRANCH  14  15
ATOM     15  C   UNL     1       0.863   8.944  21.079  0.00  0.00    +0.000 A 
ATOM     16  C   UNL     1       0.232  10.019  20.458  0.00  0.00    +0.000 A 
ATOM     17  C   UNL     1      -0.428  10.774  21.456  0.00  0.00    +0.000 A 
ATOM     18  C   UNL     1      -0.172  10.130  22.639  0.00  0.00    +0.000 A 
ATOM     19  O   UNL     1       0.601   9.038  22.428  0.00  0.00    +0.000 OA
ENDBRANCH  14  15
ENDBRANCH   9  13
BRANCH   1  20
ATOM     20  C   UNL     1       6.989   7.608  17.116  0.00  0.00    +0.000 C 
BRANCH  20  22
ATOM     21  C   UNL     1       8.025   6.238  19.029  0.00  0.00    +0.000 C 
ATOM     22  C   UNL     1       8.026   7.546  18.243  0.00  0.00    +0.000 C 
ENDBRANCH  20  22
ENDBRANCH   1  20
BRANCH   7  23
ATOM     23  C   UNL     1       1.289   3.123  18.102  0.00  0.00    +0.000 C 
BRANCH  23  24
ATOM     24  C   UNL     1       1.770   2.903  19.500  0.00  0.00    +0.000 A 
ATOM     25  C   UNL     1       2.938   2.398  20.034  0.00  0.00    +0.000 A 
ATOM     26  C   UNL     1       2.810   2.495  21.440  0.00  0.00    +0.000 A 
ATOM     27  C   UNL     1       1.572   3.045  21.677  0.00  0.00    +0.000 A 
ATOM     28  O   UNL     1       0.930   3.296  20.507  0.00  0.00    +0.000 OA
ENDBRANCH  23  24
ENDBRANCH   7  23
TORSDOF 6
ENDMDL
MODEL 8
REMARK VINA RESULT:      -7.0      2.533      7.726
REMARK  Name = 
REMARK  8 active torsions:
REMARK  status: ('A' for Active; 'I' for Inactive)
REMARK    1  A    between atoms: C_1  and  C_2
REMARK    2  A    between atoms: C_2  and  C_3
REMARK    3  A    between atoms: C_3  and  C_4
REMARK    4  A    between atoms: N_6  and  C_7
REMARK    5  A    between atoms: N_10  and  C_11
REMARK    6  A    between atoms: C_11  and  C_12
REMARK    7  A    between atoms: C_18  and  C_19
REMARK    8  A    between atoms: C_20  and  C_21
REMARK                            x       y       z     vdW  Elec       q    Type
REMARK                         _______ _______ _______ _____ _____    ______ ____
ROOT
ATOM      1  C   UNL     1       3.050   4.245  20.156  0.00  0.00    +0.000 A 
ATOM      2  N   UNL     1       2.156   4.801  20.983  0.00  0.00    +0.000 NA
ATOM      3  N   UNL     1       1.943   6.027  20.442  0.00  0.00    +0.000 N 
ATOM      4  C   UNL     1       1.022   6.916  21.110  0.00  0.00    +0.000 C 
ATOM      5  C   UNL     1       2.662   6.272  19.299  0.00  0.00    +0.000 A 
ATOM      6  C   UNL     1       2.761   7.309  18.374  0.00  0.00    +0.000 A 
ATOM      7  N   UNL     1       1.990   8.458  18.427  0.00  0.00    +0.000 N 
ATOM      8  N   UNL     1       3.617   7.110  17.335  0.00  0.00    +0.000 NA
ATOM      9  C   UNL     1       4.308   5.955  17.243  0.00  0.00    +0.000 A 
ATOM     10  N   UNL     1       4.271   4.940  18.108  0.00  0.00    +0.000 NA
ATOM     11  C   UNL     1       3.419   5.129  19.124  0.00  0.00    +0.000 A 
ATOM     12  H   UNL     1       1.540   8.654  19.308  0.00  0.00    +0.000 HD
ENDROOT
BRANCH   9  13
ATOM     13  C   UNL     1       5.131   5.755  16.046  0.00  0.00    +0.000 C 
ATOM     14  C   UNL     1       5.226   4.569  15.417  0.00  0.00    +0.000 C 
BRANCH  14  15
ATOM     15  C   UNL     1       5.986   4.415  14.230  0.00  0.00    +0.000 A 
ATOM     16  C   UNL     1       7.153   5.077  13.857  0.00  0.00    +0.000 A 
ATOM     17  C   UNL     1       7.553   4.580  12.594  0.00  0.00    +0.000 A 
ATOM     18  C   UNL     1       6.616   3.640  12.251  0.00  0.00    +0.000 A 
ATOM     19  O   UNL     1       5.674   3.535  13.218  0.00  0.00    +0.000 OA
ENDBRANCH  14  15
ENDBRANCH   9  13
BRANCH   1  20
ATOM     20  C   UNL     1       3.531   2.845  20.323  0.00  0.00    +0.000 C 
BRANCH  20  22
ATOM     21  C   UNL     1       1.562   1.974  18.919  0.00  0.00    +0.000 C 
ATOM     22  C   UNL     1       3.058   1.901  19.212  0.00  0.00    +0.000 C 
ENDBRANCH  20  22
ENDBRANCH   1  20
BRANCH   7  23
ATOM     23  C   UNL     1       2.565   9.662  17.841  0.00  0.00    +0.000 C 
BRANCH  23  24
ATOM     24  C   UNL     1       1.873  10.898  18.317  0.00  0.00    +0.000 A 
ATOM     25  C   UNL     1       0.686  11.126  18.984  0.00  0.00    +0.000 A 
ATOM     26  C   UNL     1       0.608  12.523  19.196  0.00  0.00    +0.000 A 
ATOM     27  C   UNL     1       1.745  13.061  18.640  0.00  0.00    +0.000 A 
ATOM     28  O   UNL     1       2.520  12.085  18.102  0.00  0.00    +0.000 OA
ENDBRANCH  23  24
ENDBRANCH   7  23
TORSDOF 6
ENDMDL
MODEL 9
REMARK VINA RESULT:      -7.0      3.731      5.581
REMARK  Name = 
REMARK  8 active torsions:
REMARK  status: ('A' for Active; 'I' for Inactive)
REMARK    1  A    between atoms: C_1  and  C_2
REMARK    2  A    between atoms: C_2  and  C_3
REMARK    3  A    between atoms: C_3  and  C_4
REMARK    4  A    between atoms: N_6  and  C_7
REMARK    5  A    between atoms: N_10  and  C_11
REMARK    6  A    between atoms: C_11  and  C_12
REMARK    7  A    between atoms: C_18  and  C_19
REMARK    8  A    between atoms: C_20  and  C_21
REMARK                            x       y       z     vdW  Elec       q    Type
REMARK                         _______ _______ _______ _____ _____    ______ ____
ROOT
ATOM      1  C   UNL     1       6.741   4.839  14.501  0.00  0.00    +0.000 A 
ATOM      2  N   UNL     1       5.664   4.071  14.300  0.00  0.00    +0.000 NA
ATOM      3  N   UNL     1       4.944   4.228  15.440  0.00  0.00    +0.000 N 
ATOM      4  C   UNL     1       3.700   3.508  15.566  0.00  0.00    +0.000 C 
ATOM      5  C   UNL     1       5.519   5.072  16.357  0.00  0.00    +0.000 A 
ATOM      6  C   UNL     1       5.178   5.585  17.607  0.00  0.00    +0.000 A 
ATOM      7  N   UNL     1       3.974   5.323  18.238  0.00  0.00    +0.000 N 
ATOM      8  N   UNL     1       6.071   6.444  18.170  0.00  0.00    +0.000 NA
ATOM      9  C   UNL     1       7.208   6.759  17.515  0.00  0.00    +0.000 A 
ATOM     10  N   UNL     1       7.596   6.283  16.331  0.00  0.00    +0.000 NA
ATOM     11  C   UNL     1       6.714   5.447  15.771  0.00  0.00    +0.000 A 
ATOM     12  H   UNL     1       3.452   4.532  17.895  0.00  0.00    +0.000 HD
ENDROOT
BRANCH   9  13
ATOM     13  C   UNL     1       8.076   7.773  18.122  0.00  0.00    +0.000 C 
ATOM     14  C   UNL     1       8.063   9.064  17.744  0.00  0.00    +0.000 C 
BRANCH  14  15
ATOM     15  C   UNL     1       8.875  10.035  18.383  0.00  0.00    +0.000 A 
ATOM     16  C   UNL     1       9.176  10.157  19.737  0.00  0.00    +0.000 A 
ATOM     17  C   UNL     1      10.034  11.270  19.896  0.00  0.00    +0.000 A 
ATOM     18  C   UNL     1      10.220  11.778  18.636  0.00  0.00    +0.000 A 
ATOM     19  O   UNL     1       9.530  11.052  17.725  0.00  0.00    +0.000 OA
ENDBRANCH  14  15
ENDBRANCH   9  13
BRANCH   1  20
ATOM     20  C   UNL     1       7.791   5.032  13.461  0.00  0.00    +0.000 C 
BRANCH  20  22
ATOM     21  C   UNL     1       7.103   3.254  11.736  0.00  0.00    +0.000 C 
ATOM     22  C   UNL     1       7.301   4.736  12.039  0.00  0.00    +0.000 C 
ENDBRANCH  20  22
ENDBRANCH   1  20
BRANCH   7  23
ATOM     23  C   UNL     1       3.971   5.376  19.694  0.00  0.00    +0.000 C 
BRANCH  23  24
ATOM     24  C   UNL     1       3.032   4.374  20.286  0.00  0.00    +0.000 A 
ATOM     25  C   UNL     1       2.181   4.397  21.372  0.00  0.00    +0.000 A 
ATOM     26  C   UNL     1       1.515   3.148  21.385  0.00  0.00    +0.000 A 
ATOM     27  C   UNL     1       2.006   2.439  20.314  0.00  0.00    +0.000 A 
ATOM     28  O   UNL     1       2.929   3.173  19.640  0.00  0.00    +0.000 OA
ENDBRANCH  23  24
ENDBRANCH   7  23
TORSDOF 6
ENDMDL
