MODEL 1
REMARK VINA RESULT:      -8.3      0.000      0.000
REMARK  Name = 
REMARK  2 active torsions:
REMARK  status: ('A' for Active; 'I' for Inactive)
REMARK    1  A    between atoms: N_1  and  C_2
REMARK    2  A    between atoms: C_8  and  C_9
REMARK                            x       y       z     vdW  Elec       q    Type
REMARK                         _______ _______ _______ _____ _____    ______ ____
ROOT
ATOM      1  C   UNL     1       1.554   9.292  18.599  0.00  0.00    +0.000 A 
ATOM      2  C   UNL     1       2.263   8.068  18.670  0.00  0.00    +0.000 A 
ATOM      3  C   UNL     1       2.168   7.332  19.840  0.00  0.00    +0.000 A 
ATOM      4  N   UNL     1       1.448   7.749  20.908  0.00  0.00    +0.000 NA
ATOM      5  C   UNL     1       0.782   8.921  20.827  0.00  0.00    +0.000 A 
ATOM      6  C   UNL     1       0.795   9.732  19.706  0.00  0.00    +0.000 A 
ATOM      7  C   UNL     1      -0.086  10.972  19.674  0.00  0.00    +0.000 C 
ATOM      8  C   UNL     1      -0.716  11.318  21.024  0.00  0.00    +0.000 A 
ATOM      9  C   UNL     1      -0.625  10.377  22.054  0.00  0.00    +0.000 A 
ATOM     10  C   UNL     1      -1.282  10.576  23.267  0.00  0.00    +0.000 A 
ATOM     11  C   UNL     1      -2.070  11.705  23.461  0.00  0.00    +0.000 A 
ATOM     12  C   UNL     1      -2.182  12.675  22.459  0.00  0.00    +0.000 A 
ATOM     13  C   UNL     1      -3.013  13.792  22.660  0.00  0.00    +0.000 A 
ATOM     14  C   UNL     1      -3.141  14.779  21.684  0.00  0.00    +0.000 A 
ATOM     15  C   UNL     1      -2.405  14.681  20.516  0.00  0.00    +0.000 A 
ATOM     16  C   UNL     1      -1.569  13.580  20.313  0.00  0.00    +0.000 A 
ATOM     17  C   UNL     1      -1.466  12.520  21.244  0.00  0.00    +0.000 A 
ATOM     18  O   UNL     1       0.074   9.203  21.964  0.00  0.00    +0.000 OA
ATOM     19  C   UNL     1       2.848   6.014  20.035  0.00  0.00    +0.000 C 
ATOM     20  C   UNL     1       3.667   5.445  18.886  0.00  0.00    +0.000 C 
ATOM     21  C   UNL     1       3.703   6.200  17.571  0.00  0.00    +0.000 C 
ATOM     22  C   UNL     1       3.048   7.573  17.494  0.00  0.00    +0.000 C 
ENDROOT
BRANCH   7  23
ATOM     23  C   UNL     1      -1.164  10.825  18.581  0.00  0.00    +0.000 A 
ATOM     24  C   UNL     1      -1.290  11.783  17.562  0.00  0.00    +0.000 A 
ATOM     25  C   UNL     1      -2.295  11.667  16.600  0.00  0.00    +0.000 A 
ATOM     26  C   UNL     1      -3.177  10.588  16.635  0.00  0.00    +0.000 A 
ATOM     27  C   UNL     1      -3.059   9.625  17.633  0.00  0.00    +0.000 A 
ATOM     28  C   UNL     1      -2.067   9.744  18.601  0.00  0.00    +0.000 A 
ENDBRANCH   7  23
BRANCH   1  29
ATOM     29  N   UNL     1       1.789  10.153  17.501  0.00  0.00    +0.000 N 
ATOM     30  H   UNL     1       0.951  10.417  16.995  0.00  0.00    +0.000 HD
ATOM     31  H   UNL     1       2.316  10.983  17.733  0.00  0.00    +0.000 HD
ENDBRANCH   1  29
TORSDOF 2
ENDMDL
MODEL 2
REMARK VINA RESULT:      -7.9      2.795      7.272
REMARK  Name = 
REMARK  2 active torsions:
REMARK  status: ('A' for Active; 'I' for Inactive)
REMARK    1  A    between atoms: N_1  and  C_2
REMARK    2  A    between atoms: C_8  and  C_9
REMARK                            x       y       z     vdW  Elec       q    Type
REMARK                         _______ _______ _______ _____ _____    ______ ____
ROOT
ATOM      1  C   UNL     1      -1.478  14.328  21.135  0.00  0.00    +0.000 A 
ATOM      2  C   UNL     1      -2.105  15.039  22.188  0.00  0.00    +0.000 A 
ATOM      3  C   UNL     1      -2.157  14.438  23.435  0.00  0.00    +0.000 A 
ATOM      4  N   UNL     1      -1.654  13.203  23.670  0.00  0.00    +0.000 NA
ATOM      5  C   UNL     1      -1.064  12.535  22.657  0.00  0.00    +0.000 A 
ATOM      6  C   UNL     1      -0.945  13.042  21.374  0.00  0.00    +0.000 A 
ATOM      7  C   UNL     1      -0.156  12.258  20.335  0.00  0.00    +0.000 C 
ATOM      8  C   UNL     1       0.216  10.843  20.778  0.00  0.00    +0.000 A 
ATOM      9  C   UNL     1       0.018  10.499  22.119  0.00  0.00    +0.000 A 
ATOM     10  C   UNL     1       0.449   9.270  22.615  0.00  0.00    +0.000 A 
ATOM     11  C   UNL     1       1.116   8.374  21.786  0.00  0.00    +0.000 A 
ATOM     12  C   UNL     1       1.328   8.676  20.436  0.00  0.00    +0.000 A 
ATOM     13  C   UNL     1       2.037   7.773  19.624  0.00  0.00    +0.000 A 
ATOM     14  C   UNL     1       2.259   8.042  18.275  0.00  0.00    +0.000 A 
ATOM     15  C   UNL     1       1.736   9.194  17.714  0.00  0.00    +0.000 A 
ATOM     16  C   UNL     1       1.021  10.090  18.512  0.00  0.00    +0.000 A 
ATOM     17  C   UNL     1       0.837   9.894  19.901  0.00  0.00    +0.000 A 
ATOM     18  O   UNL     1      -0.576  11.316  23.043  0.00  0.00    +0.000 OA
ATOM     19  C   UNL     1      -2.770  15.091  24.633  0.00  0.00    +0.000 C 
ATOM     20  C   UNL     1      -3.347  16.490  24.479  0.00  0.00    +0.000 C 
ATOM     21  C   UNL     1      -3.213  17.191  23.140  0.00  0.00    +0.000 C 
ATOM     22  C   UNL     1      -2.649  16.416  21.958  0.00  0.00    +0.000 C 
ENDROOT
BRANCH   7  23
ATOM     23  C   UNL     1       1.096  13.054  19.914  0.00  0.00    +0.000 A 
ATOM     24  C   UNL     1       1.264  13.481  18.587  0.00  0.00    +0.000 A 
ATOM     25  C   UNL     1       2.420  14.163  18.203  0.00  0.00    +0.000 A 
ATOM     26  C   UNL     1       3.414  14.440  19.139  0.00  0.00    +0.000 A 
ATOM     27  C   UNL     1       3.258  14.033  20.461  0.00  0.00    +0.000 A 
ATOM     28  C   UNL     1       2.113  13.340  20.845  0.00  0.00    +0.000 A 
ENDBRANCH   7  23
BRANCH   1  29
ATOM     29  N   UNL     1      -1.585  14.828  19.816  0.00  0.00    +0.000 N 
ATOM     30  H   UNL     1      -1.843  14.128  19.129  0.00  0.00    +0.000 HD
ATOM     31  H   UNL     1      -2.195  15.628  19.726  0.00  0.00    +0.000 HD
ENDBRANCH   1  29
TORSDOF 2
ENDMDL
MODEL 3
REMARK VINA RESULT:      -7.1      3.377      7.616
REMARK  Name = 
REMARK  2 active torsions:
REMARK  status: ('A' for Active; 'I' for Inactive)
REMARK    1  A    between atoms: N_1  and  C_2
REMARK    2  A    between atoms: C_8  and  C_9
REMARK                            x       y       z     vdW  Elec       q    Type
REMARK                         _______ _______ _______ _____ _____    ______ ____
ROOT
ATOM      1  C   UNL     1      -0.782  14.827  22.560  0.00  0.00    +0.000 A 
ATOM      2  C   UNL     1      -1.113  15.770  23.564  0.00  0.00    +0.000 A 
ATOM      3  C   UNL     1      -2.454  16.048  23.775  0.00  0.00    +0.000 A 
ATOM      4  N   UNL     1      -3.440  15.472  23.049  0.00  0.00    +0.000 NA
ATOM      5  C   UNL     1      -3.110  14.580  22.091  0.00  0.00    +0.000 A 
ATOM      6  C   UNL     1      -1.806  14.217  21.802  0.00  0.00    +0.000 A 
ATOM      7  C   UNL     1      -1.549  13.113  20.787  0.00  0.00    +0.000 C 
ATOM      8  C   UNL     1      -2.791  12.692  20.003  0.00  0.00    +0.000 A 
ATOM      9  C   UNL     1      -4.034  13.164  20.435  0.00  0.00    +0.000 A 
ATOM     10  C   UNL     1      -5.215  12.720  19.842  0.00  0.00    +0.000 A 
ATOM     11  C   UNL     1      -5.177  11.770  18.827  0.00  0.00    +0.000 A 
ATOM     12  C   UNL     1      -3.953  11.278  18.359  0.00  0.00    +0.000 A 
ATOM     13  C   UNL     1      -3.937  10.291  17.357  0.00  0.00    +0.000 A 
ATOM     14  C   UNL     1      -2.735   9.785  16.866  0.00  0.00    +0.000 A 
ATOM     15  C   UNL     1      -1.537  10.292  17.340  0.00  0.00    +0.000 A 
ATOM     16  C   UNL     1      -1.545  11.280  18.327  0.00  0.00    +0.000 A 
ATOM     17  C   UNL     1      -2.740  11.769  18.906  0.00  0.00    +0.000 A 
ATOM     18  O   UNL     1      -4.204  14.056  21.459  0.00  0.00    +0.000 OA
ATOM     19  C   UNL     1      -2.937  17.005  24.818  0.00  0.00    +0.000 C 
ATOM     20  C   UNL     1      -1.907  17.692  25.703  0.00  0.00    +0.000 C 
ATOM     21  C   UNL     1      -0.444  17.325  25.539  0.00  0.00    +0.000 C 
ATOM     22  C   UNL     1      -0.040  16.404  24.396  0.00  0.00    +0.000 C 
ENDROOT
BRANCH   7  23
ATOM     23  C   UNL     1      -0.893  11.902  21.480  0.00  0.00    +0.000 A 
ATOM     24  C   UNL     1       0.273  11.318  20.959  0.00  0.00    +0.000 A 
ATOM     25  C   UNL     1       0.836  10.195  21.567  0.00  0.00    +0.000 A 
ATOM     26  C   UNL     1       0.253   9.650  22.709  0.00  0.00    +0.000 A 
ATOM     27  C   UNL     1      -0.897  10.222  23.245  0.00  0.00    +0.000 A 
ATOM     28  C   UNL     1      -1.470  11.334  22.633  0.00  0.00    +0.000 A 
ENDBRANCH   7  23
BRANCH   1  29
ATOM     29  N   UNL     1       0.576  14.673  22.190  0.00  0.00    +0.000 N 
ATOM     30  H   UNL     1       1.000  13.815  22.526  0.00  0.00    +0.000 HD
ATOM     31  H   UNL     1       0.746  14.766  21.199  0.00  0.00    +0.000 HD
ENDBRANCH   1  29
TORSDOF 2
ENDMDL
MODEL 4
REMARK VINA RESULT:      -6.8      2.582      7.164
REMARK  Name = 
REMARK  2 active torsions:
REMARK  status: ('A' for Active; 'I' for Inactive)
REMARK    1  A    between atoms: N_1  and  C_2
REMARK    2  A    between atoms: C_8  and  C_9
REMARK                            x       y       z     vdW  Elec       q    Type
REMARK                         _______ _______ _______ _____ _____    ______ ____
ROOT
ATOM      1  C   UNL     1      -3.110  13.439  21.025  0.00  0.00    +0.000 A 
ATOM      2  C   UNL     1      -3.892  14.049  22.037  0.00  0.00    +0.000 A 
ATOM      3  C   UNL     1      -3.756  13.578  23.333  0.00  0.00    +0.000 A 
ATOM      4  N   UNL     1      -2.927  12.557  23.654  0.00  0.00    +0.000 NA
ATOM      5  C   UNL     1      -2.192  11.982  22.678  0.00  0.00    +0.000 A 
ATOM      6  C   UNL     1      -2.238  12.377  21.353  0.00  0.00    +0.000 A 
ATOM      7  C   UNL     1      -1.281  11.744  20.354  0.00  0.00    +0.000 C 
ATOM      8  C   UNL     1      -0.526  10.534  20.902  0.00  0.00    +0.000 A 
ATOM      9  C   UNL     1      -0.599  10.278  22.275  0.00  0.00    +0.000 A 
ATOM     10  C   UNL     1       0.164   9.267  22.857  0.00  0.00    +0.000 A 
ATOM     11  C   UNL     1       1.039   8.514  22.083  0.00  0.00    +0.000 A 
ATOM     12  C   UNL     1       1.137   8.731  20.704  0.00  0.00    +0.000 A 
ATOM     13  C   UNL     1       2.055   7.984  19.944  0.00  0.00    +0.000 A 
ATOM     14  C   UNL     1       2.171   8.173  18.568  0.00  0.00    +0.000 A 
ATOM     15  C   UNL     1       1.341   9.079  17.932  0.00  0.00    +0.000 A 
ATOM     16  C   UNL     1       0.419   9.817  18.678  0.00  0.00    +0.000 A 
ATOM     17  C   UNL     1       0.319   9.712  20.085  0.00  0.00    +0.000 A 
ATOM     18  O   UNL     1      -1.379  10.986  23.148  0.00  0.00    +0.000 OA
ATOM     19  C   UNL     1      -4.505  14.149  24.494  0.00  0.00    +0.000 C 
ATOM     20  C   UNL     1      -5.449  15.316  24.244  0.00  0.00    +0.000 C 
ATOM     21  C   UNL     1      -5.536  15.896  22.844  0.00  0.00    +0.000 C 
ATOM     22  C   UNL     1      -4.799  15.196  21.711  0.00  0.00    +0.000 C 
ENDROOT
BRANCH   7  23
ATOM     23  C   UNL     1      -0.305  12.808  19.812  0.00  0.00    +0.000 A 
ATOM     24  C   UNL     1      -0.351  13.208  18.466  0.00  0.00    +0.000 A 
ATOM     25  C   UNL     1       0.564  14.140  17.973  0.00  0.00    +0.000 A 
ATOM     26  C   UNL     1       1.524  14.694  18.816  0.00  0.00    +0.000 A 
ATOM     27  C   UNL     1       1.576  14.317  20.155  0.00  0.00    +0.000 A 
ATOM     28  C   UNL     1       0.675  13.377  20.648  0.00  0.00    +0.000 A 
ENDBRANCH   7  23
BRANCH   1  29
ATOM     29  N   UNL     1      -3.373  13.763  19.672  0.00  0.00    +0.000 N 
ATOM     30  H   UNL     1      -4.353  13.705  19.417  0.00  0.00    +0.000 HD
ATOM     31  H   UNL     1      -3.003  14.657  19.383  0.00  0.00    +0.000 HD
ENDBRANCH   1  29
TORSDOF 2
ENDMDL
MODEL 5
REMARK VINA RESULT:      -6.8      3.514      5.801
REMARK  Name = 
REMARK  2 active torsions:
REMARK  status: ('A' for Active; 'I' for Inactive)
REMARK    1  A    between atoms: N_1  and  C_2
REMARK    2  A    between atoms: C_8  and  C_9
REMARK                            x       y       z     vdW  Elec       q    Type
REMARK                         _______ _______ _______ _____ _____    ______ ____
ROOT
ATOM      1  C   UNL     1       2.543  13.636  19.093  0.00  0.00    +0.000 A 
ATOM      2  C   UNL     1       3.311  14.533  19.875  0.00  0.00    +0.000 A 
ATOM      3  C   UNL     1       2.667  15.222  20.891  0.00  0.00    +0.000 A 
ATOM      4  N   UNL     1       1.344  15.082  21.142  0.00  0.00    +0.000 NA
ATOM      5  C   UNL     1       0.623  14.228  20.385  0.00  0.00    +0.000 A 
ATOM      6  C   UNL     1       1.163  13.480  19.353  0.00  0.00    +0.000 A 
ATOM      7  C   UNL     1       0.290  12.457  18.640  0.00  0.00    +0.000 C 
ATOM      8  C   UNL     1      -1.193  12.554  18.997  0.00  0.00    +0.000 A 
ATOM      9  C   UNL     1      -1.560  13.370  20.071  0.00  0.00    +0.000 A 
ATOM     10  C   UNL     1      -2.877  13.406  20.526  0.00  0.00    +0.000 A 
ATOM     11  C   UNL     1      -3.846  12.602  19.937  0.00  0.00    +0.000 A 
ATOM     12  C   UNL     1      -3.523  11.776  18.854  0.00  0.00    +0.000 A 
ATOM     13  C   UNL     1      -4.508  10.943  18.295  0.00  0.00    +0.000 A 
ATOM     14  C   UNL     1      -4.219  10.114  17.212  0.00  0.00    +0.000 A 
ATOM     15  C   UNL     1      -2.955  10.143  16.650  0.00  0.00    +0.000 A 
ATOM     16  C   UNL     1      -1.974  10.977  17.192  0.00  0.00    +0.000 A 
ATOM     17  C   UNL     1      -2.202  11.778  18.336  0.00  0.00    +0.000 A 
ATOM     18  O   UNL     1      -0.689  14.164  20.767  0.00  0.00    +0.000 OA
ATOM     19  C   UNL     1       3.368  16.179  21.802  0.00  0.00    +0.000 C 
ATOM     20  C   UNL     1       4.863  16.392  21.617  0.00  0.00    +0.000 C 
ATOM     21  C   UNL     1       5.592  15.576  20.567  0.00  0.00    +0.000 C 
ATOM     22  C   UNL     1       4.781  14.688  19.633  0.00  0.00    +0.000 C 
ENDROOT
BRANCH   7  23
ATOM     23  C   UNL     1       0.829  11.036  18.893  0.00  0.00    +0.000 A 
ATOM     24  C   UNL     1       1.471  10.316  17.871  0.00  0.00    +0.000 A 
ATOM     25  C   UNL     1       1.919   9.014  18.095  0.00  0.00    +0.000 A 
ATOM     26  C   UNL     1       1.745   8.417  19.342  0.00  0.00    +0.000 A 
ATOM     27  C   UNL     1       1.121   9.120  20.369  0.00  0.00    +0.000 A 
ATOM     28  C   UNL     1       0.661  10.414  20.146  0.00  0.00    +0.000 A 
ENDBRANCH   7  23
BRANCH   1  29
ATOM     29  N   UNL     1       3.124  13.073  17.932  0.00  0.00    +0.000 N 
ATOM     30  H   UNL     1       3.313  13.746  17.198  0.00  0.00    +0.000 HD
ATOM     31  H   UNL     1       3.956  12.528  18.111  0.00  0.00    +0.000 HD
ENDBRANCH   1  29
TORSDOF 2
ENDMDL
MODEL 6
REMARK VINA RESULT:      -6.8      3.731      7.447
REMARK  Name = 
REMARK  2 active torsions:
REMARK  status: ('A' for Active; 'I' for Inactive)
REMARK    1  A    between atoms: N_1  and  C_2
REMARK    2  A    between atoms: C_8  and  C_9
REMARK                            x       y       z     vdW  Elec       q    Type
REMARK                         _______ _______ _______ _____ _____    ______ ____
ROOT
ATOM      1  C   UNL     1      -2.006  13.141  22.452  0.00  0.00    +0.000 A 
ATOM      2  C   UNL     1      -3.302  13.310  23.000  0.00  0.00    +0.000 A 
ATOM      3  C   UNL     1      -4.051  14.393  22.571  0.00  0.00    +0.000 A 
ATOM      4  N   UNL     1      -3.583  15.294  21.675  0.00  0.00    +0.000 NA
ATOM      5  C   UNL     1      -2.345  15.124  21.165  0.00  0.00    +0.000 A 
ATOM      6  C   UNL     1      -1.513  14.073  21.511  0.00  0.00    +0.000 A 
ATOM      7  C   UNL     1      -0.185  13.906  20.789  0.00  0.00    +0.000 C 
ATOM      8  C   UNL     1       0.196  15.098  19.910  0.00  0.00    +0.000 A 
ATOM      9  C   UNL     1      -0.774  16.077  19.672  0.00  0.00    +0.000 A 
ATOM     10  C   UNL     1      -0.534  17.122  18.783  0.00  0.00    +0.000 A 
ATOM     11  C   UNL     1       0.670  17.191  18.089  0.00  0.00    +0.000 A 
ATOM     12  C   UNL     1       1.670  16.236  18.303  0.00  0.00    +0.000 A 
ATOM     13  C   UNL     1       2.865  16.301  17.565  0.00  0.00    +0.000 A 
ATOM     14  C   UNL     1       3.883  15.369  17.759  0.00  0.00    +0.000 A 
ATOM     15  C   UNL     1       3.733  14.389  18.726  0.00  0.00    +0.000 A 
ATOM     16  C   UNL     1       2.554  14.325  19.471  0.00  0.00    +0.000 A 
ATOM     17  C   UNL     1       1.467  15.203  19.254  0.00  0.00    +0.000 A 
ATOM     18  O   UNL     1      -2.014  16.088  20.252  0.00  0.00    +0.000 OA
ATOM     19  C   UNL     1      -5.439  14.671  23.054  0.00  0.00    +0.000 C 
ATOM     20  C   UNL     1      -6.066  13.706  24.049  0.00  0.00    +0.000 C 
ATOM     21  C   UNL     1      -5.288  12.469  24.455  0.00  0.00    +0.000 C 
ATOM     22  C   UNL     1      -3.851  12.314  23.976  0.00  0.00    +0.000 C 
ENDROOT
BRANCH   7  23
ATOM     23  C   UNL     1      -0.187  12.596  19.976  0.00  0.00    +0.000 A 
ATOM     24  C   UNL     1       0.733  11.573  20.257  0.00  0.00    +0.000 A 
ATOM     25  C   UNL     1       0.753  10.408  19.489  0.00  0.00    +0.000 A 
ATOM     26  C   UNL     1      -0.151  10.242  18.442  0.00  0.00    +0.000 A 
ATOM     27  C   UNL     1      -1.076  11.242  18.157  0.00  0.00    +0.000 A 
ATOM     28  C   UNL     1      -1.091  12.412  18.912  0.00  0.00    +0.000 A 
ENDBRANCH   7  23
BRANCH   1  29
ATOM     29  N   UNL     1      -1.150  12.165  23.014  0.00  0.00    +0.000 N 
ATOM     30  H   UNL     1      -1.418  11.868  23.946  0.00  0.00    +0.000 HD
ATOM     31  H   UNL     1      -1.011  11.352  22.430  0.00  0.00    +0.000 HD
ENDBRANCH   1  29
TORSDOF 2
ENDMDL
MODEL 7
REMARK VINA RESULT:      -6.6      3.567      5.723
REMARK  Name = 
REMARK  2 active torsions:
REMARK  status: ('A' for Active; 'I' for Inactive)
REMARK    1  A    between atoms: N_1  and  C_2
REMARK    2  A    between atoms: C_8  and  C_9
REMARK                            x       y       z     vdW  Elec       q    Type
REMARK                         _______ _______ _______ _____ _____    ______ ____
ROOT
ATOM      1  C   UNL     1       2.410  13.545  18.653  0.00  0.00    +0.000 A 
ATOM      2  C   UNL     1       3.313  14.476  19.224  0.00  0.00    +0.000 A 
ATOM      3  C   UNL     1       2.829  15.332  20.200  0.00  0.00    +0.000 A 
ATOM      4  N   UNL     1       1.537  15.321  20.604  0.00  0.00    +0.000 NA
ATOM      5  C   UNL     1       0.687  14.433  20.047  0.00  0.00    +0.000 A 
ATOM      6  C   UNL     1       1.062  13.523  19.074  0.00  0.00    +0.000 A 
ATOM      7  C   UNL     1       0.056  12.484  18.599  0.00  0.00    +0.000 C 
ATOM      8  C   UNL     1      -1.369  12.733  19.093  0.00  0.00    +0.000 A 
ATOM      9  C   UNL     1      -1.565  13.702  20.081  0.00  0.00    +0.000 A 
ATOM     10  C   UNL     1      -2.817  13.891  20.662  0.00  0.00    +0.000 A 
ATOM     11  C   UNL     1      -3.892  13.091  20.289  0.00  0.00    +0.000 A 
ATOM     12  C   UNL     1      -3.741  12.114  19.299  0.00  0.00    +0.000 A 
ATOM     13  C   UNL     1      -4.830  11.289  18.962  0.00  0.00    +0.000 A 
ATOM     14  C   UNL     1      -4.714  10.312  17.976  0.00  0.00    +0.000 A 
ATOM     15  C   UNL     1      -3.521  10.178  17.286  0.00  0.00    +0.000 A 
ATOM     16  C   UNL     1      -2.439  11.001  17.607  0.00  0.00    +0.000 A 
ATOM     17  C   UNL     1      -2.489  11.954  18.650  0.00  0.00    +0.000 A 
ATOM     18  O   UNL     1      -0.576  14.513  20.569  0.00  0.00    +0.000 OA
ATOM     19  C   UNL     1       3.682  16.344  20.897  0.00  0.00    +0.000 C 
ATOM     20  C   UNL     1       5.157  16.423  20.530  0.00  0.00    +0.000 C 
ATOM     21  C   UNL     1       5.714  15.430  19.528  0.00  0.00    +0.000 C 
ATOM     22  C   UNL     1       4.753  14.492  18.810  0.00  0.00    +0.000 C 
ENDROOT
BRANCH   7  23
ATOM     23  C   UNL     1       0.537  11.071  18.982  0.00  0.00    +0.000 A 
ATOM     24  C   UNL     1       0.525  10.644  20.321  0.00  0.00    +0.000 A 
ATOM     25  C   UNL     1       1.002   9.379  20.666  0.00  0.00    +0.000 A 
ATOM     26  C   UNL     1       1.484   8.519  19.681  0.00  0.00    +0.000 A 
ATOM     27  C   UNL     1       1.493   8.922  18.348  0.00  0.00    +0.000 A 
ATOM     28  C   UNL     1       1.031  10.188  18.002  0.00  0.00    +0.000 A 
ENDBRANCH   7  23
BRANCH   1  29
ATOM     29  N   UNL     1       2.824  12.799  17.524  0.00  0.00    +0.000 N 
ATOM     30  H   UNL     1       2.259  11.976  17.343  0.00  0.00    +0.000 HD
ATOM     31  H   UNL     1       2.904  13.344  16.677  0.00  0.00    +0.000 HD
ENDBRANCH   1  29
TORSDOF 2
ENDMDL
MODEL 8
REMARK VINA RESULT:      -6.6      3.204      4.995
REMARK  Name = 
REMARK  2 active torsions:
REMARK  status: ('A' for Active; 'I' for Inactive)
REMARK    1  A    between atoms: N_1  and  C_2
REMARK    2  A    between atoms: C_8  and  C_9
REMARK                            x       y       z     vdW  Elec       q    Type
REMARK                         _______ _______ _______ _____ _____    ______ ____
ROOT
ATOM      1  C   UNL     1      -1.967  11.752  20.218  0.00  0.00    +0.000 A 
ATOM      2  C   UNL     1      -1.004  10.893  20.803  0.00  0.00    +0.000 A 
ATOM      3  C   UNL     1      -0.913  10.868  22.185  0.00  0.00    +0.000 A 
ATOM      4  N   UNL     1      -1.689  11.642  22.981  0.00  0.00    +0.000 NA
ATOM      5  C   UNL     1      -2.598  12.460  22.409  0.00  0.00    +0.000 A 
ATOM      6  C   UNL     1      -2.785  12.557  21.041  0.00  0.00    +0.000 A 
ATOM      7  C   UNL     1      -3.918  13.419  20.505  0.00  0.00    +0.000 C 
ATOM      8  C   UNL     1      -4.584  14.295  21.565  0.00  0.00    +0.000 A 
ATOM      9  C   UNL     1      -4.269  14.060  22.907  0.00  0.00    +0.000 A 
ATOM     10  C   UNL     1      -4.932  14.738  23.928  0.00  0.00    +0.000 A 
ATOM     11  C   UNL     1      -5.947  15.641  23.628  0.00  0.00    +0.000 A 
ATOM     12  C   UNL     1      -6.289  15.911  22.299  0.00  0.00    +0.000 A 
ATOM     13  C   UNL     1      -7.342  16.799  22.016  0.00  0.00    +0.000 A 
ATOM     14  C   UNL     1      -7.702  17.094  20.703  0.00  0.00    +0.000 A 
ATOM     15  C   UNL     1      -6.984  16.538  19.658  0.00  0.00    +0.000 A 
ATOM     16  C   UNL     1      -5.928  15.664  19.930  0.00  0.00    +0.000 A 
ATOM     17  C   UNL     1      -5.578  15.279  21.246  0.00  0.00    +0.000 A 
ATOM     18  O   UNL     1      -3.331  13.158  23.330  0.00  0.00    +0.000 OA
ATOM     19  C   UNL     1       0.045   9.991  22.927  0.00  0.00    +0.000 C 
ATOM     20  C   UNL     1       0.949   9.066  22.125  0.00  0.00    +0.000 C 
ATOM     21  C   UNL     1       0.793   9.021  20.617  0.00  0.00    +0.000 C 
ATOM     22  C   UNL     1      -0.150  10.011  19.945  0.00  0.00    +0.000 C 
ENDROOT
BRANCH   7  23
ATOM     23  C   UNL     1      -4.956  12.535  19.784  0.00  0.00    +0.000 A 
ATOM     24  C   UNL     1      -5.910  11.805  20.512  0.00  0.00    +0.000 A 
ATOM     25  C   UNL     1      -6.819  10.974  19.856  0.00  0.00    +0.000 A 
ATOM     26  C   UNL     1      -6.797  10.871  18.466  0.00  0.00    +0.000 A 
ATOM     27  C   UNL     1      -5.865  11.596  17.729  0.00  0.00    +0.000 A 
ATOM     28  C   UNL     1      -4.948  12.415  18.380  0.00  0.00    +0.000 A 
ENDBRANCH   7  23
BRANCH   1  29
ATOM     29  N   UNL     1      -1.947  11.944  18.816  0.00  0.00    +0.000 N 
ATOM     30  H   UNL     1      -1.109  11.595  18.364  0.00  0.00    +0.000 HD
ATOM     31  H   UNL     1      -2.761  11.583  18.338  0.00  0.00    +0.000 HD
ENDBRANCH   1  29
TORSDOF 2
ENDMDL
MODEL 9
REMARK VINA RESULT:      -6.6      4.081      7.817
REMARK  Name = 
REMARK  2 active torsions:
REMARK  status: ('A' for Active; 'I' for Inactive)
REMARK    1  A    between atoms: N_1  and  C_2
REMARK    2  A    between atoms: C_8  and  C_9
REMARK                            x       y       z     vdW  Elec       q    Type
REMARK                         _______ _______ _______ _____ _____    ______ ____
ROOT
ATOM      1  C   UNL     1      -1.436  15.372  22.683  0.00  0.00    +0.000 A 
ATOM      2  C   UNL     1      -1.116  16.224  23.769  0.00  0.00    +0.000 A 
ATOM      3  C   UNL     1      -2.083  16.425  24.742  0.00  0.00    +0.000 A 
ATOM      4  N   UNL     1      -3.310  15.858  24.677  0.00  0.00    +0.000 NA
ATOM      5  C   UNL     1      -3.604  15.053  23.634  0.00  0.00    +0.000 A 
ATOM      6  C   UNL     1      -2.713  14.772  22.612  0.00  0.00    +0.000 A 
ATOM      7  C   UNL     1      -3.100  13.757  21.546  0.00  0.00    +0.000 C 
ATOM      8  C   UNL     1      -4.569  13.338  21.596  0.00  0.00    +0.000 A 
ATOM      9  C   UNL     1      -5.326  13.720  22.708  0.00  0.00    +0.000 A 
ATOM     10  C   UNL     1      -6.634  13.267  22.875  0.00  0.00    +0.000 A 
ATOM     11  C   UNL     1      -7.198  12.396  21.950  0.00  0.00    +0.000 A 
ATOM     12  C   UNL     1      -6.478  11.994  20.819  0.00  0.00    +0.000 A 
ATOM     13  C   UNL     1      -7.053  11.084  19.914  0.00  0.00    +0.000 A 
ATOM     14  C   UNL     1      -6.364  10.670  18.775  0.00  0.00    +0.000 A 
ATOM     15  C   UNL     1      -5.112  11.196  18.507  0.00  0.00    +0.000 A 
ATOM     16  C   UNL     1      -4.539  12.109  19.396  0.00  0.00    +0.000 A 
ATOM     17  C   UNL     1      -5.171  12.499  20.600  0.00  0.00    +0.000 A 
ATOM     18  O   UNL     1      -4.864  14.527  23.712  0.00  0.00    +0.000 OA
ATOM     19  C   UNL     1      -1.863  17.281  25.948  0.00  0.00    +0.000 C 
ATOM     20  C   UNL     1      -0.508  17.948  26.126  0.00  0.00    +0.000 C 
ATOM     21  C   UNL     1       0.585  17.661  25.114  0.00  0.00    +0.000 C 
ATOM     22  C   UNL     1       0.243  16.844  23.875  0.00  0.00    +0.000 C 
ENDROOT
BRANCH   7  23
ATOM     23  C   UNL     1      -2.170  12.530  21.624  0.00  0.00    +0.000 A 
ATOM     24  C   UNL     1      -1.996  11.835  22.832  0.00  0.00    +0.000 A 
ATOM     25  C   UNL     1      -1.119  10.751  22.906  0.00  0.00    +0.000 A 
ATOM     26  C   UNL     1      -0.418  10.339  21.775  0.00  0.00    +0.000 A 
ATOM     27  C   UNL     1      -0.588  11.010  20.567  0.00  0.00    +0.000 A 
ATOM     28  C   UNL     1      -1.450  12.100  20.493  0.00  0.00    +0.000 A 
ENDBRANCH   7  23
BRANCH   1  29
ATOM     29  N   UNL     1      -0.548  15.307  21.583  0.00  0.00    +0.000 N 
ATOM     30  H   UNL     1      -0.865  15.818  20.767  0.00  0.00    +0.000 HD
ATOM     31  H   UNL     1       0.400  15.577  21.802  0.00  0.00    +0.000 HD
ENDBRANCH   1  29
TORSDOF 2
ENDMDL
