MODEL 1
REMARK VINA RESULT:      -7.1      0.000      0.000
REMARK  Name = 
REMARK  10 active torsions:
REMARK  status: ('A' for Active; 'I' for Inactive)
REMARK    1  A    between atoms: C_1  and  C_2
REMARK    2  A    between atoms: N_4  and  C_5
REMARK    3  A    between atoms: C_10  and  N_11
REMARK    4  A    between atoms: C_17  and  N_18
REMARK    5  A    between atoms: N_18  and  C_19
REMARK    6  A    between atoms: C_19  and  C_20
REMARK    7  A    between atoms: C_20  and  C_21
REMARK    8  A    between atoms: C_21  and  N_22
REMARK    9  A    between atoms: N_22  and  C_23
REMARK   10  A    between atoms: N_22  and  C_24
REMARK                            x       y       z     vdW  Elec       q    Type
REMARK                         _______ _______ _______ _____ _____    ______ ____
ROOT
ATOM      1  C   UNL     1       0.874   4.397  20.560  0.00  0.00    +0.000 C 
ATOM      2  C   UNL     1       2.026   3.866  19.746  0.00  0.00    +0.000 A 
ATOM      3  N   UNL     1       2.230   2.531  19.854  0.00  0.00    +0.000 NA
ATOM      4  N   UNL     1       3.179   2.172  19.022  0.00  0.00    +0.000 N 
ATOM      5  C   UNL     1       3.750   0.841  18.913  0.00  0.00    +0.000 C 
ATOM      6  C   UNL     1       3.569   3.231  18.333  0.00  0.00    +0.000 A 
ATOM      7  N   UNL     1       4.438   3.153  17.322  0.00  0.00    +0.000 NA
ATOM      8  C   UNL     1       4.827   4.247  16.660  0.00  0.00    +0.000 A 
ATOM      9  C   UNL     1       5.668   4.053  15.569  0.00  0.00    +0.000 A 
ATOM     10  C   UNL     1       6.192   5.131  14.863  0.00  0.00    +0.000 A 
ATOM     11  C   UNL     1       5.867   6.427  15.298  0.00  0.00    +0.000 A 
ATOM     12  C   UNL     1       4.989   6.633  16.383  0.00  0.00    +0.000 A 
ATOM     13  C   UNL     1       4.407   5.533  17.083  0.00  0.00    +0.000 A 
ATOM     14  C   UNL     1       3.452   5.647  18.184  0.00  0.00    +0.000 A 
ATOM     15  C   UNL     1       2.978   4.396  18.786  0.00  0.00    +0.000 A 
ENDROOT
BRANCH  10  16
ATOM     16  N   UNL     1       7.050   4.893  13.726  0.00  0.00    +0.000 N 
ATOM     17  O   UNL     1       6.758   4.085  12.915  0.00  0.00    +0.000 OA
ATOM     18  O   UNL     1       8.142   5.609  13.569  0.00  0.00    +0.000 OA
ENDBRANCH  10  16
BRANCH  14  19
ATOM     19  N   UNL     1       3.091   6.975  18.612  0.00  0.00    +0.000 N 
ATOM     20  H   UNL     1       3.472   7.341  19.494  0.00  0.00    +0.000 HD
BRANCH  19  21
ATOM     21  C   UNL     1       2.013   7.785  18.075  0.00  0.00    +0.000 C 
BRANCH  21  22
ATOM     22  C   UNL     1       1.599   8.907  19.044  0.00  0.00    +0.000 C 
BRANCH  22  23
ATOM     23  C   UNL     1       1.411   8.477  20.528  0.00  0.00    +0.000 C 
BRANCH  23  24
ATOM     24  N   UNL     1       0.151   8.937  21.166  0.00  0.00    +0.000 NA
ATOM     25  C   UNL     1       0.355   9.363  22.563  0.00  0.00    +0.000 C 
ATOM     26  C   UNL     1      -0.391  10.077  20.400  0.00  0.00    +0.000 C 
ENDBRANCH  23  24
ENDBRANCH  22  23
ENDBRANCH  21  22
ENDBRANCH  19  21
ENDBRANCH  14  19
TORSDOF 6
ENDMDL
MODEL 2
REMARK VINA RESULT:      -6.9      1.549      5.315
REMARK  Name = 
REMARK  10 active torsions:
REMARK  status: ('A' for Active; 'I' for Inactive)
REMARK    1  A    between atoms: C_1  and  C_2
REMARK    2  A    between atoms: N_4  and  C_5
REMARK    3  A    between atoms: C_10  and  N_11
REMARK    4  A    between atoms: C_17  and  N_18
REMARK    5  A    between atoms: N_18  and  C_19
REMARK    6  A    between atoms: C_19  and  C_20
REMARK    7  A    between atoms: C_20  and  C_21
REMARK    8  A    between atoms: C_21  and  N_22
REMARK    9  A    between atoms: N_22  and  C_23
REMARK   10  A    between atoms: N_22  and  C_24
REMARK                            x       y       z     vdW  Elec       q    Type
REMARK                         _______ _______ _______ _____ _____    ______ ____
ROOT
ATOM      1  C   UNL     1       0.646   8.470  21.957  0.00  0.00    +0.000 C 
ATOM      2  C   UNL     1       1.215   8.492  20.561  0.00  0.00    +0.000 A 
ATOM      3  N   UNL     1       0.987   9.636  19.872  0.00  0.00    +0.000 NA
ATOM      4  N   UNL     1       1.619   9.580  18.724  0.00  0.00    +0.000 N 
ATOM      5  C   UNL     1       1.542  10.574  17.666  0.00  0.00    +0.000 C 
ATOM      6  C   UNL     1       2.299   8.448  18.662  0.00  0.00    +0.000 A 
ATOM      7  N   UNL     1       3.140   8.165  17.664  0.00  0.00    +0.000 NA
ATOM      8  C   UNL     1       3.796   7.002  17.622  0.00  0.00    +0.000 A 
ATOM      9  C   UNL     1       4.712   6.835  16.589  0.00  0.00    +0.000 A 
ATOM     10  C   UNL     1       5.387   5.633  16.412  0.00  0.00    +0.000 A 
ATOM     11  C   UNL     1       5.100   4.576  17.293  0.00  0.00    +0.000 A 
ATOM     12  C   UNL     1       4.196   4.746  18.363  0.00  0.00    +0.000 A 
ATOM     13  C   UNL     1       3.535   5.993  18.584  0.00  0.00    +0.000 A 
ATOM     14  C   UNL     1       2.623   6.278  19.690  0.00  0.00    +0.000 A 
ATOM     15  C   UNL     1       2.031   7.619  19.736  0.00  0.00    +0.000 A 
ENDROOT
BRANCH  10  16
ATOM     16  N   UNL     1       6.343   5.499  15.337  0.00  0.00    +0.000 N 
ATOM     17  O   UNL     1       6.015   5.040  14.299  0.00  0.00    +0.000 OA
ATOM     18  O   UNL     1       7.575   5.930  15.500  0.00  0.00    +0.000 OA
ENDBRANCH  10  16
BRANCH  14  19
ATOM     19  N   UNL     1       2.351   5.206  20.615  0.00  0.00    +0.000 N 
ATOM     20  H   UNL     1       3.131   4.770  21.124  0.00  0.00    +0.000 HD
BRANCH  19  21
ATOM     21  C   UNL     1       1.111   4.462  20.724  0.00  0.00    +0.000 C 
BRANCH  21  22
ATOM     22  C   UNL     1       1.043   3.306  19.709  0.00  0.00    +0.000 C 
BRANCH  22  23
ATOM     23  C   UNL     1       1.969   2.093  20.010  0.00  0.00    +0.000 C 
BRANCH  23  24
ATOM     24  N   UNL     1       3.367   2.228  19.527  0.00  0.00    +0.000 NA
ATOM     25  C   UNL     1       4.354   1.989  20.597  0.00  0.00    +0.000 C 
ATOM     26  C   UNL     1       3.602   1.253  18.443  0.00  0.00    +0.000 C 
ENDBRANCH  23  24
ENDBRANCH  22  23
ENDBRANCH  21  22
ENDBRANCH  19  21
ENDBRANCH  14  19
TORSDOF 6
ENDMDL
MODEL 3
REMARK VINA RESULT:      -6.9      1.251      1.492
REMARK  Name = 
REMARK  10 active torsions:
REMARK  status: ('A' for Active; 'I' for Inactive)
REMARK    1  A    between atoms: C_1  and  C_2
REMARK    2  A    between atoms: N_4  and  C_5
REMARK    3  A    between atoms: C_10  and  N_11
REMARK    4  A    between atoms: C_17  and  N_18
REMARK    5  A    between atoms: N_18  and  C_19
REMARK    6  A    between atoms: C_19  and  C_20
REMARK    7  A    between atoms: C_20  and  C_21
REMARK    8  A    between atoms: C_21  and  N_22
REMARK    9  A    between atoms: N_22  and  C_23
REMARK   10  A    between atoms: N_22  and  C_24
REMARK                            x       y       z     vdW  Elec       q    Type
REMARK                         _______ _______ _______ _____ _____    ______ ____
ROOT
ATOM      1  C   UNL     1       1.131   4.604  20.667  0.00  0.00    +0.000 C 
ATOM      2  C   UNL     1       2.205   4.011  19.792  0.00  0.00    +0.000 A 
ATOM      3  N   UNL     1       2.341   2.667  19.891  0.00  0.00    +0.000 NA
ATOM      4  N   UNL     1       3.222   2.257  19.009  0.00  0.00    +0.000 N 
ATOM      5  C   UNL     1       3.712   0.896  18.871  0.00  0.00    +0.000 C 
ATOM      6  C   UNL     1       3.630   3.294  18.297  0.00  0.00    +0.000 A 
ATOM      7  N   UNL     1       4.436   3.169  17.239  0.00  0.00    +0.000 NA
ATOM      8  C   UNL     1       4.847   4.240  16.554  0.00  0.00    +0.000 A 
ATOM      9  C   UNL     1       5.614   4.002  15.418  0.00  0.00    +0.000 A 
ATOM     10  C   UNL     1       6.156   5.050  14.682  0.00  0.00    +0.000 A 
ATOM     11  C   UNL     1       5.927   6.362  15.131  0.00  0.00    +0.000 A 
ATOM     12  C   UNL     1       5.124   6.614  16.264  0.00  0.00    +0.000 A 
ATOM     13  C   UNL     1       4.522   5.548  16.997  0.00  0.00    +0.000 A 
ATOM     14  C   UNL     1       3.638   5.713  18.149  0.00  0.00    +0.000 A 
ATOM     15  C   UNL     1       3.130   4.489  18.779  0.00  0.00    +0.000 A 
ENDROOT
BRANCH  10  16
ATOM     16  N   UNL     1       6.935   4.767  13.499  0.00  0.00    +0.000 N 
ATOM     17  O   UNL     1       7.852   5.454  13.209  0.00  0.00    +0.000 OA
ATOM     18  O   UNL     1       6.649   3.715  12.763  0.00  0.00    +0.000 OA
ENDBRANCH  10  16
BRANCH  14  19
ATOM     19  N   UNL     1       3.375   7.058  18.594  0.00  0.00    +0.000 N 
ATOM     20  H   UNL     1       4.139   7.613  19.001  0.00  0.00    +0.000 HD
BRANCH  19  21
ATOM     21  C   UNL     1       2.067   7.655  18.793  0.00  0.00    +0.000 C 
BRANCH  21  22
ATOM     22  C   UNL     1       1.723   8.671  17.689  0.00  0.00    +0.000 C 
BRANCH  22  23
ATOM     23  C   UNL     1       1.970  10.164  18.052  0.00  0.00    +0.000 C 
BRANCH  23  24
ATOM     24  N   UNL     1       0.968  10.767  18.968  0.00  0.00    +0.000 NA
ATOM     25  C   UNL     1       1.137  12.226  19.100  0.00  0.00    +0.000 C 
ATOM     26  C   UNL     1      -0.388  10.493  18.451  0.00  0.00    +0.000 C 
ENDBRANCH  23  24
ENDBRANCH  22  23
ENDBRANCH  21  22
ENDBRANCH  19  21
ENDBRANCH  14  19
TORSDOF 6
ENDMDL
MODEL 4
REMARK VINA RESULT:      -6.9      1.170      1.338
REMARK  Name = 
REMARK  10 active torsions:
REMARK  status: ('A' for Active; 'I' for Inactive)
REMARK    1  A    between atoms: C_1  and  C_2
REMARK    2  A    between atoms: N_4  and  C_5
REMARK    3  A    between atoms: C_10  and  N_11
REMARK    4  A    between atoms: C_17  and  N_18
REMARK    5  A    between atoms: N_18  and  C_19
REMARK    6  A    between atoms: C_19  and  C_20
REMARK    7  A    between atoms: C_20  and  C_21
REMARK    8  A    between atoms: C_21  and  N_22
REMARK    9  A    between atoms: N_22  and  C_23
REMARK   10  A    between atoms: N_22  and  C_24
REMARK                            x       y       z     vdW  Elec       q    Type
REMARK                         _______ _______ _______ _____ _____    ______ ____
ROOT
ATOM      1  C   UNL     1       1.020   4.431  20.543  0.00  0.00    +0.000 C 
ATOM      2  C   UNL     1       2.157   3.890  19.713  0.00  0.00    +0.000 A 
ATOM      3  N   UNL     1       2.359   2.555  19.829  0.00  0.00    +0.000 NA
ATOM      4  N   UNL     1       3.293   2.187  18.984  0.00  0.00    +0.000 N 
ATOM      5  C   UNL     1       3.859   0.853  18.875  0.00  0.00    +0.000 C 
ATOM      6  C   UNL     1       3.674   3.239  18.279  0.00  0.00    +0.000 A 
ATOM      7  N   UNL     1       4.525   3.151  17.254  0.00  0.00    +0.000 NA
ATOM      8  C   UNL     1       4.905   4.238  16.576  0.00  0.00    +0.000 A 
ATOM      9  C   UNL     1       5.726   4.034  15.472  0.00  0.00    +0.000 A 
ATOM     10  C   UNL     1       6.240   5.104  14.748  0.00  0.00    +0.000 A 
ATOM     11  C   UNL     1       5.926   6.405  15.178  0.00  0.00    +0.000 A 
ATOM     12  C   UNL     1       5.068   6.622  16.277  0.00  0.00    +0.000 A 
ATOM     13  C   UNL     1       4.495   5.529  16.996  0.00  0.00    +0.000 A 
ATOM     14  C   UNL     1       3.560   5.654  18.113  0.00  0.00    +0.000 A 
ATOM     15  C   UNL     1       3.093   4.409  18.732  0.00  0.00    +0.000 A 
ENDROOT
BRANCH  10  16
ATOM     16  N   UNL     1       7.078   4.856  13.599  0.00  0.00    +0.000 N 
ATOM     17  O   UNL     1       6.775   4.034  12.805  0.00  0.00    +0.000 OA
ATOM     18  O   UNL     1       8.162   5.576  13.411  0.00  0.00    +0.000 OA
ENDBRANCH  10  16
BRANCH  14  19
ATOM     19  N   UNL     1       3.210   6.987  18.536  0.00  0.00    +0.000 N 
ATOM     20  H   UNL     1       3.915   7.568  19.008  0.00  0.00    +0.000 HD
BRANCH  19  21
ATOM     21  C   UNL     1       1.868   7.533  18.624  0.00  0.00    +0.000 C 
BRANCH  21  22
ATOM     22  C   UNL     1       1.806   8.990  18.129  0.00  0.00    +0.000 C 
BRANCH  22  23
ATOM     23  C   UNL     1       1.139  10.002  19.105  0.00  0.00    +0.000 C 
BRANCH  23  24
ATOM     24  N   UNL     1       0.162  10.932  18.482  0.00  0.00    +0.000 NA
ATOM     25  C   UNL     1      -1.087  10.252  18.091  0.00  0.00    +0.000 C 
ATOM     26  C   UNL     1      -0.166  12.005  19.443  0.00  0.00    +0.000 C 
ENDBRANCH  23  24
ENDBRANCH  22  23
ENDBRANCH  21  22
ENDBRANCH  19  21
ENDBRANCH  14  19
TORSDOF 6
ENDMDL
MODEL 5
REMARK VINA RESULT:      -6.9      1.612      5.029
REMARK  Name = 
REMARK  10 active torsions:
REMARK  status: ('A' for Active; 'I' for Inactive)
REMARK    1  A    between atoms: C_1  and  C_2
REMARK    2  A    between atoms: N_4  and  C_5
REMARK    3  A    between atoms: C_10  and  N_11
REMARK    4  A    between atoms: C_17  and  N_18
REMARK    5  A    between atoms: N_18  and  C_19
REMARK    6  A    between atoms: C_19  and  C_20
REMARK    7  A    between atoms: C_20  and  C_21
REMARK    8  A    between atoms: C_21  and  N_22
REMARK    9  A    between atoms: N_22  and  C_23
REMARK   10  A    between atoms: N_22  and  C_24
REMARK                            x       y       z     vdW  Elec       q    Type
REMARK                         _______ _______ _______ _____ _____    ______ ____
ROOT
ATOM      1  C   UNL     1       0.980   8.125  21.984  0.00  0.00    +0.000 C 
ATOM      2  C   UNL     1       1.511   8.068  20.574  0.00  0.00    +0.000 A 
ATOM      3  N   UNL     1       1.177   9.127  19.798  0.00  0.00    +0.000 NA
ATOM      4  N   UNL     1       1.784   9.020  18.640  0.00  0.00    +0.000 N 
ATOM      5  C   UNL     1       1.603   9.908  17.504  0.00  0.00    +0.000 C 
ATOM      6  C   UNL     1       2.549   7.943  18.654  0.00  0.00    +0.000 A 
ATOM      7  N   UNL     1       3.385   7.639  17.658  0.00  0.00    +0.000 NA
ATOM      8  C   UNL     1       4.130   6.530  17.695  0.00  0.00    +0.000 A 
ATOM      9  C   UNL     1       5.031   6.345  16.652  0.00  0.00    +0.000 A 
ATOM     10  C   UNL     1       5.795   5.186  16.557  0.00  0.00    +0.000 A 
ATOM     11  C   UNL     1       5.614   4.192  17.534  0.00  0.00    +0.000 A 
ATOM     12  C   UNL     1       4.725   4.385  18.613  0.00  0.00    +0.000 A 
ATOM     13  C   UNL     1       3.974   5.591  18.747  0.00  0.00    +0.000 A 
ATOM     14  C   UNL     1       3.069   5.901  19.852  0.00  0.00    +0.000 A 
ATOM     15  C   UNL     1       2.374   7.192  19.801  0.00  0.00    +0.000 A 
ENDROOT
BRANCH  10  16
ATOM     16  N   UNL     1       6.733   5.034  15.469  0.00  0.00    +0.000 N 
ATOM     17  O   UNL     1       6.593   4.167  14.677  0.00  0.00    +0.000 OA
ATOM     18  O   UNL     1       7.724   5.888  15.334  0.00  0.00    +0.000 OA
ENDBRANCH  10  16
BRANCH  14  19
ATOM     19  N   UNL     1       2.904   4.897  20.873  0.00  0.00    +0.000 N 
ATOM     20  H   UNL     1       3.727   4.378  21.206  0.00  0.00    +0.000 HD
BRANCH  19  21
ATOM     21  C   UNL     1       1.648   4.320  21.313  0.00  0.00    +0.000 C 
BRANCH  21  22
ATOM     22  C   UNL     1       1.399   2.936  20.686  0.00  0.00    +0.000 C 
BRANCH  22  23
ATOM     23  C   UNL     1       0.733   2.947  19.280  0.00  0.00    +0.000 C 
BRANCH  23  24
ATOM     24  N   UNL     1       1.527   2.312  18.197  0.00  0.00    +0.000 NA
ATOM     25  C   UNL     1       1.944   3.280  17.167  0.00  0.00    +0.000 C 
ATOM     26  C   UNL     1       2.735   1.695  18.781  0.00  0.00    +0.000 C 
ENDBRANCH  23  24
ENDBRANCH  22  23
ENDBRANCH  21  22
ENDBRANCH  19  21
ENDBRANCH  14  19
TORSDOF 6
ENDMDL
MODEL 6
REMARK VINA RESULT:      -6.7      1.081      1.167
REMARK  Name = 
REMARK  10 active torsions:
REMARK  status: ('A' for Active; 'I' for Inactive)
REMARK    1  A    between atoms: C_1  and  C_2
REMARK    2  A    between atoms: N_4  and  C_5
REMARK    3  A    between atoms: C_10  and  N_11
REMARK    4  A    between atoms: C_17  and  N_18
REMARK    5  A    between atoms: N_18  and  C_19
REMARK    6  A    between atoms: C_19  and  C_20
REMARK    7  A    between atoms: C_20  and  C_21
REMARK    8  A    between atoms: C_21  and  N_22
REMARK    9  A    between atoms: N_22  and  C_23
REMARK   10  A    between atoms: N_22  and  C_24
REMARK                            x       y       z     vdW  Elec       q    Type
REMARK                         _______ _______ _______ _____ _____    ______ ____
ROOT
ATOM      1  C   UNL     1       1.423   5.416  21.020  0.00  0.00    +0.000 C 
ATOM      2  C   UNL     1       2.533   4.771  20.231  0.00  0.00    +0.000 A 
ATOM      3  N   UNL     1       2.867   3.522  20.638  0.00  0.00    +0.000 NA
ATOM      4  N   UNL     1       3.759   3.026  19.813  0.00  0.00    +0.000 N 
ATOM      5  C   UNL     1       4.435   1.749  19.967  0.00  0.00    +0.000 C 
ATOM      6  C   UNL     1       3.982   3.898  18.845  0.00  0.00    +0.000 A 
ATOM      7  N   UNL     1       4.750   3.622  17.789  0.00  0.00    +0.000 NA
ATOM      8  C   UNL     1       4.971   4.535  16.838  0.00  0.00    +0.000 A 
ATOM      9  C   UNL     1       5.715   4.125  15.737  0.00  0.00    +0.000 A 
ATOM     10  C   UNL     1       6.067   5.020  14.731  0.00  0.00    +0.000 A 
ATOM     11  C   UNL     1       5.670   6.361  14.871  0.00  0.00    +0.000 A 
ATOM     12  C   UNL     1       4.888   6.779  15.969  0.00  0.00    +0.000 A 
ATOM     13  C   UNL     1       4.479   5.857  16.980  0.00  0.00    +0.000 A 
ATOM     14  C   UNL     1       3.631   6.185  18.124  0.00  0.00    +0.000 A 
ATOM     15  C   UNL     1       3.334   5.100  19.065  0.00  0.00    +0.000 A 
ENDROOT
BRANCH  10  16
ATOM     16  N   UNL     1       6.827   4.557  13.594  0.00  0.00    +0.000 N 
ATOM     17  O   UNL     1       6.527   3.557  13.042  0.00  0.00    +0.000 OA
ATOM     18  O   UNL     1       7.834   5.275  13.144  0.00  0.00    +0.000 OA
ENDBRANCH  10  16
BRANCH  14  19
ATOM     19  N   UNL     1       3.194   7.553  18.254  0.00  0.00    +0.000 N 
ATOM     20  H   UNL     1       3.819   8.242  18.691  0.00  0.00    +0.000 HD
BRANCH  19  21
ATOM     21  C   UNL     1       1.838   8.039  18.083  0.00  0.00    +0.000 C 
BRANCH  21  22
ATOM     22  C   UNL     1       1.799   9.555  17.818  0.00  0.00    +0.000 C 
BRANCH  22  23
ATOM     23  C   UNL     1       1.174  10.419  18.952  0.00  0.00    +0.000 C 
BRANCH  23  24
ATOM     24  N   UNL     1      -0.190  10.014  19.377  0.00  0.00    +0.000 NA
ATOM     25  C   UNL     1      -0.330   9.973  20.845  0.00  0.00    +0.000 C 
ATOM     26  C   UNL     1      -1.172  10.976  18.837  0.00  0.00    +0.000 C 
ENDBRANCH  23  24
ENDBRANCH  22  23
ENDBRANCH  21  22
ENDBRANCH  19  21
ENDBRANCH  14  19
TORSDOF 6
ENDMDL
MODEL 7
REMARK VINA RESULT:      -6.7      1.705      5.400
REMARK  Name = 
REMARK  10 active torsions:
REMARK  status: ('A' for Active; 'I' for Inactive)
REMARK    1  A    between atoms: C_1  and  C_2
REMARK    2  A    between atoms: N_4  and  C_5
REMARK    3  A    between atoms: C_10  and  N_11
REMARK    4  A    between atoms: C_17  and  N_18
REMARK    5  A    between atoms: N_18  and  C_19
REMARK    6  A    between atoms: C_19  and  C_20
REMARK    7  A    between atoms: C_20  and  C_21
REMARK    8  A    between atoms: C_21  and  N_22
REMARK    9  A    between atoms: N_22  and  C_23
REMARK   10  A    between atoms: N_22  and  C_24
REMARK                            x       y       z     vdW  Elec       q    Type
REMARK                         _______ _______ _______ _____ _____    ______ ____
ROOT
ATOM      1  C   UNL     1       0.269   8.566  22.081  0.00  0.00    +0.000 C 
ATOM      2  C   UNL     1       0.886   8.568  20.706  0.00  0.00    +0.000 A 
ATOM      3  N   UNL     1       0.591   9.656  19.953  0.00  0.00    +0.000 NA
ATOM      4  N   UNL     1       1.269   9.598  18.831  0.00  0.00    +0.000 N 
ATOM      5  C   UNL     1       1.151  10.530  17.722  0.00  0.00    +0.000 C 
ATOM      6  C   UNL     1       2.041   8.525  18.849  0.00  0.00    +0.000 A 
ATOM      7  N   UNL     1       2.938   8.266  17.896  0.00  0.00    +0.000 NA
ATOM      8  C   UNL     1       3.689   7.161  17.934  0.00  0.00    +0.000 A 
ATOM      9  C   UNL     1       4.653   7.023  16.942  0.00  0.00    +0.000 A 
ATOM     10  C   UNL     1       5.431   5.873  16.848  0.00  0.00    +0.000 A 
ATOM     11  C   UNL     1       5.198   4.840  17.772  0.00  0.00    +0.000 A 
ATOM     12  C   UNL     1       4.243   4.984  18.801  0.00  0.00    +0.000 A 
ATOM     13  C   UNL     1       3.475   6.180  18.936  0.00  0.00    +0.000 A 
ATOM     14  C   UNL     1       2.502   6.440  19.995  0.00  0.00    +0.000 A 
ATOM     15  C   UNL     1       1.801   7.728  19.953  0.00  0.00    +0.000 A 
ENDROOT
BRANCH  10  16
ATOM     16  N   UNL     1       6.434   5.769  15.815  0.00  0.00    +0.000 N 
ATOM     17  O   UNL     1       7.575   5.944  16.069  0.00  0.00    +0.000 OA
ATOM     18  O   UNL     1       6.082   5.437  14.592  0.00  0.00    +0.000 OA
ENDBRANCH  10  16
BRANCH  14  19
ATOM     19  N   UNL     1       2.284   5.395  20.964  0.00  0.00    +0.000 N 
ATOM     20  H   UNL     1       3.010   5.198  21.664  0.00  0.00    +0.000 HD
BRANCH  19  21
ATOM     21  C   UNL     1       1.253   4.376  20.907  0.00  0.00    +0.000 C 
BRANCH  21  22
ATOM     22  C   UNL     1       1.816   2.972  21.194  0.00  0.00    +0.000 C 
BRANCH  22  23
ATOM     23  C   UNL     1       2.754   2.389  20.098  0.00  0.00    +0.000 C 
BRANCH  23  24
ATOM     24  N   UNL     1       2.064   1.736  18.956  0.00  0.00    +0.000 NA
ATOM     25  C   UNL     1       0.683   2.223  18.784  0.00  0.00    +0.000 C 
ATOM     26  C   UNL     1       2.818   2.009  17.715  0.00  0.00    +0.000 C 
ENDBRANCH  23  24
ENDBRANCH  22  23
ENDBRANCH  21  22
ENDBRANCH  19  21
ENDBRANCH  14  19
TORSDOF 6
ENDMDL
MODEL 8
REMARK VINA RESULT:      -6.6      1.251      1.631
REMARK  Name = 
REMARK  10 active torsions:
REMARK  status: ('A' for Active; 'I' for Inactive)
REMARK    1  A    between atoms: C_1  and  C_2
REMARK    2  A    between atoms: N_4  and  C_5
REMARK    3  A    between atoms: C_10  and  N_11
REMARK    4  A    between atoms: C_17  and  N_18
REMARK    5  A    between atoms: N_18  and  C_19
REMARK    6  A    between atoms: C_19  and  C_20
REMARK    7  A    between atoms: C_20  and  C_21
REMARK    8  A    between atoms: C_21  and  N_22
REMARK    9  A    between atoms: N_22  and  C_23
REMARK   10  A    between atoms: N_22  and  C_24
REMARK                            x       y       z     vdW  Elec       q    Type
REMARK                         _______ _______ _______ _____ _____    ______ ____
ROOT
ATOM      1  C   UNL     1       1.155   4.076  21.179  0.00  0.00    +0.000 C 
ATOM      2  C   UNL     1       2.410   3.736  20.416  0.00  0.00    +0.000 A 
ATOM      3  N   UNL     1       2.967   2.544  20.740  0.00  0.00    +0.000 NA
ATOM      4  N   UNL     1       3.980   2.310  19.940  0.00  0.00    +0.000 N 
ATOM      5  C   UNL     1       4.890   1.181  20.033  0.00  0.00    +0.000 C 
ATOM      6  C   UNL     1       4.071   3.295  19.063  0.00  0.00    +0.000 A 
ATOM      7  N   UNL     1       4.930   3.275  18.042  0.00  0.00    +0.000 NA
ATOM      8  C   UNL     1       5.011   4.298  17.185  0.00  0.00    +0.000 A 
ATOM      9  C   UNL     1       5.876   4.146  16.107  0.00  0.00    +0.000 A 
ATOM     10  C   UNL     1       6.090   5.182  15.204  0.00  0.00    +0.000 A 
ATOM     11  C   UNL     1       5.426   6.400  15.426  0.00  0.00    +0.000 A 
ATOM     12  C   UNL     1       4.523   6.553  16.499  0.00  0.00    +0.000 A 
ATOM     13  C   UNL     1       4.258   5.480  17.402  0.00  0.00    +0.000 A 
ATOM     14  C   UNL     1       3.306   5.527  18.510  0.00  0.00    +0.000 A 
ATOM     15  C   UNL     1       3.186   4.322  19.337  0.00  0.00    +0.000 A 
ENDROOT
BRANCH  10  16
ATOM     16  N   UNL     1       6.983   4.984  14.086  0.00  0.00    +0.000 N 
ATOM     17  O   UNL     1       8.000   5.584  14.020  0.00  0.00    +0.000 OA
ATOM     18  O   UNL     1       6.684   4.103  13.157  0.00  0.00    +0.000 OA
ENDBRANCH  10  16
BRANCH  14  19
ATOM     19  N   UNL     1       2.598   6.765  18.721  0.00  0.00    +0.000 N 
ATOM     20  H   UNL     1       2.541   7.450  17.955  0.00  0.00    +0.000 HD
BRANCH  19  21
ATOM     21  C   UNL     1       2.172   7.302  20.000  0.00  0.00    +0.000 C 
BRANCH  21  22
ATOM     22  C   UNL     1       1.474   8.666  19.848  0.00  0.00    +0.000 C 
BRANCH  22  23
ATOM     23  C   UNL     1       1.388   9.218  18.395  0.00  0.00    +0.000 C 
BRANCH  23  24
ATOM     24  N   UNL     1       0.684  10.518  18.252  0.00  0.00    +0.000 NA
ATOM     25  C   UNL     1      -0.778  10.379  18.380  0.00  0.00    +0.000 C 
ATOM     26  C   UNL     1       1.163  11.446  19.296  0.00  0.00    +0.000 C 
ENDBRANCH  23  24
ENDBRANCH  22  23
ENDBRANCH  21  22
ENDBRANCH  19  21
ENDBRANCH  14  19
TORSDOF 6
ENDMDL
MODEL 9
REMARK VINA RESULT:      -6.6      4.155      6.911
REMARK  Name = 
REMARK  10 active torsions:
REMARK  status: ('A' for Active; 'I' for Inactive)
REMARK    1  A    between atoms: C_1  and  C_2
REMARK    2  A    between atoms: N_4  and  C_5
REMARK    3  A    between atoms: C_10  and  N_11
REMARK    4  A    between atoms: C_17  and  N_18
REMARK    5  A    between atoms: N_18  and  C_19
REMARK    6  A    between atoms: C_19  and  C_20
REMARK    7  A    between atoms: C_20  and  C_21
REMARK    8  A    between atoms: C_21  and  N_22
REMARK    9  A    between atoms: N_22  and  C_23
REMARK   10  A    between atoms: N_22  and  C_24
REMARK                            x       y       z     vdW  Elec       q    Type
REMARK                         _______ _______ _______ _____ _____    ______ ____
ROOT
ATOM      1  C   UNL     1       4.377   3.305  17.552  0.00  0.00    +0.000 C 
ATOM      2  C   UNL     1       3.376   3.845  18.541  0.00  0.00    +0.000 A 
ATOM      3  N   UNL     1       2.894   2.931  19.418  0.00  0.00    +0.000 NA
ATOM      4  N   UNL     1       2.123   3.537  20.291  0.00  0.00    +0.000 N 
ATOM      5  C   UNL     1       1.346   2.884  21.331  0.00  0.00    +0.000 C 
ATOM      6  C   UNL     1       2.128   4.835  20.039  0.00  0.00    +0.000 A 
ATOM      7  N   UNL     1       1.532   5.726  20.836  0.00  0.00    +0.000 NA
ATOM      8  C   UNL     1       1.538   7.029  20.542  0.00  0.00    +0.000 A 
ATOM      9  C   UNL     1       0.966   7.886  21.476  0.00  0.00    +0.000 A 
ATOM     10  C   UNL     1       0.851   9.250  21.228  0.00  0.00    +0.000 A 
ATOM     11  C   UNL     1       1.308   9.738  19.992  0.00  0.00    +0.000 A 
ATOM     12  C   UNL     1       1.919   8.881  19.051  0.00  0.00    +0.000 A 
ATOM     13  C   UNL     1       2.087   7.489  19.317  0.00  0.00    +0.000 A 
ATOM     14  C   UNL     1       2.748   6.536  18.428  0.00  0.00    +0.000 A 
ATOM     15  C   UNL     1       2.808   5.140  18.875  0.00  0.00    +0.000 A 
ENDROOT
BRANCH  10  16
ATOM     16  N   UNL     1       0.265  10.113  22.226  0.00  0.00    +0.000 N 
ATOM     17  O   UNL     1       0.385   9.864  23.376  0.00  0.00    +0.000 OA
ATOM     18  O   UNL     1      -0.370  11.204  21.857  0.00  0.00    +0.000 OA
ENDBRANCH  10  16
BRANCH  14  19
ATOM     19  N   UNL     1       3.248   7.039  17.174  0.00  0.00    +0.000 N 
ATOM     20  H   UNL     1       2.592   7.458  16.502  0.00  0.00    +0.000 HD
BRANCH  19  21
ATOM     21  C   UNL     1       4.558   6.779  16.606  0.00  0.00    +0.000 C 
BRANCH  21  22
ATOM     22  C   UNL     1       5.691   7.277  17.522  0.00  0.00    +0.000 C 
BRANCH  22  23
ATOM     23  C   UNL     1       7.106   6.712  17.206  0.00  0.00    +0.000 C 
BRANCH  23  24
ATOM     24  N   UNL     1       7.624   5.720  18.182  0.00  0.00    +0.000 NA
ATOM     25  C   UNL     1       6.728   5.555  19.341  0.00  0.00    +0.000 C 
ATOM     26  C   UNL     1       7.772   4.413  17.511  0.00  0.00    +0.000 C 
ENDBRANCH  23  24
ENDBRANCH  22  23
ENDBRANCH  21  22
ENDBRANCH  19  21
ENDBRANCH  14  19
TORSDOF 6
ENDMDL
