MODEL 1
REMARK VINA RESULT:      -7.5      0.000      0.000
REMARK  Name = 
REMARK  16 active torsions:
REMARK  status: ('A' for Active; 'I' for Inactive)
REMARK    1  A    between atoms: C_1  and  O_2
REMARK    2  A    between atoms: O_2  and  C_3
REMARK    3  A    between atoms: C_8  and  C_9
REMARK    4  A    between atoms: C_12  and  C_13
REMARK    5  A    between atoms: C_12  and  C_15
REMARK    6  A    between atoms: C_13  and  O_14
REMARK    7  A    between atoms: C_15  and  O_16
REMARK    8  A    between atoms: O_16  and  C_17
REMARK    9  A    between atoms: C_17  and  C_19
REMARK   10  A    between atoms: C_19  and  C_20
REMARK   11  A    between atoms: C_20  and  C_21
REMARK   12  A    between atoms: C_20  and  C_24
REMARK   13  A    between atoms: C_21  and  C_22
REMARK   14  A    between atoms: C_21  and  C_23
REMARK   15  A    between atoms: C_24  and  C_25
REMARK   16  A    between atoms: C_24  and  C_26
REMARK                            x       y       z     vdW  Elec       q    Type
REMARK                         _______ _______ _______ _____ _____    ______ ____
ROOT
ATOM      1  C   UNL     1       2.035   6.267  20.937  0.00  0.00    +0.000 C 
ATOM      2  C   UNL     1       2.147   5.091  20.303  0.00  0.00    +0.000 C 
ATOM      3  C   UNL     1       2.120   4.787  18.855  0.00  0.00    +0.000 C 
ATOM      4  C   UNL     1       1.896   3.277  18.830  0.00  0.00    +0.000 C 
ATOM      5  O   UNL     1       2.263   2.808  20.149  0.00  0.00    +0.000 OA
ATOM      6  C   UNL     1       2.322   3.828  21.048  0.00  0.00    +0.000 C 
ATOM      7  O   UNL     1       2.493   3.702  22.245  0.00  0.00    +0.000 OA
ENDROOT
BRANCH   1  13
ATOM      8  C   UNL     1       1.136   8.654  20.801  0.00  0.00    +0.000 A 
ATOM      9  C   UNL     1       0.905   9.780  19.994  0.00  0.00    +0.000 A 
ATOM     10  C   UNL     1       1.309   9.813  18.659  0.00  0.00    +0.000 A 
ATOM     11  C   UNL     1       1.949   8.710  18.108  0.00  0.00    +0.000 A 
ATOM     12  C   UNL     1       2.190   7.585  18.900  0.00  0.00    +0.000 A 
ATOM     13  C   UNL     1       1.786   7.539  20.250  0.00  0.00    +0.000 A 
BRANCH   8  15
ATOM     14  C   UNL     1      -0.391   9.791  22.245  0.00  0.00    +0.000 C 
ATOM     15  O   UNL     1       0.576   8.773  22.045  0.00  0.00    +0.000 OA
ENDBRANCH   8  15
ENDBRANCH   1  13
BRANCH   4  16
ATOM     16  C   UNL     1       0.424   2.905  18.574  0.00  0.00    +0.000 C 
BRANCH  16  17
ATOM     17  O   UNL     1       0.274   1.513  18.297  0.00  0.00    +0.000 OA
ATOM     18  H   UNL     1       0.282   1.050  19.155  0.00  0.00    +0.000 HD
ENDBRANCH  16  17
ENDBRANCH   4  16
BRANCH   4  19
ATOM     19  C   UNL     1       2.839   2.621  17.806  0.00  0.00    +0.000 C 
BRANCH  19  20
ATOM     20  O   UNL     1       4.164   2.442  18.332  0.00  0.00    +0.000 OA
BRANCH  20  21
ATOM     21  C   UNL     1       5.033   3.480  18.191  0.00  0.00    +0.000 C 
ATOM     22  O   UNL     1       5.710   3.959  19.088  0.00  0.00    +0.000 OA
BRANCH  21  23
ATOM     23  C   UNL     1       4.985   3.973  16.764  0.00  0.00    +0.000 C 
BRANCH  23  24
ATOM     24  C   UNL     1       6.297   4.574  16.201  0.00  0.00    +0.000 C 
BRANCH  24  25
ATOM     25  C   UNL     1       6.570   4.145  14.707  0.00  0.00    +0.000 C 
ATOM     26  C   UNL     1       5.271   3.976  13.902  0.00  0.00    +0.000 C 
ATOM     27  C   UNL     1       7.464   5.118  13.924  0.00  0.00    +0.000 C 
ENDBRANCH  24  25
BRANCH  24  28
ATOM     28  C   UNL     1       6.290   6.141  16.369  0.00  0.00    +0.000 C 
ATOM     29  C   UNL     1       4.893   6.721  16.628  0.00  0.00    +0.000 C 
ATOM     30  C   UNL     1       7.256   6.642  17.455  0.00  0.00    +0.000 C 
ENDBRANCH  24  28
ENDBRANCH  23  24
ENDBRANCH  21  23
ENDBRANCH  20  21
ENDBRANCH  19  20
ENDBRANCH   4  19
TORSDOF 11
ENDMDL
MODEL 2
REMARK VINA RESULT:      -7.0      3.591      6.807
REMARK  Name = 
REMARK  16 active torsions:
REMARK  status: ('A' for Active; 'I' for Inactive)
REMARK    1  A    between atoms: C_1  and  O_2
REMARK    2  A    between atoms: O_2  and  C_3
REMARK    3  A    between atoms: C_8  and  C_9
REMARK    4  A    between atoms: C_12  and  C_13
REMARK    5  A    between atoms: C_12  and  C_15
REMARK    6  A    between atoms: C_13  and  O_14
REMARK    7  A    between atoms: C_15  and  O_16
REMARK    8  A    between atoms: O_16  and  C_17
REMARK    9  A    between atoms: C_17  and  C_19
REMARK   10  A    between atoms: C_19  and  C_20
REMARK   11  A    between atoms: C_20  and  C_21
REMARK   12  A    between atoms: C_20  and  C_24
REMARK   13  A    between atoms: C_21  and  C_22
REMARK   14  A    between atoms: C_21  and  C_23
REMARK   15  A    between atoms: C_24  and  C_25
REMARK   16  A    between atoms: C_24  and  C_26
REMARK                            x       y       z     vdW  Elec       q    Type
REMARK                         _______ _______ _______ _____ _____    ______ ____
ROOT
ATOM      1  C   UNL     1      -1.449  12.159  18.757  0.00  0.00    +0.000 C 
ATOM      2  C   UNL     1      -0.681  11.364  19.515  0.00  0.00    +0.000 C 
ATOM      3  C   UNL     1      -0.971  10.029  20.086  0.00  0.00    +0.000 C 
ATOM      4  C   UNL     1       0.121   9.868  21.141  0.00  0.00    +0.000 C 
ATOM      5  O   UNL     1       1.146  10.828  20.789  0.00  0.00    +0.000 OA
ATOM      6  C   UNL     1       0.680  11.766  19.919  0.00  0.00    +0.000 C 
ATOM      7  O   UNL     1       1.292  12.749  19.552  0.00  0.00    +0.000 OA
ENDROOT
BRANCH   1  13
ATOM      8  C   UNL     1      -3.250  11.297  17.163  0.00  0.00    +0.000 A 
ATOM      9  C   UNL     1      -4.623  11.114  16.927  0.00  0.00    +0.000 A 
ATOM     10  C   UNL     1      -5.577  11.459  17.884  0.00  0.00    +0.000 A 
ATOM     11  C   UNL     1      -5.169  12.001  19.096  0.00  0.00    +0.000 A 
ATOM     12  C   UNL     1      -3.808  12.184  19.347  0.00  0.00    +0.000 A 
ATOM     13  C   UNL     1      -2.833  11.840  18.389  0.00  0.00    +0.000 A 
BRANCH   8  15
ATOM     14  C   UNL     1      -2.957  10.006  15.174  0.00  0.00    +0.000 C 
ATOM     15  O   UNL     1      -2.482  10.998  16.070  0.00  0.00    +0.000 OA
ENDBRANCH   8  15
ENDBRANCH   1  13
BRANCH   4  16
ATOM     16  C   UNL     1      -0.380  10.192  22.560  0.00  0.00    +0.000 C 
BRANCH  16  17
ATOM     17  O   UNL     1      -0.935   9.042  23.197  0.00  0.00    +0.000 OA
ATOM     18  H   UNL     1      -0.186   8.494  23.496  0.00  0.00    +0.000 HD
ENDBRANCH  16  17
ENDBRANCH   4  16
BRANCH   4  19
ATOM     19  C   UNL     1       0.731   8.458  21.057  0.00  0.00    +0.000 C 
BRANCH  19  20
ATOM     20  O   UNL     1       2.014   8.466  20.409  0.00  0.00    +0.000 OA
BRANCH  20  21
ATOM     21  C   UNL     1       2.174   7.637  19.340  0.00  0.00    +0.000 C 
ATOM     22  O   UNL     1       1.949   7.937  18.177  0.00  0.00    +0.000 OA
BRANCH  21  23
ATOM     23  C   UNL     1       2.621   6.281  19.829  0.00  0.00    +0.000 C 
BRANCH  23  24
ATOM     24  C   UNL     1       2.675   5.153  18.770  0.00  0.00    +0.000 C 
BRANCH  24  25
ATOM     25  C   UNL     1       4.135   4.899  18.226  0.00  0.00    +0.000 C 
ATOM     26  C   UNL     1       4.428   5.701  16.947  0.00  0.00    +0.000 C 
ATOM     27  C   UNL     1       5.249   5.226  19.230  0.00  0.00    +0.000 C 
ENDBRANCH  24  25
BRANCH  24  28
ATOM     28  C   UNL     1       2.028   3.837  19.348  0.00  0.00    +0.000 C 
ATOM     29  C   UNL     1       1.224   4.066  20.635  0.00  0.00    +0.000 C 
ATOM     30  C   UNL     1       1.153   3.090  18.328  0.00  0.00    +0.000 C 
ENDBRANCH  24  28
ENDBRANCH  23  24
ENDBRANCH  21  23
ENDBRANCH  20  21
ENDBRANCH  19  20
ENDBRANCH   4  19
TORSDOF 11
ENDMDL
MODEL 3
REMARK VINA RESULT:      -7.0      0.812      1.243
REMARK  Name = 
REMARK  16 active torsions:
REMARK  status: ('A' for Active; 'I' for Inactive)
REMARK    1  A    between atoms: C_1  and  O_2
REMARK    2  A    between atoms: O_2  and  C_3
REMARK    3  A    between atoms: C_8  and  C_9
REMARK    4  A    between atoms: C_12  and  C_13
REMARK    5  A    between atoms: C_12  and  C_15
REMARK    6  A    between atoms: C_13  and  O_14
REMARK    7  A    between atoms: C_15  and  O_16
REMARK    8  A    between atoms: O_16  and  C_17
REMARK    9  A    between atoms: C_17  and  C_19
REMARK   10  A    between atoms: C_19  and  C_20
REMARK   11  A    between atoms: C_20  and  C_21
REMARK   12  A    between atoms: C_20  and  C_24
REMARK   13  A    between atoms: C_21  and  C_22
REMARK   14  A    between atoms: C_21  and  C_23
REMARK   15  A    between atoms: C_24  and  C_25
REMARK   16  A    between atoms: C_24  and  C_26
REMARK                            x       y       z     vdW  Elec       q    Type
REMARK                         _______ _______ _______ _____ _____    ______ ____
ROOT
ATOM      1  C   UNL     1       1.919   6.116  20.912  0.00  0.00    +0.000 C 
ATOM      2  C   UNL     1       2.365   4.994  20.329  0.00  0.00    +0.000 C 
ATOM      3  C   UNL     1       2.847   4.769  18.948  0.00  0.00    +0.000 C 
ATOM      4  C   UNL     1       2.815   3.249  18.821  0.00  0.00    +0.000 C 
ATOM      5  O   UNL     1       2.780   2.746  20.178  0.00  0.00    +0.000 OA
ATOM      6  C   UNL     1       2.427   3.716  21.066  0.00  0.00    +0.000 C 
ATOM      7  O   UNL     1       2.210   3.541  22.248  0.00  0.00    +0.000 OA
ENDROOT
BRANCH   1  13
ATOM      8  C   UNL     1       1.207   8.563  20.741  0.00  0.00    +0.000 A 
ATOM      9  C   UNL     1       1.062   9.692  19.917  0.00  0.00    +0.000 A 
ATOM     10  C   UNL     1       1.464   9.672  18.582  0.00  0.00    +0.000 A 
ATOM     11  C   UNL     1       2.015   8.515  18.047  0.00  0.00    +0.000 A 
ATOM     12  C   UNL     1       2.171   7.387  18.855  0.00  0.00    +0.000 A 
ATOM     13  C   UNL     1       1.768   7.392  20.206  0.00  0.00    +0.000 A 
BRANCH   8  15
ATOM     14  C   UNL     1      -0.314   9.761  22.141  0.00  0.00    +0.000 C 
ATOM     15  O   UNL     1       0.661   8.743  21.984  0.00  0.00    +0.000 OA
ENDBRANCH   8  15
ENDBRANCH   1  13
BRANCH   4  16
ATOM     16  C   UNL     1       1.560   2.746  18.085  0.00  0.00    +0.000 C 
BRANCH  16  17
ATOM     17  O   UNL     1       0.938   1.666  18.782  0.00  0.00    +0.000 OA
ATOM     18  H   UNL     1       1.273   0.842  18.384  0.00  0.00    +0.000 HD
ENDBRANCH  16  17
ENDBRANCH   4  16
BRANCH   4  19
ATOM     19  C   UNL     1       4.109   2.748  18.154  0.00  0.00    +0.000 C 
BRANCH  19  20
ATOM     20  O   UNL     1       4.863   3.822  17.570  0.00  0.00    +0.000 OA
BRANCH  20  21
ATOM     21  C   UNL     1       6.039   4.153  18.172  0.00  0.00    +0.000 C 
ATOM     22  O   UNL     1       6.182   4.373  19.366  0.00  0.00    +0.000 OA
BRANCH  21  23
ATOM     23  C   UNL     1       7.119   4.253  17.123  0.00  0.00    +0.000 C 
BRANCH  23  24
ATOM     24  C   UNL     1       7.094   5.518  16.231  0.00  0.00    +0.000 C 
BRANCH  24  25
ATOM     25  C   UNL     1       6.589   5.220  14.765  0.00  0.00    +0.000 C 
ATOM     26  C   UNL     1       7.712   5.355  13.723  0.00  0.00    +0.000 C 
ATOM     27  C   UNL     1       5.968   3.828  14.583  0.00  0.00    +0.000 C 
ENDBRANCH  24  25
BRANCH  24  28
ATOM     28  C   UNL     1       6.246   6.652  16.924  0.00  0.00    +0.000 C 
ATOM     29  C   UNL     1       7.058   7.914  17.240  0.00  0.00    +0.000 C 
ATOM     30  C   UNL     1       4.988   7.042  16.131  0.00  0.00    +0.000 C 
ENDBRANCH  24  28
ENDBRANCH  23  24
ENDBRANCH  21  23
ENDBRANCH  20  21
ENDBRANCH  19  20
ENDBRANCH   4  19
TORSDOF 11
ENDMDL
MODEL 4
REMARK VINA RESULT:      -7.0      3.176      6.158
REMARK  Name = 
REMARK  16 active torsions:
REMARK  status: ('A' for Active; 'I' for Inactive)
REMARK    1  A    between atoms: C_1  and  O_2
REMARK    2  A    between atoms: O_2  and  C_3
REMARK    3  A    between atoms: C_8  and  C_9
REMARK    4  A    between atoms: C_12  and  C_13
REMARK    5  A    between atoms: C_12  and  C_15
REMARK    6  A    between atoms: C_13  and  O_14
REMARK    7  A    between atoms: C_15  and  O_16
REMARK    8  A    between atoms: O_16  and  C_17
REMARK    9  A    between atoms: C_17  and  C_19
REMARK   10  A    between atoms: C_19  and  C_20
REMARK   11  A    between atoms: C_20  and  C_21
REMARK   12  A    between atoms: C_20  and  C_24
REMARK   13  A    between atoms: C_21  and  C_22
REMARK   14  A    between atoms: C_21  and  C_23
REMARK   15  A    between atoms: C_24  and  C_25
REMARK   16  A    between atoms: C_24  and  C_26
REMARK                            x       y       z     vdW  Elec       q    Type
REMARK                         _______ _______ _______ _____ _____    ______ ____
ROOT
ATOM      1  C   UNL     1      -1.046  12.290  19.445  0.00  0.00    +0.000 C 
ATOM      2  C   UNL     1      -0.244  11.399  20.046  0.00  0.00    +0.000 C 
ATOM      3  C   UNL     1      -0.256   9.920  19.988  0.00  0.00    +0.000 C 
ATOM      4  C   UNL     1       0.622   9.528  21.173  0.00  0.00    +0.000 C 
ATOM      5  O   UNL     1       1.391  10.711  21.496  0.00  0.00    +0.000 OA
ATOM      6  C   UNL     1       0.855  11.829  20.933  0.00  0.00    +0.000 C 
ATOM      7  O   UNL     1       1.231  12.967  21.135  0.00  0.00    +0.000 OA
ENDROOT
BRANCH   1  13
ATOM      8  C   UNL     1      -3.540  11.930  19.021  0.00  0.00    +0.000 A 
ATOM      9  C   UNL     1      -4.529  11.473  18.134  0.00  0.00    +0.000 A 
ATOM     10  C   UNL     1      -4.202  11.006  16.861  0.00  0.00    +0.000 A 
ATOM     11  C   UNL     1      -2.874  10.985  16.456  0.00  0.00    +0.000 A 
ATOM     12  C   UNL     1      -1.881  11.442  17.324  0.00  0.00    +0.000 A 
ATOM     13  C   UNL     1      -2.196  11.915  18.614  0.00  0.00    +0.000 A 
BRANCH   8  15
ATOM     14  C   UNL     1      -4.396  13.600  20.501  0.00  0.00    +0.000 C 
ATOM     15  O   UNL     1      -4.043  12.248  20.254  0.00  0.00    +0.000 OA
ENDBRANCH   8  15
ENDBRANCH   1  13
BRANCH   4  16
ATOM     16  C   UNL     1      -0.203   9.132  22.411  0.00  0.00    +0.000 C 
BRANCH  16  17
ATOM     17  O   UNL     1       0.385   9.625  23.615  0.00  0.00    +0.000 OA
ATOM     18  H   UNL     1      -0.226   9.402  24.341  0.00  0.00    +0.000 HD
ENDBRANCH  16  17
ENDBRANCH   4  16
BRANCH   4  19
ATOM     19  C   UNL     1       1.601   8.416  20.758  0.00  0.00    +0.000 C 
BRANCH  19  20
ATOM     20  O   UNL     1       1.104   7.110  21.093  0.00  0.00    +0.000 OA
BRANCH  20  21
ATOM     21  C   UNL     1       1.791   6.040  20.604  0.00  0.00    +0.000 C 
ATOM     22  O   UNL     1       2.058   5.027  21.233  0.00  0.00    +0.000 OA
BRANCH  21  23
ATOM     23  C   UNL     1       2.211   6.331  19.183  0.00  0.00    +0.000 C 
BRANCH  23  24
ATOM     24  C   UNL     1       3.448   5.560  18.662  0.00  0.00    +0.000 C 
BRANCH  24  25
ATOM     25  C   UNL     1       3.062   4.225  17.914  0.00  0.00    +0.000 C 
ATOM     26  C   UNL     1       3.508   2.973  18.688  0.00  0.00    +0.000 C 
ATOM     27  C   UNL     1       1.561   4.071  17.630  0.00  0.00    +0.000 C 
ENDBRANCH  24  25
BRANCH  24  28
ATOM     28  C   UNL     1       4.333   6.503  17.760  0.00  0.00    +0.000 C 
ATOM     29  C   UNL     1       4.841   5.824  16.482  0.00  0.00    +0.000 C 
ATOM     30  C   UNL     1       3.636   7.823  17.392  0.00  0.00    +0.000 C 
ENDBRANCH  24  28
ENDBRANCH  23  24
ENDBRANCH  21  23
ENDBRANCH  20  21
ENDBRANCH  19  20
ENDBRANCH   4  19
TORSDOF 11
ENDMDL
MODEL 5
REMARK VINA RESULT:      -6.9      4.913      7.816
REMARK  Name = 
REMARK  16 active torsions:
REMARK  status: ('A' for Active; 'I' for Inactive)
REMARK    1  A    between atoms: C_1  and  O_2
REMARK    2  A    between atoms: O_2  and  C_3
REMARK    3  A    between atoms: C_8  and  C_9
REMARK    4  A    between atoms: C_12  and  C_13
REMARK    5  A    between atoms: C_12  and  C_15
REMARK    6  A    between atoms: C_13  and  O_14
REMARK    7  A    between atoms: C_15  and  O_16
REMARK    8  A    between atoms: O_16  and  C_17
REMARK    9  A    between atoms: C_17  and  C_19
REMARK   10  A    between atoms: C_19  and  C_20
REMARK   11  A    between atoms: C_20  and  C_21
REMARK   12  A    between atoms: C_20  and  C_24
REMARK   13  A    between atoms: C_21  and  C_22
REMARK   14  A    between atoms: C_21  and  C_23
REMARK   15  A    between atoms: C_24  and  C_25
REMARK   16  A    between atoms: C_24  and  C_26
REMARK                            x       y       z     vdW  Elec       q    Type
REMARK                         _______ _______ _______ _____ _____    ______ ____
ROOT
ATOM      1  C   UNL     1      -4.643  10.735  17.473  0.00  0.00    +0.000 C 
ATOM      2  C   UNL     1      -3.345  10.575  17.769  0.00  0.00    +0.000 C 
ATOM      3  C   UNL     1      -2.625  10.824  19.038  0.00  0.00    +0.000 C 
ATOM      4  C   UNL     1      -1.163  10.833  18.600  0.00  0.00    +0.000 C 
ATOM      5  O   UNL     1      -1.137  10.170  17.314  0.00  0.00    +0.000 OA
ATOM      6  C   UNL     1      -2.380  10.092  16.763  0.00  0.00    +0.000 C 
ATOM      7  O   UNL     1      -2.628   9.690  15.644  0.00  0.00    +0.000 OA
ENDROOT
BRANCH   1  13
ATOM      8  C   UNL     1      -6.502  10.528  19.213  0.00  0.00    +0.000 A 
ATOM      9  C   UNL     1      -7.445  11.195  20.012  0.00  0.00    +0.000 A 
ATOM     10  C   UNL     1      -7.532  12.587  20.026  0.00  0.00    +0.000 A 
ATOM     11  C   UNL     1      -6.674  13.336  19.231  0.00  0.00    +0.000 A 
ATOM     12  C   UNL     1      -5.726  12.687  18.436  0.00  0.00    +0.000 A 
ATOM     13  C   UNL     1      -5.629  11.281  18.412  0.00  0.00    +0.000 A 
BRANCH   8  15
ATOM     14  C   UNL     1      -7.448   8.613  20.284  0.00  0.00    +0.000 C 
ATOM     15  O   UNL     1      -6.641   9.166  19.257  0.00  0.00    +0.000 OA
ENDBRANCH   8  15
ENDBRANCH   1  13
BRANCH   4  16
ATOM     16  C   UNL     1      -0.612  12.260  18.421  0.00  0.00    +0.000 C 
BRANCH  16  17
ATOM     17  O   UNL     1      -1.033  12.835  17.184  0.00  0.00    +0.000 OA
ATOM     18  H   UNL     1      -0.410  12.524  16.501  0.00  0.00    +0.000 HD
ENDBRANCH  16  17
ENDBRANCH   4  16
BRANCH   4  19
ATOM     19  C   UNL     1      -0.312  10.010  19.584  0.00  0.00    +0.000 C 
BRANCH  19  20
ATOM     20  O   UNL     1       0.843   9.440  18.949  0.00  0.00    +0.000 OA
BRANCH  20  21
ATOM     21  C   UNL     1       1.541   8.505  19.653  0.00  0.00    +0.000 C 
ATOM     22  O   UNL     1       1.480   8.346  20.863  0.00  0.00    +0.000 OA
BRANCH  21  23
ATOM     23  C   UNL     1       2.433   7.739  18.707  0.00  0.00    +0.000 C 
BRANCH  23  24
ATOM     24  C   UNL     1       2.857   6.321  19.161  0.00  0.00    +0.000 C 
BRANCH  24  25
ATOM     25  C   UNL     1       1.656   5.296  19.155  0.00  0.00    +0.000 C 
ATOM     26  C   UNL     1       1.760   4.283  18.003  0.00  0.00    +0.000 C 
ATOM     27  C   UNL     1       1.508   4.490  20.454  0.00  0.00    +0.000 C 
ENDBRANCH  24  25
BRANCH  24  28
ATOM     28  C   UNL     1       4.066   5.812  18.287  0.00  0.00    +0.000 C 
ATOM     29  C   UNL     1       4.568   6.850  17.275  0.00  0.00    +0.000 C 
ATOM     30  C   UNL     1       5.251   5.305  19.124  0.00  0.00    +0.000 C 
ENDBRANCH  24  28
ENDBRANCH  23  24
ENDBRANCH  21  23
ENDBRANCH  20  21
ENDBRANCH  19  20
ENDBRANCH   4  19
TORSDOF 11
ENDMDL
MODEL 6
REMARK VINA RESULT:      -6.9      1.732      7.445
REMARK  Name = 
REMARK  16 active torsions:
REMARK  status: ('A' for Active; 'I' for Inactive)
REMARK    1  A    between atoms: C_1  and  O_2
REMARK    2  A    between atoms: O_2  and  C_3
REMARK    3  A    between atoms: C_8  and  C_9
REMARK    4  A    between atoms: C_12  and  C_13
REMARK    5  A    between atoms: C_12  and  C_15
REMARK    6  A    between atoms: C_13  and  O_14
REMARK    7  A    between atoms: C_15  and  O_16
REMARK    8  A    between atoms: O_16  and  C_17
REMARK    9  A    between atoms: C_17  and  C_19
REMARK   10  A    between atoms: C_19  and  C_20
REMARK   11  A    between atoms: C_20  and  C_21
REMARK   12  A    between atoms: C_20  and  C_24
REMARK   13  A    between atoms: C_21  and  C_22
REMARK   14  A    between atoms: C_21  and  C_23
REMARK   15  A    between atoms: C_24  and  C_25
REMARK   16  A    between atoms: C_24  and  C_26
REMARK                            x       y       z     vdW  Elec       q    Type
REMARK                         _______ _______ _______ _____ _____    ______ ____
ROOT
ATOM      1  C   UNL     1       3.606   3.702  17.389  0.00  0.00    +0.000 C 
ATOM      2  C   UNL     1       2.814   4.157  18.370  0.00  0.00    +0.000 C 
ATOM      3  C   UNL     1       3.071   5.196  19.392  0.00  0.00    +0.000 C 
ATOM      4  C   UNL     1       1.963   4.948  20.412  0.00  0.00    +0.000 C 
ATOM      5  O   UNL     1       0.961   4.169  19.717  0.00  0.00    +0.000 OA
ATOM      6  C   UNL     1       1.455   3.617  18.575  0.00  0.00    +0.000 C 
ATOM      7  O   UNL     1       0.867   2.827  17.865  0.00  0.00    +0.000 OA
ENDROOT
BRANCH   1  13
ATOM      8  C   UNL     1       5.637   4.273  15.948  0.00  0.00    +0.000 A 
ATOM      9  C   UNL     1       6.991   4.647  15.918  0.00  0.00    +0.000 A 
ATOM     10  C   UNL     1       7.701   4.900  17.092  0.00  0.00    +0.000 A 
ATOM     11  C   UNL     1       7.064   4.776  18.320  0.00  0.00    +0.000 A 
ATOM     12  C   UNL     1       5.717   4.411  18.365  0.00  0.00    +0.000 A 
ATOM     13  C   UNL     1       4.988   4.151  17.187  0.00  0.00    +0.000 A 
BRANCH   8  15
ATOM     14  C   UNL     1       6.061   3.913  13.624  0.00  0.00    +0.000 C 
ATOM     15  O   UNL     1       5.146   3.968  14.707  0.00  0.00    +0.000 OA
ENDBRANCH   8  15
ENDBRANCH   1  13
BRANCH   4  16
ATOM     16  C   UNL     1       2.453   4.137  21.626  0.00  0.00    +0.000 C 
BRANCH  16  17
ATOM     17  O   UNL     1       1.562   3.067  21.938  0.00  0.00    +0.000 OA
ATOM     18  H   UNL     1       1.863   2.684  22.783  0.00  0.00    +0.000 HD
ENDBRANCH  16  17
ENDBRANCH   4  16
BRANCH   4  19
ATOM     19  C   UNL     1       1.327   6.284  20.835  0.00  0.00    +0.000 C 
BRANCH  19  20
ATOM     20  O   UNL     1       2.137   7.409  20.457  0.00  0.00    +0.000 OA
BRANCH  20  21
ATOM     21  C   UNL     1       1.526   8.408  19.762  0.00  0.00    +0.000 C 
ATOM     22  O   UNL     1       1.881   8.825  18.670  0.00  0.00    +0.000 OA
BRANCH  21  23
ATOM     23  C   UNL     1       0.377   8.946  20.580  0.00  0.00    +0.000 C 
BRANCH  23  24
ATOM     24  C   UNL     1       0.403  10.464  20.885  0.00  0.00    +0.000 C 
BRANCH  24  25
ATOM     25  C   UNL     1      -0.444  11.306  19.853  0.00  0.00    +0.000 C 
ATOM     26  C   UNL     1       0.439  12.195  18.962  0.00  0.00    +0.000 C 
ATOM     27  C   UNL     1      -1.324  10.462  18.919  0.00  0.00    +0.000 C 
ENDBRANCH  24  25
BRANCH  24  28
ATOM     28  C   UNL     1      -0.054  10.725  22.370  0.00  0.00    +0.000 C 
ATOM     29  C   UNL     1      -1.244  11.687  22.483  0.00  0.00    +0.000 C 
ATOM     30  C   UNL     1      -0.367   9.436  23.147  0.00  0.00    +0.000 C 
ENDBRANCH  24  28
ENDBRANCH  23  24
ENDBRANCH  21  23
ENDBRANCH  20  21
ENDBRANCH  19  20
ENDBRANCH   4  19
TORSDOF 11
ENDMDL
MODEL 7
REMARK VINA RESULT:      -6.8      2.714      5.458
REMARK  Name = 
REMARK  16 active torsions:
REMARK  status: ('A' for Active; 'I' for Inactive)
REMARK    1  A    between atoms: C_1  and  O_2
REMARK    2  A    between atoms: O_2  and  C_3
REMARK    3  A    between atoms: C_8  and  C_9
REMARK    4  A    between atoms: C_12  and  C_13
REMARK    5  A    between atoms: C_12  and  C_15
REMARK    6  A    between atoms: C_13  and  O_14
REMARK    7  A    between atoms: C_15  and  O_16
REMARK    8  A    between atoms: O_16  and  C_17
REMARK    9  A    between atoms: C_17  and  C_19
REMARK   10  A    between atoms: C_19  and  C_20
REMARK   11  A    between atoms: C_20  and  C_21
REMARK   12  A    between atoms: C_20  and  C_24
REMARK   13  A    between atoms: C_21  and  C_22
REMARK   14  A    between atoms: C_21  and  C_23
REMARK   15  A    between atoms: C_24  and  C_25
REMARK   16  A    between atoms: C_24  and  C_26
REMARK                            x       y       z     vdW  Elec       q    Type
REMARK                         _______ _______ _______ _____ _____    ______ ____
ROOT
ATOM      1  C   UNL     1       2.725   5.734  17.792  0.00  0.00    +0.000 C 
ATOM      2  C   UNL     1       3.989   5.627  17.357  0.00  0.00    +0.000 C 
ATOM      3  C   UNL     1       4.958   4.521  17.523  0.00  0.00    +0.000 C 
ATOM      4  C   UNL     1       6.287   5.180  17.160  0.00  0.00    +0.000 C 
ATOM      5  O   UNL     1       5.940   6.372  16.417  0.00  0.00    +0.000 OA
ATOM      6  C   UNL     1       4.633   6.711  16.590  0.00  0.00    +0.000 C 
ATOM      7  O   UNL     1       4.110   7.727  16.176  0.00  0.00    +0.000 OA
ENDROOT
BRANCH   1  13
ATOM      8  C   UNL     1       1.843   4.807  20.003  0.00  0.00    +0.000 A 
ATOM      9  C   UNL     1       1.259   3.721  20.675  0.00  0.00    +0.000 A 
ATOM     10  C   UNL     1       0.893   2.559  19.994  0.00  0.00    +0.000 A 
ATOM     11  C   UNL     1       1.112   2.466  18.626  0.00  0.00    +0.000 A 
ATOM     12  C   UNL     1       1.686   3.541  17.944  0.00  0.00    +0.000 A 
ATOM     13  C   UNL     1       2.062   4.720  18.619  0.00  0.00    +0.000 A 
BRANCH   8  15
ATOM     14  C   UNL     1       1.475   7.013  20.847  0.00  0.00    +0.000 C 
ATOM     15  O   UNL     1       2.226   5.810  20.855  0.00  0.00    +0.000 OA
ENDBRANCH   8  15
ENDBRANCH   1  13
BRANCH   4  16
ATOM     16  C   UNL     1       7.093   5.600  18.403  0.00  0.00    +0.000 C 
BRANCH  16  17
ATOM     17  O   UNL     1       7.885   6.760  18.149  0.00  0.00    +0.000 OA
ATOM     18  H   UNL     1       8.818   6.486  18.213  0.00  0.00    +0.000 HD
ENDBRANCH  16  17
ENDBRANCH   4  16
BRANCH   4  19
ATOM     19  C   UNL     1       7.099   4.255  16.236  0.00  0.00    +0.000 C 
BRANCH  19  20
ATOM     20  O   UNL     1       6.284   3.677  15.203  0.00  0.00    +0.000 OA
BRANCH  20  21
ATOM     21  C   UNL     1       6.339   4.258  13.973  0.00  0.00    +0.000 C 
ATOM     22  O   UNL     1       7.207   5.033  13.598  0.00  0.00    +0.000 OA
BRANCH  21  23
ATOM     23  C   UNL     1       5.132   3.832  13.172  0.00  0.00    +0.000 C 
BRANCH  23  24
ATOM     24  C   UNL     1       5.408   3.318  11.737  0.00  0.00    +0.000 C 
BRANCH  24  25
ATOM     25  C   UNL     1       6.402   2.093  11.710  0.00  0.00    +0.000 C 
ATOM     26  C   UNL     1       5.800   0.868  11.002  0.00  0.00    +0.000 C 
ATOM     27  C   UNL     1       7.749   2.388  11.034  0.00  0.00    +0.000 C 
ENDBRANCH  24  25
BRANCH  24  28
ATOM     28  C   UNL     1       4.048   2.986  11.011  0.00  0.00    +0.000 C 
ATOM     29  C   UNL     1       2.862   2.842  11.973  0.00  0.00    +0.000 C 
ATOM     30  C   UNL     1       3.687   3.991   9.905  0.00  0.00    +0.000 C 
ENDBRANCH  24  28
ENDBRANCH  23  24
ENDBRANCH  21  23
ENDBRANCH  20  21
ENDBRANCH  19  20
ENDBRANCH   4  19
TORSDOF 11
ENDMDL
MODEL 8
REMARK VINA RESULT:      -6.7      1.650      7.352
REMARK  Name = 
REMARK  16 active torsions:
REMARK  status: ('A' for Active; 'I' for Inactive)
REMARK    1  A    between atoms: C_1  and  O_2
REMARK    2  A    between atoms: O_2  and  C_3
REMARK    3  A    between atoms: C_8  and  C_9
REMARK    4  A    between atoms: C_12  and  C_13
REMARK    5  A    between atoms: C_12  and  C_15
REMARK    6  A    between atoms: C_13  and  O_14
REMARK    7  A    between atoms: C_15  and  O_16
REMARK    8  A    between atoms: O_16  and  C_17
REMARK    9  A    between atoms: C_17  and  C_19
REMARK   10  A    between atoms: C_19  and  C_20
REMARK   11  A    between atoms: C_20  and  C_21
REMARK   12  A    between atoms: C_20  and  C_24
REMARK   13  A    between atoms: C_21  and  C_22
REMARK   14  A    between atoms: C_21  and  C_23
REMARK   15  A    between atoms: C_24  and  C_25
REMARK   16  A    between atoms: C_24  and  C_26
REMARK                            x       y       z     vdW  Elec       q    Type
REMARK                         _______ _______ _______ _____ _____    ______ ____
ROOT
ATOM      1  C   UNL     1       3.599   3.670  17.002  0.00  0.00    +0.000 C 
ATOM      2  C   UNL     1       2.891   4.350  17.915  0.00  0.00    +0.000 C 
ATOM      3  C   UNL     1       3.207   5.619  18.609  0.00  0.00    +0.000 C 
ATOM      4  C   UNL     1       2.217   5.624  19.771  0.00  0.00    +0.000 C 
ATOM      5  O   UNL     1       1.183   4.679  19.406  0.00  0.00    +0.000 OA
ATOM      6  C   UNL     1       1.583   3.861  18.394  0.00  0.00    +0.000 C 
ATOM      7  O   UNL     1       0.959   2.908  17.973  0.00  0.00    +0.000 OA
ENDROOT
BRANCH   1  13
ATOM      8  C   UNL     1       6.044   4.313  17.374  0.00  0.00    +0.000 A 
ATOM      9  C   UNL     1       7.243   4.764  16.798  0.00  0.00    +0.000 A 
ATOM     10  C   UNL     1       7.353   4.977  15.424  0.00  0.00    +0.000 A 
ATOM     11  C   UNL     1       6.258   4.744  14.602  0.00  0.00    +0.000 A 
ATOM     12  C   UNL     1       5.061   4.289  15.160  0.00  0.00    +0.000 A 
ATOM     13  C   UNL     1       4.935   4.072  16.547  0.00  0.00    +0.000 A 
BRANCH   8  15
ATOM     14  C   UNL     1       6.731   5.341  19.419  0.00  0.00    +0.000 C 
ATOM     15  O   UNL     1       6.100   4.266  18.742  0.00  0.00    +0.000 OA
ENDBRANCH   8  15
ENDBRANCH   1  13
BRANCH   4  16
ATOM     16  C   UNL     1       2.858   5.157  21.090  0.00  0.00    +0.000 C 
BRANCH  16  17
ATOM     17  O   UNL     1       2.189   4.015  21.625  0.00  0.00    +0.000 OA
ATOM     18  H   UNL     1       1.473   3.789  21.003  0.00  0.00    +0.000 HD
ENDBRANCH  16  17
ENDBRANCH   4  16
BRANCH   4  19
ATOM     19  C   UNL     1       1.573   7.015  19.909  0.00  0.00    +0.000 C 
BRANCH  19  20
ATOM     20  O   UNL     1       1.156   7.283  21.257  0.00  0.00    +0.000 OA
BRANCH  20  21
ATOM     21  C   UNL     1       0.254   8.287  21.440  0.00  0.00    +0.000 C 
ATOM     22  O   UNL     1      -0.758   8.209  22.119  0.00  0.00    +0.000 OA
BRANCH  21  23
ATOM     23  C   UNL     1       0.681   9.487  20.628  0.00  0.00    +0.000 C 
BRANCH  23  24
ATOM     24  C   UNL     1      -0.457  10.341  20.016  0.00  0.00    +0.000 C 
BRANCH  24  25
ATOM     25  C   UNL     1      -0.643  11.724  20.753  0.00  0.00    +0.000 C 
ATOM     26  C   UNL     1       0.554  12.665  20.538  0.00  0.00    +0.000 C 
ATOM     27  C   UNL     1      -1.904  12.496  20.338  0.00  0.00    +0.000 C 
ENDBRANCH  24  25
BRANCH  24  28
ATOM     28  C   UNL     1      -0.221  10.528  18.469  0.00  0.00    +0.000 C 
ATOM     29  C   UNL     1       1.085   9.896  17.970  0.00  0.00    +0.000 C 
ATOM     30  C   UNL     1      -1.390  10.023  17.609  0.00  0.00    +0.000 C 
ENDBRANCH  24  28
ENDBRANCH  23  24
ENDBRANCH  21  23
ENDBRANCH  20  21
ENDBRANCH  19  20
ENDBRANCH   4  19
TORSDOF 11
ENDMDL
MODEL 9
REMARK VINA RESULT:      -6.7      3.109      6.359
REMARK  Name = 
REMARK  16 active torsions:
REMARK  status: ('A' for Active; 'I' for Inactive)
REMARK    1  A    between atoms: C_1  and  O_2
REMARK    2  A    between atoms: O_2  and  C_3
REMARK    3  A    between atoms: C_8  and  C_9
REMARK    4  A    between atoms: C_12  and  C_13
REMARK    5  A    between atoms: C_12  and  C_15
REMARK    6  A    between atoms: C_13  and  O_14
REMARK    7  A    between atoms: C_15  and  O_16
REMARK    8  A    between atoms: O_16  and  C_17
REMARK    9  A    between atoms: C_17  and  C_19
REMARK   10  A    between atoms: C_19  and  C_20
REMARK   11  A    between atoms: C_20  and  C_21
REMARK   12  A    between atoms: C_20  and  C_24
REMARK   13  A    between atoms: C_21  and  C_22
REMARK   14  A    between atoms: C_21  and  C_23
REMARK   15  A    between atoms: C_24  and  C_25
REMARK   16  A    between atoms: C_24  and  C_26
REMARK                            x       y       z     vdW  Elec       q    Type
REMARK                         _______ _______ _______ _____ _____    ______ ____
ROOT
ATOM      1  C   UNL     1      -0.814  12.115  19.171  0.00  0.00    +0.000 C 
ATOM      2  C   UNL     1      -0.095  11.342  19.997  0.00  0.00    +0.000 C 
ATOM      3  C   UNL     1      -0.256   9.910  20.336  0.00  0.00    +0.000 C 
ATOM      4  C   UNL     1       0.597   9.762  21.593  0.00  0.00    +0.000 C 
ATOM      5  O   UNL     1       1.485  10.905  21.597  0.00  0.00    +0.000 OA
ATOM      6  C   UNL     1       1.055  11.880  20.749  0.00  0.00    +0.000 C 
ATOM      7  O   UNL     1       1.545  12.987  20.644  0.00  0.00    +0.000 OA
ENDROOT
BRANCH   1  13
ATOM      8  C   UNL     1      -3.334  11.789  18.900  0.00  0.00    +0.000 A 
ATOM      9  C   UNL     1      -4.373  11.226  18.141  0.00  0.00    +0.000 A 
ATOM     10  C   UNL     1      -4.114  10.534  16.958  0.00  0.00    +0.000 A 
ATOM     11  C   UNL     1      -2.805  10.390  16.518  0.00  0.00    +0.000 A 
ATOM     12  C   UNL     1      -1.762  10.949  17.259  0.00  0.00    +0.000 A 
ATOM     13  C   UNL     1      -2.009  11.650  18.457  0.00  0.00    +0.000 A 
BRANCH   8  15
ATOM     14  C   UNL     1      -3.142  13.517  20.540  0.00  0.00    +0.000 C 
ATOM     15  O   UNL     1      -3.776  12.335  20.076  0.00  0.00    +0.000 OA
ENDBRANCH   8  15
ENDBRANCH   1  13
BRANCH   4  16
ATOM     16  C   UNL     1      -0.244   9.797  22.882  0.00  0.00    +0.000 C 
BRANCH  16  17
ATOM     17  O   UNL     1      -1.084   8.648  22.993  0.00  0.00    +0.000 OA
ATOM     18  H   UNL     1      -1.744   8.709  22.278  0.00  0.00    +0.000 HD
ENDBRANCH  16  17
ENDBRANCH   4  16
BRANCH   4  19
ATOM     19  C   UNL     1       1.454   8.487  21.501  0.00  0.00    +0.000 C 
BRANCH  19  20
ATOM     20  O   UNL     1       1.141   7.712  20.333  0.00  0.00    +0.000 OA
BRANCH  20  21
ATOM     21  C   UNL     1       2.154   7.480  19.452  0.00  0.00    +0.000 C 
ATOM     22  O   UNL     1       2.501   8.242  18.563  0.00  0.00    +0.000 OA
BRANCH  21  23
ATOM     23  C   UNL     1       2.738   6.114  19.721  0.00  0.00    +0.000 C 
BRANCH  23  24
ATOM     24  C   UNL     1       2.370   5.000  18.711  0.00  0.00    +0.000 C 
BRANCH  24  25
ATOM     25  C   UNL     1       3.631   4.197  18.205  0.00  0.00    +0.000 C 
ATOM     26  C   UNL     1       4.244   4.812  16.936  0.00  0.00    +0.000 C 
ATOM     27  C   UNL     1       4.760   4.077  19.239  0.00  0.00    +0.000 C 
ENDBRANCH  24  25
BRANCH  24  28
ATOM     28  C   UNL     1       1.278   4.047  19.330  0.00  0.00    +0.000 C 
ATOM     29  C   UNL     1       1.260   2.649  18.699  0.00  0.00    +0.000 C 
ATOM     30  C   UNL     1       1.381   3.915  20.858  0.00  0.00    +0.000 C 
ENDBRANCH  24  28
ENDBRANCH  23  24
ENDBRANCH  21  23
ENDBRANCH  20  21
ENDBRANCH  19  20
ENDBRANCH   4  19
TORSDOF 11
ENDMDL
