MODEL 1
REMARK VINA RESULT:      -8.4      0.000      0.000
REMARK  Name = 
REMARK  7 active torsions:
REMARK  status: ('A' for Active; 'I' for Inactive)
REMARK    1  A    between atoms: C_1  and  O_2
REMARK    2  A    between atoms: O_2  and  C_3
REMARK    3  A    between atoms: C_9  and  C_10
REMARK    4  A    between atoms: N_14  and  CA_15
REMARK    5  A    between atoms: CA_15  and  C_16
REMARK    6  A    between atoms: CA_15  and  C_18
REMARK    7  A    between atoms: C_16  and  O_17
REMARK                            x       y       z     vdW  Elec       q    Type
REMARK                         _______ _______ _______ _____ _____    ______ ____
ROOT
ATOM      1  C   UNL     1       2.282   7.746  18.867  0.00  0.00    +0.000 A 
ATOM      2  C   UNL     1       3.036   7.228  17.821  0.00  0.00    +0.000 A 
ATOM      3  C   UNL     1       3.470   5.920  18.169  0.00  0.00    +0.000 A 
ATOM      4  C   UNL     1       4.302   4.936  17.606  0.00  0.00    +0.000 A 
ATOM      5  N   UNL     1       4.946   5.102  16.383  0.00  0.00    +0.000 N 
ATOM      6  N   UNL     1       4.473   3.790  18.310  0.00  0.00    +0.000 NA
ATOM      7  C   UNL     1       3.835   3.639  19.489  0.00  0.00    +0.000 A 
ATOM      8  N   UNL     1       3.039   4.517  20.119  0.00  0.00    +0.000 NA
ATOM      9  C   UNL     1       2.905   5.645  19.404  0.00  0.00    +0.000 A 
ATOM     10  N   UNL     1       2.191   6.738  19.805  0.00  0.00    +0.000 N 
ATOM     11  H   UNL     1       4.890   6.019  15.964  0.00  0.00    +0.000 HD
ATOM     12  H   UNL     1       1.727   6.818  20.697  0.00  0.00    +0.000 HD
ENDROOT
BRANCH   1  19
ATOM     13  C   UNL     1       0.883   9.427  20.148  0.00  0.00    +0.000 A 
ATOM     14  C   UNL     1       0.466  10.754  20.312  0.00  0.00    +0.000 A 
ATOM     15  C   UNL     1       0.838  11.721  19.384  0.00  0.00    +0.000 A 
ATOM     16  F   UNL     1       0.458  12.991  19.570  0.00  0.00    +0.000 F 
ATOM     17  C   UNL     1       1.605  11.397  18.277  0.00  0.00    +0.000 A 
ATOM     18  C   UNL     1       2.034  10.082  18.107  0.00  0.00    +0.000 A 
ATOM     19  C   UNL     1       1.704   9.085  19.045  0.00  0.00    +0.000 A 
BRANCH  13  21
ATOM     20  C   UNL     1      -0.327   8.738  22.089  0.00  0.00    +0.000 C 
ATOM     21  O   UNL     1       0.585   8.426  21.041  0.00  0.00    +0.000 OA
ENDBRANCH  13  21
ENDBRANCH   1  19
BRANCH   5  22
ATOM     22  CA  UNL     1       6.204   4.378  16.180  0.00  0.00    +0.000 C 
BRANCH  22  23
ATOM     23  C   UNL     1       6.491   4.269  14.686  0.00  0.00    +0.000 A 
ATOM     24  C   UNL     1       7.511   5.077  14.148  0.00  0.00    +0.000 A 
ATOM     25  C   UNL     1       7.747   5.122  12.773  0.00  0.00    +0.000 A 
ATOM     26  C   UNL     1       6.984   4.340  11.912  0.00  0.00    +0.000 A 
ATOM     27  C   UNL     1       6.008   3.493  12.429  0.00  0.00    +0.000 A 
ATOM     28  C   UNL     1       5.767   3.451  13.807  0.00  0.00    +0.000 A 
ENDBRANCH  22  23
BRANCH  22  29
ATOM     29  C   UNL     1       7.347   4.978  17.044  0.00  0.00    +0.000 C 
BRANCH  29  30
ATOM     30  O   UNL     1       7.614   4.246  18.245  0.00  0.00    +0.000 OA
ATOM     31  H   UNL     1       7.604   4.894  18.968  0.00  0.00    +0.000 HD
ENDBRANCH  29  30
ENDBRANCH  22  29
ENDBRANCH   5  22
TORSDOF 6
ENDMDL
MODEL 2
REMARK VINA RESULT:      -8.4      3.543      9.080
REMARK  Name = 
REMARK  7 active torsions:
REMARK  status: ('A' for Active; 'I' for Inactive)
REMARK    1  A    between atoms: C_1  and  O_2
REMARK    2  A    between atoms: O_2  and  C_3
REMARK    3  A    between atoms: C_9  and  C_10
REMARK    4  A    between atoms: N_14  and  CA_15
REMARK    5  A    between atoms: CA_15  and  C_16
REMARK    6  A    between atoms: CA_15  and  C_18
REMARK    7  A    between atoms: C_16  and  O_17
REMARK                            x       y       z     vdW  Elec       q    Type
REMARK                         _______ _______ _______ _____ _____    ______ ____
ROOT
ATOM      1  C   UNL     1       2.862   7.120  18.421  0.00  0.00    +0.000 A 
ATOM      2  C   UNL     1       2.156   8.239  17.999  0.00  0.00    +0.000 A 
ATOM      3  C   UNL     1       1.421   8.762  19.098  0.00  0.00    +0.000 A 
ATOM      4  C   UNL     1       0.482   9.788  19.302  0.00  0.00    +0.000 A 
ATOM      5  N   UNL     1       0.046  10.627  18.281  0.00  0.00    +0.000 N 
ATOM      6  N   UNL     1      -0.010   9.939  20.557  0.00  0.00    +0.000 NA
ATOM      7  C   UNL     1       0.428   9.124  21.539  0.00  0.00    +0.000 A 
ATOM      8  N   UNL     1       1.302   8.110  21.446  0.00  0.00    +0.000 NA
ATOM      9  C   UNL     1       1.755   7.978  20.190  0.00  0.00    +0.000 A 
ATOM     10  N   UNL     1       2.623   7.009  19.775  0.00  0.00    +0.000 N 
ATOM     11  H   UNL     1       0.343  10.391  17.345  0.00  0.00    +0.000 HD
ATOM     12  H   UNL     1       2.977   6.272  20.367  0.00  0.00    +0.000 HD
ENDROOT
BRANCH   1  19
ATOM     13  C   UNL     1       3.513   4.764  17.748  0.00  0.00    +0.000 A 
ATOM     14  C   UNL     1       4.244   3.925  16.899  0.00  0.00    +0.000 A 
ATOM     15  C   UNL     1       5.140   4.469  15.984  0.00  0.00    +0.000 A 
ATOM     16  F   UNL     1       5.810   3.656  15.157  0.00  0.00    +0.000 F 
ATOM     17  C   UNL     1       5.345   5.837  15.905  0.00  0.00    +0.000 A 
ATOM     18  C   UNL     1       4.616   6.683  16.739  0.00  0.00    +0.000 A 
ATOM     19  C   UNL     1       3.676   6.168  17.652  0.00  0.00    +0.000 A 
BRANCH  13  21
ATOM     20  C   UNL     1       1.553   3.458  18.151  0.00  0.00    +0.000 C 
ATOM     21  O   UNL     1       2.585   4.301  18.651  0.00  0.00    +0.000 OA
ENDBRANCH  13  21
ENDBRANCH   1  19
BRANCH   5  22
ATOM     22  CA  UNL     1      -1.298  11.198  18.405  0.00  0.00    +0.000 C 
BRANCH  22  23
ATOM     23  C   UNL     1      -1.197  12.624  18.937  0.00  0.00    +0.000 A 
ATOM     24  C   UNL     1      -0.320  13.512  18.287  0.00  0.00    +0.000 A 
ATOM     25  C   UNL     1      -0.083  14.792  18.791  0.00  0.00    +0.000 A 
ATOM     26  C   UNL     1      -0.739  15.217  19.941  0.00  0.00    +0.000 A 
ATOM     27  C   UNL     1      -1.652  14.374  20.569  0.00  0.00    +0.000 A 
ATOM     28  C   UNL     1      -1.886  13.089  20.067  0.00  0.00    +0.000 A 
ENDBRANCH  22  23
BRANCH  22  29
ATOM     29  C   UNL     1      -2.108  11.025  17.091  0.00  0.00    +0.000 C 
BRANCH  29  30
ATOM     30  O   UNL     1      -3.269  11.858  17.010  0.00  0.00    +0.000 OA
ATOM     31  H   UNL     1      -3.695  11.652  16.162  0.00  0.00    +0.000 HD
ENDBRANCH  29  30
ENDBRANCH  22  29
ENDBRANCH   5  22
TORSDOF 6
ENDMDL
MODEL 3
REMARK VINA RESULT:      -8.1      3.489      9.063
REMARK  Name = 
REMARK  7 active torsions:
REMARK  status: ('A' for Active; 'I' for Inactive)
REMARK    1  A    between atoms: C_1  and  O_2
REMARK    2  A    between atoms: O_2  and  C_3
REMARK    3  A    between atoms: C_9  and  C_10
REMARK    4  A    between atoms: N_14  and  CA_15
REMARK    5  A    between atoms: CA_15  and  C_16
REMARK    6  A    between atoms: CA_15  and  C_18
REMARK    7  A    between atoms: C_16  and  O_17
REMARK                            x       y       z     vdW  Elec       q    Type
REMARK                         _______ _______ _______ _____ _____    ______ ____
ROOT
ATOM      1  C   UNL     1       2.840   7.213  18.519  0.00  0.00    +0.000 A 
ATOM      2  C   UNL     1       2.191   8.382  18.142  0.00  0.00    +0.000 A 
ATOM      3  C   UNL     1       1.459   8.882  19.253  0.00  0.00    +0.000 A 
ATOM      4  C   UNL     1       0.563   9.938  19.493  0.00  0.00    +0.000 A 
ATOM      5  N   UNL     1       0.181  10.845  18.508  0.00  0.00    +0.000 N 
ATOM      6  N   UNL     1       0.055  10.049  20.746  0.00  0.00    +0.000 NA
ATOM      7  C   UNL     1       0.440   9.169  21.693  0.00  0.00    +0.000 A 
ATOM      8  N   UNL     1       1.270   8.123  21.564  0.00  0.00    +0.000 NA
ATOM      9  C   UNL     1       1.740   8.032  20.311  0.00  0.00    +0.000 A 
ATOM     10  N   UNL     1       2.572   7.047  19.862  0.00  0.00    +0.000 N 
ATOM     11  H   UNL     1       0.484  10.641  17.566  0.00  0.00    +0.000 HD
ATOM     12  H   UNL     1       2.883   6.267  20.422  0.00  0.00    +0.000 HD
ENDROOT
BRANCH   1  19
ATOM     13  C   UNL     1       3.450   4.861  17.796  0.00  0.00    +0.000 A 
ATOM     14  C   UNL     1       4.152   4.028  16.917  0.00  0.00    +0.000 A 
ATOM     15  C   UNL     1       5.032   4.576  15.990  0.00  0.00    +0.000 A 
ATOM     16  F   UNL     1       5.673   3.770  15.135  0.00  0.00    +0.000 F 
ATOM     17  C   UNL     1       5.249   5.943  15.926  0.00  0.00    +0.000 A 
ATOM     18  C   UNL     1       4.549   6.784  16.790  0.00  0.00    +0.000 A 
ATOM     19  C   UNL     1       3.626   6.265  17.717  0.00  0.00    +0.000 A 
BRANCH  13  21
ATOM     20  C   UNL     1       1.393   3.718  18.209  0.00  0.00    +0.000 C 
ATOM     21  O   UNL     1       2.539   4.394  18.714  0.00  0.00    +0.000 OA
ENDBRANCH  13  21
ENDBRANCH   1  19
BRANCH   5  22
ATOM     22  CA  UNL     1      -1.138  11.467  18.638  0.00  0.00    +0.000 C 
BRANCH  22  23
ATOM     23  C   UNL     1      -0.975  12.912  19.097  0.00  0.00    +0.000 A 
ATOM     24  C   UNL     1      -1.741  13.348  20.196  0.00  0.00    +0.000 A 
ATOM     25  C   UNL     1      -1.737  14.685  20.594  0.00  0.00    +0.000 A 
ATOM     26  C   UNL     1      -0.948  15.609  19.917  0.00  0.00    +0.000 A 
ATOM     27  C   UNL     1      -0.142  15.189  18.862  0.00  0.00    +0.000 A 
ATOM     28  C   UNL     1      -0.149  13.849  18.460  0.00  0.00    +0.000 A 
ENDBRANCH  22  23
BRANCH  22  29
ATOM     29  C   UNL     1      -1.991  11.259  17.356  0.00  0.00    +0.000 C 
BRANCH  29  30
ATOM     30  O   UNL     1      -1.615  10.111  16.588  0.00  0.00    +0.000 OA
ATOM     31  H   UNL     1      -2.324   9.973  15.938  0.00  0.00    +0.000 HD
ENDBRANCH  29  30
ENDBRANCH  22  29
ENDBRANCH   5  22
TORSDOF 6
ENDMDL
MODEL 4
REMARK VINA RESULT:      -8.1      1.210      2.201
REMARK  Name = 
REMARK  7 active torsions:
REMARK  status: ('A' for Active; 'I' for Inactive)
REMARK    1  A    between atoms: C_1  and  O_2
REMARK    2  A    between atoms: O_2  and  C_3
REMARK    3  A    between atoms: C_9  and  C_10
REMARK    4  A    between atoms: N_14  and  CA_15
REMARK    5  A    between atoms: CA_15  and  C_16
REMARK    6  A    between atoms: CA_15  and  C_18
REMARK    7  A    between atoms: C_16  and  O_17
REMARK                            x       y       z     vdW  Elec       q    Type
REMARK                         _______ _______ _______ _____ _____    ______ ____
ROOT
ATOM      1  C   UNL     1       2.027   7.006  20.113  0.00  0.00    +0.000 A 
ATOM      2  C   UNL     1       2.839   6.782  19.009  0.00  0.00    +0.000 A 
ATOM      3  C   UNL     1       3.238   5.417  18.999  0.00  0.00    +0.000 A 
ATOM      4  C   UNL     1       4.094   4.609  18.230  0.00  0.00    +0.000 A 
ATOM      5  N   UNL     1       4.814   5.093  17.142  0.00  0.00    +0.000 N 
ATOM      6  N   UNL     1       4.211   3.308  18.592  0.00  0.00    +0.000 NA
ATOM      7  C   UNL     1       3.499   2.850  19.643  0.00  0.00    +0.000 A 
ATOM      8  N   UNL     1       2.674   3.537  20.448  0.00  0.00    +0.000 NA
ATOM      9  C   UNL     1       2.596   4.823  20.073  0.00  0.00    +0.000 A 
ATOM     10  N   UNL     1       1.869   5.779  20.723  0.00  0.00    +0.000 N 
ATOM     11  H   UNL     1       4.794   6.092  16.995  0.00  0.00    +0.000 HD
ATOM     12  H   UNL     1       1.351   5.618  21.574  0.00  0.00    +0.000 HD
ENDROOT
BRANCH   1  19
ATOM     13  C   UNL     1       1.077   9.333  19.786  0.00  0.00    +0.000 A 
ATOM     14  C   UNL     1       0.429  10.445  20.337  0.00  0.00    +0.000 A 
ATOM     15  C   UNL     1       0.179  10.500  21.705  0.00  0.00    +0.000 A 
ATOM     16  F   UNL     1      -0.469  11.555  22.213  0.00  0.00    +0.000 F 
ATOM     17  C   UNL     1       0.578   9.477  22.549  0.00  0.00    +0.000 A 
ATOM     18  C   UNL     1       1.216   8.360  22.011  0.00  0.00    +0.000 A 
ATOM     19  C   UNL     1       1.453   8.257  20.628  0.00  0.00    +0.000 A 
BRANCH  13  21
ATOM     20  C   UNL     1       2.083  10.219  17.809  0.00  0.00    +0.000 C 
ATOM     21  O   UNL     1       1.325   9.194  18.442  0.00  0.00    +0.000 OA
ENDBRANCH  13  21
ENDBRANCH   1  19
BRANCH   5  22
ATOM     22  CA  UNL     1       6.075   4.422  16.816  0.00  0.00    +0.000 C 
BRANCH  22  23
ATOM     23  C   UNL     1       6.285   4.443  15.305  0.00  0.00    +0.000 A 
ATOM     24  C   UNL     1       5.392   3.706  14.503  0.00  0.00    +0.000 A 
ATOM     25  C   UNL     1       5.594   3.577  13.128  0.00  0.00    +0.000 A 
ATOM     26  C   UNL     1       6.679   4.203  12.524  0.00  0.00    +0.000 A 
ATOM     27  C   UNL     1       7.543   4.981  13.290  0.00  0.00    +0.000 A 
ATOM     28  C   UNL     1       7.344   5.107  14.669  0.00  0.00    +0.000 A 
ENDBRANCH  22  23
BRANCH  22  29
ATOM     29  C   UNL     1       7.249   4.979  17.667  0.00  0.00    +0.000 C 
BRANCH  29  30
ATOM     30  O   UNL     1       8.352   4.076  17.798  0.00  0.00    +0.000 OA
ATOM     31  H   UNL     1       9.023   4.369  17.159  0.00  0.00    +0.000 HD
ENDBRANCH  29  30
ENDBRANCH  22  29
ENDBRANCH   5  22
TORSDOF 6
ENDMDL
MODEL 5
REMARK VINA RESULT:      -8.0      1.031      1.363
REMARK  Name = 
REMARK  7 active torsions:
REMARK  status: ('A' for Active; 'I' for Inactive)
REMARK    1  A    between atoms: C_1  and  O_2
REMARK    2  A    between atoms: O_2  and  C_3
REMARK    3  A    between atoms: C_9  and  C_10
REMARK    4  A    between atoms: N_14  and  CA_15
REMARK    5  A    between atoms: CA_15  and  C_16
REMARK    6  A    between atoms: CA_15  and  C_18
REMARK    7  A    between atoms: C_16  and  O_17
REMARK                            x       y       z     vdW  Elec       q    Type
REMARK                         _______ _______ _______ _____ _____    ______ ____
ROOT
ATOM      1  C   UNL     1       1.946   8.056  19.193  0.00  0.00    +0.000 A 
ATOM      2  C   UNL     1       2.758   7.674  18.133  0.00  0.00    +0.000 A 
ATOM      3  C   UNL     1       3.315   6.397  18.416  0.00  0.00    +0.000 A 
ATOM      4  C   UNL     1       4.246   5.533  17.812  0.00  0.00    +0.000 A 
ATOM      5  N   UNL     1       4.883   5.829  16.611  0.00  0.00    +0.000 N 
ATOM      6  N   UNL     1       4.522   4.371  18.455  0.00  0.00    +0.000 NA
ATOM      7  C   UNL     1       3.890   4.093  19.614  0.00  0.00    +0.000 A 
ATOM      8  N   UNL     1       3.005   4.852  20.278  0.00  0.00    +0.000 NA
ATOM      9  C   UNL     1       2.768   6.000  19.625  0.00  0.00    +0.000 A 
ATOM     10  N   UNL     1       1.946   6.993  20.073  0.00  0.00    +0.000 N 
ATOM     11  H   UNL     1       4.742   6.759  16.242  0.00  0.00    +0.000 HD
ATOM     12  H   UNL     1       1.467   6.977  20.961  0.00  0.00    +0.000 HD
ENDROOT
BRANCH   1  19
ATOM     13  C   UNL     1       0.901   9.775  20.735  0.00  0.00    +0.000 A 
ATOM     14  C   UNL     1       0.331  11.044  20.895  0.00  0.00    +0.000 A 
ATOM     15  C   UNL     1       0.078  11.840  19.782  0.00  0.00    +0.000 A 
ATOM     16  F   UNL     1      -0.438  13.063  19.953  0.00  0.00    +0.000 F 
ATOM     17  C   UNL     1       0.362  11.395  18.501  0.00  0.00    +0.000 A 
ATOM     18  C   UNL     1       0.938  10.137  18.330  0.00  0.00    +0.000 A 
ATOM     19  C   UNL     1       1.238   9.321  19.436  0.00  0.00    +0.000 A 
BRANCH  13  21
ATOM     20  C   UNL     1       0.636   9.260  23.053  0.00  0.00    +0.000 C 
ATOM     21  O   UNL     1       1.211   8.949  21.789  0.00  0.00    +0.000 OA
ENDBRANCH  13  21
ENDBRANCH   1  19
BRANCH   5  22
ATOM     22  CA  UNL     1       6.208   5.245  16.388  0.00  0.00    +0.000 C 
BRANCH  22  23
ATOM     23  C   UNL     1       6.366   4.893  14.913  0.00  0.00    +0.000 A 
ATOM     24  C   UNL     1       5.410   4.040  14.329  0.00  0.00    +0.000 A 
ATOM     25  C   UNL     1       5.557   3.577  13.021  0.00  0.00    +0.000 A 
ATOM     26  C   UNL     1       6.651   3.977  12.262  0.00  0.00    +0.000 A 
ATOM     27  C   UNL     1       7.581   4.862  12.801  0.00  0.00    +0.000 A 
ATOM     28  C   UNL     1       7.436   5.324  14.114  0.00  0.00    +0.000 A 
ENDBRANCH  22  23
BRANCH  22  29
ATOM     29  C   UNL     1       7.328   6.135  16.993  0.00  0.00    +0.000 C 
BRANCH  29  30
ATOM     30  O   UNL     1       7.095   7.540  16.847  0.00  0.00    +0.000 OA
ATOM     31  H   UNL     1       7.023   7.900  17.747  0.00  0.00    +0.000 HD
ENDBRANCH  29  30
ENDBRANCH  22  29
ENDBRANCH   5  22
TORSDOF 6
ENDMDL
MODEL 6
REMARK VINA RESULT:      -7.8      1.380      2.142
REMARK  Name = 
REMARK  7 active torsions:
REMARK  status: ('A' for Active; 'I' for Inactive)
REMARK    1  A    between atoms: C_1  and  O_2
REMARK    2  A    between atoms: O_2  and  C_3
REMARK    3  A    between atoms: C_9  and  C_10
REMARK    4  A    between atoms: N_14  and  CA_15
REMARK    5  A    between atoms: CA_15  and  C_16
REMARK    6  A    between atoms: CA_15  and  C_18
REMARK    7  A    between atoms: C_16  and  O_17
REMARK                            x       y       z     vdW  Elec       q    Type
REMARK                         _______ _______ _______ _____ _____    ______ ____
ROOT
ATOM      1  C   UNL     1       1.993   7.247  20.084  0.00  0.00    +0.000 A 
ATOM      2  C   UNL     1       2.845   7.144  18.991  0.00  0.00    +0.000 A 
ATOM      3  C   UNL     1       3.409   5.840  18.968  0.00  0.00    +0.000 A 
ATOM      4  C   UNL     1       4.370   5.157  18.202  0.00  0.00    +0.000 A 
ATOM      5  N   UNL     1       5.044   5.745  17.136  0.00  0.00    +0.000 N 
ATOM      6  N   UNL     1       4.640   3.873  18.545  0.00  0.00    +0.000 NA
ATOM      7  C   UNL     1       3.972   3.312  19.575  0.00  0.00    +0.000 A 
ATOM      8  N   UNL     1       3.056   3.878  20.375  0.00  0.00    +0.000 NA
ATOM      9  C   UNL     1       2.826   5.151  20.019  0.00  0.00    +0.000 A 
ATOM     10  N   UNL     1       1.976   5.999  20.671  0.00  0.00    +0.000 N 
ATOM     11  H   UNL     1       4.903   6.737  17.005  0.00  0.00    +0.000 HD
ATOM     12  H   UNL     1       1.468   5.760  21.509  0.00  0.00    +0.000 HD
ENDROOT
BRANCH   1  19
ATOM     13  C   UNL     1       0.825   9.477  19.785  0.00  0.00    +0.000 A 
ATOM     14  C   UNL     1       0.031  10.491  20.335  0.00  0.00    +0.000 A 
ATOM     15  C   UNL     1      -0.304  10.459  21.684  0.00  0.00    +0.000 A 
ATOM     16  F   UNL     1      -1.089  11.419  22.190  0.00  0.00    +0.000 F 
ATOM     17  C   UNL     1       0.148   9.445  22.513  0.00  0.00    +0.000 A 
ATOM     18  C   UNL     1       0.931   8.425  21.976  0.00  0.00    +0.000 A 
ATOM     19  C   UNL     1       1.260   8.409  20.608  0.00  0.00    +0.000 A 
BRANCH  13  21
ATOM     20  C   UNL     1       1.965  10.486  17.944  0.00  0.00    +0.000 C 
ATOM     21  O   UNL     1       1.167   9.424  18.455  0.00  0.00    +0.000 OA
ENDBRANCH  13  21
ENDBRANCH   1  19
BRANCH   5  22
ATOM     22  CA  UNL     1       6.383   5.240  16.823  0.00  0.00    +0.000 C 
BRANCH  22  23
ATOM     23  C   UNL     1       6.418   4.757  15.376  0.00  0.00    +0.000 A 
ATOM     24  C   UNL     1       7.477   5.195  14.558  0.00  0.00    +0.000 A 
ATOM     25  C   UNL     1       7.509   4.896  13.196  0.00  0.00    +0.000 A 
ATOM     26  C   UNL     1       6.495   4.132  12.629  0.00  0.00    +0.000 A 
ATOM     27  C   UNL     1       5.467   3.643  13.430  0.00  0.00    +0.000 A 
ATOM     28  C   UNL     1       5.432   3.947  14.796  0.00  0.00    +0.000 A 
ENDBRANCH  22  23
BRANCH  22  29
ATOM     29  C   UNL     1       7.481   6.265  17.218  0.00  0.00    +0.000 C 
BRANCH  29  30
ATOM     30  O   UNL     1       7.108   7.630  16.999  0.00  0.00    +0.000 OA
ATOM     31  H   UNL     1       7.935   8.139  16.973  0.00  0.00    +0.000 HD
ENDBRANCH  29  30
ENDBRANCH  22  29
ENDBRANCH   5  22
TORSDOF 6
ENDMDL
MODEL 7
REMARK VINA RESULT:      -7.7      1.673      2.055
REMARK  Name = 
REMARK  7 active torsions:
REMARK  status: ('A' for Active; 'I' for Inactive)
REMARK    1  A    between atoms: C_1  and  O_2
REMARK    2  A    between atoms: O_2  and  C_3
REMARK    3  A    between atoms: C_9  and  C_10
REMARK    4  A    between atoms: N_14  and  CA_15
REMARK    5  A    between atoms: CA_15  and  C_16
REMARK    6  A    between atoms: CA_15  and  C_18
REMARK    7  A    between atoms: C_16  and  O_17
REMARK                            x       y       z     vdW  Elec       q    Type
REMARK                         _______ _______ _______ _____ _____    ______ ____
ROOT
ATOM      1  C   UNL     1       1.760   9.387  18.518  0.00  0.00    +0.000 A 
ATOM      2  C   UNL     1       2.613   8.723  17.646  0.00  0.00    +0.000 A 
ATOM      3  C   UNL     1       2.933   7.450  18.193  0.00  0.00    +0.000 A 
ATOM      4  C   UNL     1       3.779   6.378  17.858  0.00  0.00    +0.000 A 
ATOM      5  N   UNL     1       4.581   6.376  16.721  0.00  0.00    +0.000 N 
ATOM      6  N   UNL     1       3.801   5.318  18.703  0.00  0.00    +0.000 NA
ATOM      7  C   UNL     1       3.012   5.329  19.797  0.00  0.00    +0.000 A 
ATOM      8  N   UNL     1       2.187   6.303  20.213  0.00  0.00    +0.000 NA
ATOM      9  C   UNL     1       2.203   7.343  19.366  0.00  0.00    +0.000 A 
ATOM     10  N   UNL     1       1.500   8.500  19.543  0.00  0.00    +0.000 N 
ATOM     11  H   UNL     1       4.626   7.239  16.198  0.00  0.00    +0.000 HD
ATOM     12  H   UNL     1       0.930   8.701  20.351  0.00  0.00    +0.000 HD
ENDROOT
BRANCH   1  19
ATOM     13  C   UNL     1      -0.146  11.056  18.594  0.00  0.00    +0.000 A 
ATOM     14  C   UNL     1      -0.560  12.392  18.654  0.00  0.00    +0.000 A 
ATOM     15  C   UNL     1       0.377  13.417  18.565  0.00  0.00    +0.000 A 
ATOM     16  F   UNL     1      -0.030  14.689  18.655  0.00  0.00    +0.000 F 
ATOM     17  C   UNL     1       1.725  13.145  18.399  0.00  0.00    +0.000 A 
ATOM     18  C   UNL     1       2.150  11.818  18.348  0.00  0.00    +0.000 A 
ATOM     19  C   UNL     1       1.233  10.758  18.468  0.00  0.00    +0.000 A 
BRANCH  13  21
ATOM     20  C   UNL     1      -2.152   9.985  17.860  0.00  0.00    +0.000 C 
ATOM     21  O   UNL     1      -1.010   9.993  18.709  0.00  0.00    +0.000 OA
ENDBRANCH  13  21
ENDBRANCH   1  19
BRANCH   5  22
ATOM     22  CA  UNL     1       5.816   5.589  16.768  0.00  0.00    +0.000 C 
BRANCH  22  23
ATOM     23  C   UNL     1       6.072   4.962  15.401  0.00  0.00    +0.000 A 
ATOM     24  C   UNL     1       7.285   5.263  14.753  0.00  0.00    +0.000 A 
ATOM     25  C   UNL     1       7.535   4.827  13.451  0.00  0.00    +0.000 A 
ATOM     26  C   UNL     1       6.587   4.061  12.781  0.00  0.00    +0.000 A 
ATOM     27  C   UNL     1       5.404   3.708  13.424  0.00  0.00    +0.000 A 
ATOM     28  C   UNL     1       5.150   4.148  14.727  0.00  0.00    +0.000 A 
ENDBRANCH  22  23
BRANCH  22  29
ATOM     29  C   UNL     1       6.991   6.415  17.361  0.00  0.00    +0.000 C 
BRANCH  29  30
ATOM     30  O   UNL     1       6.955   7.804  17.019  0.00  0.00    +0.000 OA
ATOM     31  H   UNL     1       6.042   8.100  17.170  0.00  0.00    +0.000 HD
ENDBRANCH  29  30
ENDBRANCH  22  29
ENDBRANCH   5  22
TORSDOF 6
ENDMDL
MODEL 8
REMARK VINA RESULT:      -7.7      4.001      9.011
REMARK  Name = 
REMARK  7 active torsions:
REMARK  status: ('A' for Active; 'I' for Inactive)
REMARK    1  A    between atoms: C_1  and  O_2
REMARK    2  A    between atoms: O_2  and  C_3
REMARK    3  A    between atoms: C_9  and  C_10
REMARK    4  A    between atoms: N_14  and  CA_15
REMARK    5  A    between atoms: CA_15  and  C_16
REMARK    6  A    between atoms: CA_15  and  C_18
REMARK    7  A    between atoms: C_16  and  O_17
REMARK                            x       y       z     vdW  Elec       q    Type
REMARK                         _______ _______ _______ _____ _____    ______ ____
ROOT
ATOM      1  C   UNL     1       2.086   7.398  19.722  0.00  0.00    +0.000 A 
ATOM      2  C   UNL     1       1.873   8.695  19.273  0.00  0.00    +0.000 A 
ATOM      3  C   UNL     1       1.164   9.419  20.270  0.00  0.00    +0.000 A 
ATOM      4  C   UNL     1       0.592  10.697  20.390  0.00  0.00    +0.000 A 
ATOM      5  N   UNL     1       0.646  11.648  19.375  0.00  0.00    +0.000 N 
ATOM      6  N   UNL     1      -0.042  10.987  21.554  0.00  0.00    +0.000 NA
ATOM      7  C   UNL     1      -0.078  10.059  22.533  0.00  0.00    +0.000 A 
ATOM      8  N   UNL     1       0.417   8.813  22.512  0.00  0.00    +0.000 NA
ATOM      9  C   UNL     1       1.021   8.553  21.342  0.00  0.00    +0.000 A 
ATOM     10  N   UNL     1       1.583   7.355  21.007  0.00  0.00    +0.000 N 
ATOM     11  H   UNL     1       1.012  11.339  18.486  0.00  0.00    +0.000 HD
ATOM     12  H   UNL     1       1.565   6.534  21.594  0.00  0.00    +0.000 HD
ENDROOT
BRANCH   1  19
ATOM     13  C   UNL     1       2.249   4.908  19.276  0.00  0.00    +0.000 A 
ATOM     14  C   UNL     1       2.768   3.868  18.496  0.00  0.00    +0.000 A 
ATOM     15  C   UNL     1       3.704   4.140  17.504  0.00  0.00    +0.000 A 
ATOM     16  F   UNL     1       4.168   3.139  16.745  0.00  0.00    +0.000 F 
ATOM     17  C   UNL     1       4.157   5.430  17.279  0.00  0.00    +0.000 A 
ATOM     18  C   UNL     1       3.642   6.475  18.043  0.00  0.00    +0.000 A 
ATOM     19  C   UNL     1       2.668   6.239  19.031  0.00  0.00    +0.000 A 
BRANCH  13  21
ATOM     20  C   UNL     1       1.348   3.503  20.985  0.00  0.00    +0.000 C 
ATOM     21  O   UNL     1       1.297   4.720  20.249  0.00  0.00    +0.000 OA
ENDBRANCH  13  21
ENDBRANCH   1  19
BRANCH   5  22
ATOM     22  CA  UNL     1      -0.437  12.633  19.316  0.00  0.00    +0.000 C 
BRANCH  22  23
ATOM     23  C   UNL     1       0.146  14.010  19.013  0.00  0.00    +0.000 A 
ATOM     24  C   UNL     1       1.510  14.091  18.673  0.00  0.00    +0.000 A 
ATOM     25  C   UNL     1       2.140  15.324  18.504  0.00  0.00    +0.000 A 
ATOM     26  C   UNL     1       1.413  16.501  18.647  0.00  0.00    +0.000 A 
ATOM     27  C   UNL     1       0.051  16.442  18.929  0.00  0.00    +0.000 A 
ATOM     28  C   UNL     1      -0.580  15.206  19.103  0.00  0.00    +0.000 A 
ENDBRANCH  22  23
BRANCH  22  29
ATOM     29  C   UNL     1      -1.579  12.163  18.374  0.00  0.00    +0.000 C 
BRANCH  29  30
ATOM     30  O   UNL     1      -1.364  12.483  16.995  0.00  0.00    +0.000 OA
ATOM     31  H   UNL     1      -0.522  12.066  16.747  0.00  0.00    +0.000 HD
ENDBRANCH  29  30
ENDBRANCH  22  29
ENDBRANCH   5  22
TORSDOF 6
ENDMDL
MODEL 9
REMARK VINA RESULT:      -7.6      1.606      2.313
REMARK  Name = 
REMARK  7 active torsions:
REMARK  status: ('A' for Active; 'I' for Inactive)
REMARK    1  A    between atoms: C_1  and  O_2
REMARK    2  A    between atoms: O_2  and  C_3
REMARK    3  A    between atoms: C_9  and  C_10
REMARK    4  A    between atoms: N_14  and  CA_15
REMARK    5  A    between atoms: CA_15  and  C_16
REMARK    6  A    between atoms: CA_15  and  C_18
REMARK    7  A    between atoms: C_16  and  O_17
REMARK                            x       y       z     vdW  Elec       q    Type
REMARK                         _______ _______ _______ _____ _____    ______ ____
ROOT
ATOM      1  C   UNL     1       1.524   9.414  18.747  0.00  0.00    +0.000 A 
ATOM      2  C   UNL     1       2.315   8.634  17.913  0.00  0.00    +0.000 A 
ATOM      3  C   UNL     1       2.584   7.396  18.558  0.00  0.00    +0.000 A 
ATOM      4  C   UNL     1       3.362   6.255  18.293  0.00  0.00    +0.000 A 
ATOM      5  N   UNL     1       4.129   6.114  17.141  0.00  0.00    +0.000 N 
ATOM      6  N   UNL     1       3.355   5.269  19.224  0.00  0.00    +0.000 NA
ATOM      7  C   UNL     1       2.600   5.415  20.333  0.00  0.00    +0.000 A 
ATOM      8  N   UNL     1       1.840   6.463  20.686  0.00  0.00    +0.000 NA
ATOM      9  C   UNL     1       1.885   7.427  19.753  0.00  0.00    +0.000 A 
ATOM     10  N   UNL     1       1.249   8.631  19.849  0.00  0.00    +0.000 N 
ATOM     11  H   UNL     1       4.203   6.926  16.545  0.00  0.00    +0.000 HD
ATOM     12  H   UNL     1       0.715   8.929  20.652  0.00  0.00    +0.000 HD
ENDROOT
BRANCH   1  19
ATOM     13  C   UNL     1      -0.299  11.171  18.631  0.00  0.00    +0.000 A 
ATOM     14  C   UNL     1      -0.650  12.526  18.595  0.00  0.00    +0.000 A 
ATOM     15  C   UNL     1       0.339  13.499  18.499  0.00  0.00    +0.000 A 
ATOM     16  F   UNL     1      -0.008  14.792  18.497  0.00  0.00    +0.000 F 
ATOM     17  C   UNL     1       1.680  13.156  18.418  0.00  0.00    +0.000 A 
ATOM     18  C   UNL     1       2.041  11.811  18.462  0.00  0.00    +0.000 A 
ATOM     19  C   UNL     1       1.068  10.803  18.593  0.00  0.00    +0.000 A 
BRANCH  13  21
ATOM     20  C   UNL     1      -2.344  10.182  17.889  0.00  0.00    +0.000 C 
ATOM     21  O   UNL     1      -1.218  10.157  18.760  0.00  0.00    +0.000 OA
ENDBRANCH  13  21
ENDBRANCH   1  19
BRANCH   5  22
ATOM     22  CA  UNL     1       5.322   5.268  17.223  0.00  0.00    +0.000 C 
BRANCH  22  23
ATOM     23  C   UNL     1       5.826   4.962  15.817  0.00  0.00    +0.000 A 
ATOM     24  C   UNL     1       4.971   4.261  14.945  0.00  0.00    +0.000 A 
ATOM     25  C   UNL     1       5.408   3.838  13.689  0.00  0.00    +0.000 A 
ATOM     26  C   UNL     1       6.701   4.130  13.269  0.00  0.00    +0.000 A 
ATOM     27  C   UNL     1       7.545   4.869  14.094  0.00  0.00    +0.000 A 
ATOM     28  C   UNL     1       7.110   5.289  15.355  0.00  0.00    +0.000 A 
ENDBRANCH  22  23
BRANCH  22  29
ATOM     29  C   UNL     1       6.372   5.864  18.201  0.00  0.00    +0.000 C 
BRANCH  29  30
ATOM     30  O   UNL     1       6.514   5.129  19.420  0.00  0.00    +0.000 OA
ATOM     31  H   UNL     1       7.427   5.273  19.721  0.00  0.00    +0.000 HD
ENDBRANCH  29  30
ENDBRANCH  22  29
ENDBRANCH   5  22
TORSDOF 6
ENDMDL
