MODEL 1
REMARK VINA RESULT:      -8.4      0.000      0.000
REMARK  Name = 
REMARK  7 active torsions:
REMARK  status: ('A' for Active; 'I' for Inactive)
REMARK    1  A    between atoms: N_2  and  C_4
REMARK    2  A    between atoms: C_7  and  C_8
REMARK    3  A    between atoms: C_11  and  S_12
REMARK    4  A    between atoms: S_12  and  C_13
REMARK    5  A    between atoms: C_13  and  C_14
REMARK    6  A    between atoms: C_17  and  N_18
REMARK    7  A    between atoms: C_22  and  N_23
REMARK                            x       y       z     vdW  Elec       q    Type
REMARK                         _______ _______ _______ _____ _____    ______ ____
ROOT
ATOM      1  C   UNL     1       1.873   7.769  19.814  0.00  0.00    +0.000 A 
ATOM      2  N   UNL     1       2.469   7.954  18.653  0.00  0.00    +0.000 NA
ATOM      3  N   UNL     1       3.082   6.767  18.329  0.00  0.00    +0.000 NA
ATOM      4  C   UNL     1       2.816   5.924  19.304  0.00  0.00    +0.000 A 
ATOM      5  O   UNL     1       2.051   6.497  20.296  0.00  0.00    +0.000 OA
ENDROOT
BRANCH   1   9
ATOM      6  C   UNL     1      -0.304  10.751  21.982  0.00  0.00    +0.000 A 
ATOM      7  C   UNL     1      -0.238  10.785  20.587  0.00  0.00    +0.000 A 
ATOM      8  C   UNL     1       0.462   9.783  19.912  0.00  0.00    +0.000 A 
ATOM      9  C   UNL     1       1.106   8.736  20.598  0.00  0.00    +0.000 A 
ATOM     10  C   UNL     1       1.006   8.701  21.999  0.00  0.00    +0.000 A 
ATOM     11  C   UNL     1       0.308   9.706  22.690  0.00  0.00    +0.000 A 
BRANCH   6  13
ATOM     12  O   UNL     1      -1.959  11.517  23.421  0.00  0.00    +0.000 OA
ATOM     13  N   UNL     1      -1.003  11.828  22.697  0.00  0.00    +0.000 N 
ATOM     14  O   UNL     1      -0.595  12.986  22.528  0.00  0.00    +0.000 OA
ENDBRANCH   6  13
ENDBRANCH   1   9
BRANCH   4  15
ATOM     15  S   UNL     1       3.362   4.271  19.331  0.00  0.00    +0.000 S 
BRANCH  15  16
ATOM     16  C   UNL     1       5.168   4.519  19.363  0.00  0.00    +0.000 C 
BRANCH  16  17
ATOM     17  C   UNL     1       5.741   4.608  17.960  0.00  0.00    +0.000 A 
ATOM     18  C   UNL     1       5.033   4.000  16.907  0.00  0.00    +0.000 A 
ATOM     19  C   UNL     1       5.489   4.069  15.584  0.00  0.00    +0.000 A 
ATOM     20  C   UNL     1       6.675   4.754  15.289  0.00  0.00    +0.000 A 
ATOM     21  C   UNL     1       7.403   5.377  16.305  0.00  0.00    +0.000 A 
ATOM     22  C   UNL     1       6.925   5.301  17.625  0.00  0.00    +0.000 A 
BRANCH  20  23
ATOM     23  N   UNL     1       7.153   4.814  13.901  0.00  0.00    +0.000 N 
ATOM     24  O   UNL     1       6.639   4.044  13.080  0.00  0.00    +0.000 OA
ATOM     25  O   UNL     1       8.046   5.633  13.639  0.00  0.00    +0.000 OA
ENDBRANCH  20  23
BRANCH  22  26
ATOM     26  N   UNL     1       7.713   5.986  18.640  0.00  0.00    +0.000 N 
ATOM     27  O   UNL     1       8.072   5.321  19.619  0.00  0.00    +0.000 OA
ATOM     28  O   UNL     1       7.994   7.170  18.422  0.00  0.00    +0.000 OA
ENDBRANCH  22  26
ENDBRANCH  16  17
ENDBRANCH  15  16
ENDBRANCH   4  15
TORSDOF 7
ENDMDL
MODEL 2
REMARK VINA RESULT:      -8.3      4.993      7.691
REMARK  Name = 
REMARK  7 active torsions:
REMARK  status: ('A' for Active; 'I' for Inactive)
REMARK    1  A    between atoms: N_2  and  C_4
REMARK    2  A    between atoms: C_7  and  C_8
REMARK    3  A    between atoms: C_11  and  S_12
REMARK    4  A    between atoms: S_12  and  C_13
REMARK    5  A    between atoms: C_13  and  C_14
REMARK    6  A    between atoms: C_17  and  N_18
REMARK    7  A    between atoms: C_22  and  N_23
REMARK                            x       y       z     vdW  Elec       q    Type
REMARK                         _______ _______ _______ _____ _____    ______ ____
ROOT
ATOM      1  C   UNL     1       8.544   9.398  18.281  0.00  0.00    +0.000 A 
ATOM      2  N   UNL     1       7.752   9.069  17.281  0.00  0.00    +0.000 NA
ATOM      3  N   UNL     1       7.481   7.728  17.415  0.00  0.00    +0.000 NA
ATOM      4  C   UNL     1       8.113   7.319  18.495  0.00  0.00    +0.000 A 
ATOM      5  O   UNL     1       8.822   8.333  19.101  0.00  0.00    +0.000 OA
ENDROOT
BRANCH   1   9
ATOM      6  C   UNL     1      10.292  13.253  18.927  0.00  0.00    +0.000 A 
ATOM      7  C   UNL     1       9.362  13.051  17.904  0.00  0.00    +0.000 A 
ATOM      8  C   UNL     1       8.796  11.785  17.738  0.00  0.00    +0.000 A 
ATOM      9  C   UNL     1       9.135  10.704  18.572  0.00  0.00    +0.000 A 
ATOM     10  C   UNL     1      10.050  10.932  19.613  0.00  0.00    +0.000 A 
ATOM     11  C   UNL     1      10.631  12.200  19.789  0.00  0.00    +0.000 A 
BRANCH   6  13
ATOM     12  O   UNL     1      11.391  14.867  20.186  0.00  0.00    +0.000 OA
ATOM     13  N   UNL     1      10.923  14.572  19.077  0.00  0.00    +0.000 N 
ATOM     14  O   UNL     1      10.944  15.313  18.084  0.00  0.00    +0.000 OA
ENDBRANCH   6  13
ENDBRANCH   1   9
BRANCH   4  15
ATOM     15  S   UNL     1       8.050   5.686  19.093  0.00  0.00    +0.000 S 
BRANCH  15  16
ATOM     16  C   UNL     1       7.330   4.832  17.652  0.00  0.00    +0.000 C 
BRANCH  16  17
ATOM     17  C   UNL     1       5.840   4.603  17.829  0.00  0.00    +0.000 A 
ATOM     18  C   UNL     1       5.366   4.229  19.101  0.00  0.00    +0.000 A 
ATOM     19  C   UNL     1       4.001   4.030  19.343  0.00  0.00    +0.000 A 
ATOM     20  C   UNL     1       3.076   4.201  18.304  0.00  0.00    +0.000 A 
ATOM     21  C   UNL     1       3.505   4.579  17.030  0.00  0.00    +0.000 A 
ATOM     22  C   UNL     1       4.879   4.780  16.811  0.00  0.00    +0.000 A 
BRANCH  20  23
ATOM     23  N   UNL     1       1.646   3.980  18.563  0.00  0.00    +0.000 N 
ATOM     24  O   UNL     1       0.929   3.664  17.606  0.00  0.00    +0.000 OA
ATOM     25  O   UNL     1       1.246   4.129  19.727  0.00  0.00    +0.000 OA
ENDBRANCH  20  23
BRANCH  22  26
ATOM     26  N   UNL     1       5.266   5.192  15.469  0.00  0.00    +0.000 N 
ATOM     27  O   UNL     1       5.487   4.296  14.645  0.00  0.00    +0.000 OA
ATOM     28  O   UNL     1       5.307   6.408  15.249  0.00  0.00    +0.000 OA
ENDBRANCH  22  26
ENDBRANCH  16  17
ENDBRANCH  15  16
ENDBRANCH   4  15
TORSDOF 7
ENDMDL
MODEL 3
REMARK VINA RESULT:      -8.0      3.124      9.590
REMARK  Name = 
REMARK  7 active torsions:
REMARK  status: ('A' for Active; 'I' for Inactive)
REMARK    1  A    between atoms: N_2  and  C_4
REMARK    2  A    between atoms: C_7  and  C_8
REMARK    3  A    between atoms: C_11  and  S_12
REMARK    4  A    between atoms: S_12  and  C_13
REMARK    5  A    between atoms: C_13  and  C_14
REMARK    6  A    between atoms: C_17  and  N_18
REMARK    7  A    between atoms: C_22  and  N_23
REMARK                            x       y       z     vdW  Elec       q    Type
REMARK                         _______ _______ _______ _____ _____    ______ ____
ROOT
ATOM      1  C   UNL     1       2.781   6.371  19.069  0.00  0.00    +0.000 A 
ATOM      2  N   UNL     1       2.297   5.558  19.986  0.00  0.00    +0.000 NA
ATOM      3  N   UNL     1       1.539   6.328  20.836  0.00  0.00    +0.000 NA
ATOM      4  C   UNL     1       1.594   7.562  20.383  0.00  0.00    +0.000 A 
ATOM      5  O   UNL     1       2.378   7.669  19.255  0.00  0.00    +0.000 OA
ENDROOT
BRANCH   1   9
ATOM      6  C   UNL     1       5.454   5.259  15.914  0.00  0.00    +0.000 A 
ATOM      7  C   UNL     1       4.794   4.287  16.670  0.00  0.00    +0.000 A 
ATOM      8  C   UNL     1       3.912   4.687  17.676  0.00  0.00    +0.000 A 
ATOM      9  C   UNL     1       3.667   6.045  17.952  0.00  0.00    +0.000 A 
ATOM     10  C   UNL     1       4.317   7.009  17.164  0.00  0.00    +0.000 A 
ATOM     11  C   UNL     1       5.210   6.620  16.151  0.00  0.00    +0.000 A 
BRANCH   6  13
ATOM     12  O   UNL     1       6.044   4.005  14.050  0.00  0.00    +0.000 OA
ATOM     13  N   UNL     1       6.416   4.842  14.885  0.00  0.00    +0.000 N 
ATOM     14  O   UNL     1       7.546   5.351  14.917  0.00  0.00    +0.000 OA
ENDBRANCH   6  13
ENDBRANCH   1   9
BRANCH   4  15
ATOM     15  S   UNL     1       0.763   8.903  21.119  0.00  0.00    +0.000 S 
BRANCH  15  16
ATOM     16  C   UNL     1       1.018  10.187  19.851  0.00  0.00    +0.000 C 
BRANCH  16  17
ATOM     17  C   UNL     1      -0.272  10.511  19.120  0.00  0.00    +0.000 A 
ATOM     18  C   UNL     1      -0.557   9.820  17.927  0.00  0.00    +0.000 A 
ATOM     19  C   UNL     1      -1.743  10.047  17.216  0.00  0.00    +0.000 A 
ATOM     20  C   UNL     1      -2.674  10.981  17.692  0.00  0.00    +0.000 A 
ATOM     21  C   UNL     1      -2.431  11.681  18.876  0.00  0.00    +0.000 A 
ATOM     22  C   UNL     1      -1.238  11.433  19.577  0.00  0.00    +0.000 A 
BRANCH  20  23
ATOM     23  N   UNL     1      -3.911  11.221  16.937  0.00  0.00    +0.000 N 
ATOM     24  O   UNL     1      -3.851  11.178  15.702  0.00  0.00    +0.000 OA
ATOM     25  O   UNL     1      -4.941  11.455  17.587  0.00  0.00    +0.000 OA
ENDBRANCH  20  23
BRANCH  22  26
ATOM     26  N   UNL     1      -1.047  12.177  20.814  0.00  0.00    +0.000 N 
ATOM     27  O   UNL     1      -0.474  13.270  20.732  0.00  0.00    +0.000 OA
ATOM     28  O   UNL     1      -1.509  11.672  21.844  0.00  0.00    +0.000 OA
ENDBRANCH  22  26
ENDBRANCH  16  17
ENDBRANCH  15  16
ENDBRANCH   4  15
TORSDOF 7
ENDMDL
MODEL 4
REMARK VINA RESULT:      -7.9      2.666      9.671
REMARK  Name = 
REMARK  7 active torsions:
REMARK  status: ('A' for Active; 'I' for Inactive)
REMARK    1  A    between atoms: N_2  and  C_4
REMARK    2  A    between atoms: C_7  and  C_8
REMARK    3  A    between atoms: C_11  and  S_12
REMARK    4  A    between atoms: S_12  and  C_13
REMARK    5  A    between atoms: C_13  and  C_14
REMARK    6  A    between atoms: C_17  and  N_18
REMARK    7  A    between atoms: C_22  and  N_23
REMARK                            x       y       z     vdW  Elec       q    Type
REMARK                         _______ _______ _______ _____ _____    ______ ____
ROOT
ATOM      1  C   UNL     1       3.142   5.889  18.741  0.00  0.00    +0.000 A 
ATOM      2  N   UNL     1       2.711   5.008  19.621  0.00  0.00    +0.000 NA
ATOM      3  N   UNL     1       1.961   5.701  20.540  0.00  0.00    +0.000 NA
ATOM      4  C   UNL     1       1.967   6.962  20.162  0.00  0.00    +0.000 A 
ATOM      5  O   UNL     1       2.710   7.161  19.019  0.00  0.00    +0.000 OA
ENDROOT
BRANCH   1   9
ATOM      6  C   UNL     1       5.738   5.049  15.441  0.00  0.00    +0.000 A 
ATOM      7  C   UNL     1       5.114   4.015  16.142  0.00  0.00    +0.000 A 
ATOM      8  C   UNL     1       4.256   4.327  17.199  0.00  0.00    +0.000 A 
ATOM      9  C   UNL     1       4.001   5.658  17.579  0.00  0.00    +0.000 A 
ATOM     10  C   UNL     1       4.614   6.686  16.845  0.00  0.00    +0.000 A 
ATOM     11  C   UNL     1       5.483   6.386  15.783  0.00  0.00    +0.000 A 
BRANCH   6  13
ATOM     12  O   UNL     1       6.379   3.790  13.597  0.00  0.00    +0.000 OA
ATOM     13  N   UNL     1       6.676   4.722  14.358  0.00  0.00    +0.000 N 
ATOM     14  O   UNL     1       7.711   5.397  14.273  0.00  0.00    +0.000 OA
ENDBRANCH   6  13
ENDBRANCH   1   9
BRANCH   4  15
ATOM     15  S   UNL     1       1.124   8.230  21.005  0.00  0.00    +0.000 S 
BRANCH  15  16
ATOM     16  C   UNL     1       1.359   9.615  19.842  0.00  0.00    +0.000 C 
BRANCH  16  17
ATOM     17  C   UNL     1       0.031  10.208  19.408  0.00  0.00    +0.000 A 
ATOM     18  C   UNL     1      -0.507   9.811  18.170  0.00  0.00    +0.000 A 
ATOM     19  C   UNL     1      -1.742  10.296  17.721  0.00  0.00    +0.000 A 
ATOM     20  C   UNL     1      -2.467  11.199  18.511  0.00  0.00    +0.000 A 
ATOM     21  C   UNL     1      -1.970  11.611  19.750  0.00  0.00    +0.000 A 
ATOM     22  C   UNL     1      -0.732  11.107  20.185  0.00  0.00    +0.000 A 
BRANCH  20  23
ATOM     23  N   UNL     1      -3.757  11.711  18.030  0.00  0.00    +0.000 N 
ATOM     24  O   UNL     1      -4.520  12.225  18.858  0.00  0.00    +0.000 OA
ATOM     25  O   UNL     1      -4.003  11.594  16.820  0.00  0.00    +0.000 OA
ENDBRANCH  20  23
BRANCH  22  26
ATOM     26  N   UNL     1      -0.273  11.556  21.492  0.00  0.00    +0.000 N 
ATOM     27  O   UNL     1      -0.760  10.999  22.482  0.00  0.00    +0.000 OA
ATOM     28  O   UNL     1       0.598  12.434  21.504  0.00  0.00    +0.000 OA
ENDBRANCH  22  26
ENDBRANCH  16  17
ENDBRANCH  15  16
ENDBRANCH   4  15
TORSDOF 7
ENDMDL
MODEL 5
REMARK VINA RESULT:      -7.9      0.797      1.360
REMARK  Name = 
REMARK  7 active torsions:
REMARK  status: ('A' for Active; 'I' for Inactive)
REMARK    1  A    between atoms: N_2  and  C_4
REMARK    2  A    between atoms: C_7  and  C_8
REMARK    3  A    between atoms: C_11  and  S_12
REMARK    4  A    between atoms: S_12  and  C_13
REMARK    5  A    between atoms: C_13  and  C_14
REMARK    6  A    between atoms: C_17  and  N_18
REMARK    7  A    between atoms: C_22  and  N_23
REMARK                            x       y       z     vdW  Elec       q    Type
REMARK                         _______ _______ _______ _____ _____    ______ ____
ROOT
ATOM      1  C   UNL     1       1.781   8.307  19.455  0.00  0.00    +0.000 A 
ATOM      2  N   UNL     1       2.234   8.343  18.218  0.00  0.00    +0.000 NA
ATOM      3  N   UNL     1       2.931   7.175  18.018  0.00  0.00    +0.000 NA
ATOM      4  C   UNL     1       2.852   6.489  19.138  0.00  0.00    +0.000 A 
ATOM      5  O   UNL     1       2.136   7.154  20.109  0.00  0.00    +0.000 OA
ENDROOT
BRANCH   1   9
ATOM      6  C   UNL     1      -0.606  11.130  21.615  0.00  0.00    +0.000 A 
ATOM      7  C   UNL     1      -0.133   9.970  22.234  0.00  0.00    +0.000 A 
ATOM      8  C   UNL     1       0.662   9.083  21.504  0.00  0.00    +0.000 A 
ATOM      9  C   UNL     1       1.002   9.324  20.160  0.00  0.00    +0.000 A 
ATOM     10  C   UNL     1       0.542  10.509  19.563  0.00  0.00    +0.000 A 
ATOM     11  C   UNL     1      -0.263  11.408  20.284  0.00  0.00    +0.000 A 
BRANCH   6  13
ATOM     12  O   UNL     1      -2.638  12.201  21.959  0.00  0.00    +0.000 OA
ATOM     13  N   UNL     1      -1.479  12.042  22.367  0.00  0.00    +0.000 N 
ATOM     14  O   UNL     1      -1.000  12.603  23.363  0.00  0.00    +0.000 OA
ENDBRANCH   6  13
ENDBRANCH   1   9
BRANCH   4  15
ATOM     15  S   UNL     1       3.564   4.916  19.364  0.00  0.00    +0.000 S 
BRANCH  15  16
ATOM     16  C   UNL     1       5.331   5.322  19.168  0.00  0.00    +0.000 C 
BRANCH  16  17
ATOM     17  C   UNL     1       5.787   5.142  17.732  0.00  0.00    +0.000 A 
ATOM     18  C   UNL     1       5.148   4.167  16.943  0.00  0.00    +0.000 A 
ATOM     19  C   UNL     1       5.498   3.968  15.601  0.00  0.00    +0.000 A 
ATOM     20  C   UNL     1       6.507   4.748  15.020  0.00  0.00    +0.000 A 
ATOM     21  C   UNL     1       7.160   5.731  15.768  0.00  0.00    +0.000 A 
ATOM     22  C   UNL     1       6.789   5.919  17.111  0.00  0.00    +0.000 A 
BRANCH  20  23
ATOM     23  N   UNL     1       6.877   4.527  13.615  0.00  0.00    +0.000 N 
ATOM     24  O   UNL     1       7.684   5.311  13.101  0.00  0.00    +0.000 OA
ATOM     25  O   UNL     1       6.352   3.568  13.031  0.00  0.00    +0.000 OA
ENDBRANCH  20  23
BRANCH  22  26
ATOM     26  N   UNL     1       7.490   6.969  17.835  0.00  0.00    +0.000 N 
ATOM     27  O   UNL     1       8.149   6.630  18.824  0.00  0.00    +0.000 OA
ATOM     28  O   UNL     1       7.399   8.116  17.379  0.00  0.00    +0.000 OA
ENDBRANCH  22  26
ENDBRANCH  16  17
ENDBRANCH  15  16
ENDBRANCH   4  15
TORSDOF 7
ENDMDL
MODEL 6
REMARK VINA RESULT:      -7.9      0.626      1.228
REMARK  Name = 
REMARK  7 active torsions:
REMARK  status: ('A' for Active; 'I' for Inactive)
REMARK    1  A    between atoms: N_2  and  C_4
REMARK    2  A    between atoms: C_7  and  C_8
REMARK    3  A    between atoms: C_11  and  S_12
REMARK    4  A    between atoms: S_12  and  C_13
REMARK    5  A    between atoms: C_13  and  C_14
REMARK    6  A    between atoms: C_17  and  N_18
REMARK    7  A    between atoms: C_22  and  N_23
REMARK                            x       y       z     vdW  Elec       q    Type
REMARK                         _______ _______ _______ _____ _____    ______ ____
ROOT
ATOM      1  C   UNL     1       1.805   7.703  19.658  0.00  0.00    +0.000 A 
ATOM      2  N   UNL     1       2.437   7.819  18.508  0.00  0.00    +0.000 NA
ATOM      3  N   UNL     1       2.889   6.564  18.176  0.00  0.00    +0.000 NA
ATOM      4  C   UNL     1       2.496   5.753  19.136  0.00  0.00    +0.000 A 
ATOM      5  O   UNL     1       1.801   6.412  20.126  0.00  0.00    +0.000 OA
ENDROOT
BRANCH   1   9
ATOM      6  C   UNL     1      -0.199  10.637  22.047  0.00  0.00    +0.000 A 
ATOM      7  C   UNL     1       0.100   9.374  22.565  0.00  0.00    +0.000 A 
ATOM      8  C   UNL     1       0.774   8.450  21.764  0.00  0.00    +0.000 A 
ATOM      9  C   UNL     1       1.164   8.755  20.447  0.00  0.00    +0.000 A 
ATOM     10  C   UNL     1       0.881  10.039  19.952  0.00  0.00    +0.000 A 
ATOM     11  C   UNL     1       0.199  10.976  20.746  0.00  0.00    +0.000 A 
BRANCH   6  13
ATOM     12  O   UNL     1      -0.492  12.743  22.983  0.00  0.00    +0.000 OA
ATOM     13  N   UNL     1      -0.947  11.596  22.872  0.00  0.00    +0.000 N 
ATOM     14  O   UNL     1      -1.989  11.196  23.412  0.00  0.00    +0.000 OA
ENDBRANCH   6  13
ENDBRANCH   1   9
BRANCH   4  15
ATOM     15  S   UNL     1       2.813   4.041  19.147  0.00  0.00    +0.000 S 
BRANCH  15  16
ATOM     16  C   UNL     1       4.628   4.041  19.312  0.00  0.00    +0.000 C 
BRANCH  16  17
ATOM     17  C   UNL     1       5.309   4.221  17.968  0.00  0.00    +0.000 A 
ATOM     18  C   UNL     1       4.587   3.902  16.803  0.00  0.00    +0.000 A 
ATOM     19  C   UNL     1       5.143   4.073  15.528  0.00  0.00    +0.000 A 
ATOM     20  C   UNL     1       6.447   4.569  15.396  0.00  0.00    +0.000 A 
ATOM     21  C   UNL     1       7.194   4.905  16.528  0.00  0.00    +0.000 A 
ATOM     22  C   UNL     1       6.614   4.732  17.797  0.00  0.00    +0.000 A 
BRANCH  20  23
ATOM     23  N   UNL     1       7.027   4.736  14.056  0.00  0.00    +0.000 N 
ATOM     24  O   UNL     1       6.547   4.068  13.132  0.00  0.00    +0.000 OA
ATOM     25  O   UNL     1       7.967   5.536  13.937  0.00  0.00    +0.000 OA
ENDBRANCH  20  23
BRANCH  22  26
ATOM     26  N   UNL     1       7.431   5.117  18.939  0.00  0.00    +0.000 N 
ATOM     27  O   UNL     1       8.581   4.665  18.988  0.00  0.00    +0.000 OA
ATOM     28  O   UNL     1       6.921   5.897  19.751  0.00  0.00    +0.000 OA
ENDBRANCH  22  26
ENDBRANCH  16  17
ENDBRANCH  15  16
ENDBRANCH   4  15
TORSDOF 7
ENDMDL
MODEL 7
REMARK VINA RESULT:      -7.9      2.981      9.697
REMARK  Name = 
REMARK  7 active torsions:
REMARK  status: ('A' for Active; 'I' for Inactive)
REMARK    1  A    between atoms: N_2  and  C_4
REMARK    2  A    between atoms: C_7  and  C_8
REMARK    3  A    between atoms: C_11  and  S_12
REMARK    4  A    between atoms: S_12  and  C_13
REMARK    5  A    between atoms: C_13  and  C_14
REMARK    6  A    between atoms: C_17  and  N_18
REMARK    7  A    between atoms: C_22  and  N_23
REMARK                            x       y       z     vdW  Elec       q    Type
REMARK                         _______ _______ _______ _____ _____    ______ ____
ROOT
ATOM      1  C   UNL     1       3.006   6.117  18.980  0.00  0.00    +0.000 A 
ATOM      2  N   UNL     1       2.474   5.390  19.941  0.00  0.00    +0.000 NA
ATOM      3  N   UNL     1       1.700   6.238  20.697  0.00  0.00    +0.000 NA
ATOM      4  C   UNL     1       1.796   7.430  20.147  0.00  0.00    +0.000 A 
ATOM      5  O   UNL     1       2.622   7.433  19.045  0.00  0.00    +0.000 OA
ENDROOT
BRANCH   1   9
ATOM      6  C   UNL     1       5.675   5.048  15.807  0.00  0.00    +0.000 A 
ATOM      7  C   UNL     1       5.708   6.326  16.370  0.00  0.00    +0.000 A 
ATOM      8  C   UNL     1       4.838   6.632  17.419  0.00  0.00    +0.000 A 
ATOM      9  C   UNL     1       3.926   5.687  17.927  0.00  0.00    +0.000 A 
ATOM     10  C   UNL     1       3.927   4.399  17.368  0.00  0.00    +0.000 A 
ATOM     11  C   UNL     1       4.794   4.079  16.310  0.00  0.00    +0.000 A 
BRANCH   6  13
ATOM     12  O   UNL     1       6.249   3.785  13.944  0.00  0.00    +0.000 OA
ATOM     13  N   UNL     1       6.559   4.736  14.675  0.00  0.00    +0.000 N 
ATOM     14  O   UNL     1       7.565   5.443  14.521  0.00  0.00    +0.000 OA
ENDBRANCH   6  13
ENDBRANCH   1   9
BRANCH   4  15
ATOM     15  S   UNL     1       0.965   8.840  20.741  0.00  0.00    +0.000 S 
BRANCH  15  16
ATOM     16  C   UNL     1       1.085   9.933  19.287  0.00  0.00    +0.000 C 
BRANCH  16  17
ATOM     17  C   UNL     1      -0.279  10.447  18.863  0.00  0.00    +0.000 A 
ATOM     18  C   UNL     1      -0.976   9.748  17.860  0.00  0.00    +0.000 A 
ATOM     19  C   UNL     1      -2.252  10.150  17.442  0.00  0.00    +0.000 A 
ATOM     20  C   UNL     1      -2.857  11.271  18.026  0.00  0.00    +0.000 A 
ATOM     21  C   UNL     1      -2.200  11.987  19.030  0.00  0.00    +0.000 A 
ATOM     22  C   UNL     1      -0.924  11.563  19.439  0.00  0.00    +0.000 A 
BRANCH  20  23
ATOM     23  N   UNL     1      -4.190  11.693  17.575  0.00  0.00    +0.000 N 
ATOM     24  O   UNL     1      -4.981  12.115  18.428  0.00  0.00    +0.000 OA
ATOM     25  O   UNL     1      -4.442  11.596  16.365  0.00  0.00    +0.000 OA
ENDBRANCH  20  23
BRANCH  22  26
ATOM     26  N   UNL     1      -0.296  12.334  20.503  0.00  0.00    +0.000 N 
ATOM     27  O   UNL     1      -0.537  11.992  21.666  0.00  0.00    +0.000 OA
ATOM     28  O   UNL     1       0.461  13.249  20.155  0.00  0.00    +0.000 OA
ENDBRANCH  22  26
ENDBRANCH  16  17
ENDBRANCH  15  16
ENDBRANCH   4  15
TORSDOF 7
ENDMDL
MODEL 8
REMARK VINA RESULT:      -7.9      1.885      2.290
REMARK  Name = 
REMARK  7 active torsions:
REMARK  status: ('A' for Active; 'I' for Inactive)
REMARK    1  A    between atoms: N_2  and  C_4
REMARK    2  A    between atoms: C_7  and  C_8
REMARK    3  A    between atoms: C_11  and  S_12
REMARK    4  A    between atoms: S_12  and  C_13
REMARK    5  A    between atoms: C_13  and  C_14
REMARK    6  A    between atoms: C_17  and  N_18
REMARK    7  A    between atoms: C_22  and  N_23
REMARK                            x       y       z     vdW  Elec       q    Type
REMARK                         _______ _______ _______ _____ _____    ______ ____
ROOT
ATOM      1  C   UNL     1       2.089   6.804  19.950  0.00  0.00    +0.000 A 
ATOM      2  N   UNL     1       1.548   5.974  20.818  0.00  0.00    +0.000 NA
ATOM      3  N   UNL     1       2.249   4.795  20.729  0.00  0.00    +0.000 NA
ATOM      4  C   UNL     1       3.184   4.977  19.821  0.00  0.00    +0.000 A 
ATOM      5  O   UNL     1       3.140   6.240  19.271  0.00  0.00    +0.000 OA
ENDROOT
BRANCH   1   9
ATOM      6  C   UNL     1       0.740  10.790  19.162  0.00  0.00    +0.000 A 
ATOM      7  C   UNL     1       0.545  10.203  20.414  0.00  0.00    +0.000 A 
ATOM      8  C   UNL     1       1.018   8.909  20.642  0.00  0.00    +0.000 A 
ATOM      9  C   UNL     1       1.689   8.177  19.644  0.00  0.00    +0.000 A 
ATOM     10  C   UNL     1       1.902   8.794  18.400  0.00  0.00    +0.000 A 
ATOM     11  C   UNL     1       1.427  10.094  18.156  0.00  0.00    +0.000 A 
BRANCH   6  13
ATOM     12  O   UNL     1       0.830  13.103  19.360  0.00  0.00    +0.000 OA
ATOM     13  N   UNL     1       0.205  12.135  18.905  0.00  0.00    +0.000 N 
ATOM     14  O   UNL     1      -0.845  12.218  18.252  0.00  0.00    +0.000 OA
ENDBRANCH   6  13
ENDBRANCH   1   9
BRANCH   4  15
ATOM     15  S   UNL     1       4.348   3.763  19.373  0.00  0.00    +0.000 S 
BRANCH  15  16
ATOM     16  C   UNL     1       5.811   4.806  19.061  0.00  0.00    +0.000 C 
BRANCH  16  17
ATOM     17  C   UNL     1       6.190   4.809  17.591  0.00  0.00    +0.000 A 
ATOM     18  C   UNL     1       5.663   3.801  16.763  0.00  0.00    +0.000 A 
ATOM     19  C   UNL     1       5.947   3.759  15.391  0.00  0.00    +0.000 A 
ATOM     20  C   UNL     1       6.773   4.737  14.820  0.00  0.00    +0.000 A 
ATOM     21  C   UNL     1       7.308   5.759  15.607  0.00  0.00    +0.000 A 
ATOM     22  C   UNL     1       7.006   5.785  16.980  0.00  0.00    +0.000 A 
BRANCH  20  23
ATOM     23  N   UNL     1       7.075   4.682  13.383  0.00  0.00    +0.000 N 
ATOM     24  O   UNL     1       6.521   3.804  12.710  0.00  0.00    +0.000 OA
ATOM     25  O   UNL     1       7.870   5.521  12.934  0.00  0.00    +0.000 OA
ENDBRANCH  20  23
BRANCH  22  26
ATOM     26  N   UNL     1       7.575   6.884  17.748  0.00  0.00    +0.000 N 
ATOM     27  O   UNL     1       8.187   6.592  18.782  0.00  0.00    +0.000 OA
ATOM     28  O   UNL     1       7.434   8.020  17.282  0.00  0.00    +0.000 OA
ENDBRANCH  22  26
ENDBRANCH  16  17
ENDBRANCH  15  16
ENDBRANCH   4  15
TORSDOF 7
ENDMDL
MODEL 9
REMARK VINA RESULT:      -7.8      2.536     10.565
REMARK  Name = 
REMARK  7 active torsions:
REMARK  status: ('A' for Active; 'I' for Inactive)
REMARK    1  A    between atoms: N_2  and  C_4
REMARK    2  A    between atoms: C_7  and  C_8
REMARK    3  A    between atoms: C_11  and  S_12
REMARK    4  A    between atoms: S_12  and  C_13
REMARK    5  A    between atoms: C_13  and  C_14
REMARK    6  A    between atoms: C_17  and  N_18
REMARK    7  A    between atoms: C_22  and  N_23
REMARK                            x       y       z     vdW  Elec       q    Type
REMARK                         _______ _______ _______ _____ _____    ______ ____
ROOT
ATOM      1  C   UNL     1       2.817   7.206  18.695  0.00  0.00    +0.000 A 
ATOM      2  N   UNL     1       2.432   6.985  19.935  0.00  0.00    +0.000 NA
ATOM      3  N   UNL     1       1.561   7.996  20.265  0.00  0.00    +0.000 NA
ATOM      4  C   UNL     1       1.456   8.768  19.204  0.00  0.00    +0.000 A 
ATOM      5  O   UNL     1       2.239   8.329  18.159  0.00  0.00    +0.000 OA
ENDROOT
BRANCH   1   9
ATOM      6  C   UNL     1       5.605   5.100  16.219  0.00  0.00    +0.000 A 
ATOM      7  C   UNL     1       5.826   6.434  16.573  0.00  0.00    +0.000 A 
ATOM      8  C   UNL     1       4.907   7.082  17.400  0.00  0.00    +0.000 A 
ATOM      9  C   UNL     1       3.760   6.429  17.890  0.00  0.00    +0.000 A 
ATOM     10  C   UNL     1       3.568   5.080  17.548  0.00  0.00    +0.000 A 
ATOM     11  C   UNL     1       4.483   4.417  16.713  0.00  0.00    +0.000 A 
BRANCH   6  13
ATOM     12  O   UNL     1       7.757   4.651  15.468  0.00  0.00    +0.000 OA
ATOM     13  N   UNL     1       6.547   4.429  15.313  0.00  0.00    +0.000 N 
ATOM     14  O   UNL     1       6.074   3.684  14.443  0.00  0.00    +0.000 OA
ENDBRANCH   6  13
ENDBRANCH   1   9
BRANCH   4  15
ATOM     15  S   UNL     1       0.438  10.178  19.129  0.00  0.00    +0.000 S 
BRANCH  15  16
ATOM     16  C   UNL     1       0.967  11.049  20.641  0.00  0.00    +0.000 C 
BRANCH  16  17
ATOM     17  C   UNL     1      -0.223  11.534  21.449  0.00  0.00    +0.000 A 
ATOM     18  C   UNL     1      -0.831  12.749  21.084  0.00  0.00    +0.000 A 
ATOM     19  C   UNL     1      -1.951  13.241  21.767  0.00  0.00    +0.000 A 
ATOM     20  C   UNL     1      -2.487  12.517  22.840  0.00  0.00    +0.000 A 
ATOM     21  C   UNL     1      -1.918  11.302  23.229  0.00  0.00    +0.000 A 
ATOM     22  C   UNL     1      -0.798  10.824  22.525  0.00  0.00    +0.000 A 
BRANCH  20  23
ATOM     23  N   UNL     1      -3.656  13.043  23.559  0.00  0.00    +0.000 N 
ATOM     24  O   UNL     1      -3.776  14.272  23.645  0.00  0.00    +0.000 OA
ATOM     25  O   UNL     1      -4.450  12.220  24.038  0.00  0.00    +0.000 OA
ENDBRANCH  20  23
BRANCH  22  26
ATOM     26  N   UNL     1      -0.259   9.543  22.961  0.00  0.00    +0.000 N 
ATOM     27  O   UNL     1      -0.748   8.525  22.460  0.00  0.00    +0.000 OA
ATOM     28  O   UNL     1       0.675   9.579  23.772  0.00  0.00    +0.000 OA
ENDBRANCH  22  26
ENDBRANCH  16  17
ENDBRANCH  15  16
ENDBRANCH   4  15
TORSDOF 7
ENDMDL
