MODEL 1
REMARK VINA RESULT:      -9.0      0.000      0.000
REMARK  Name = 
REMARK  6 active torsions:
REMARK  status: ('A' for Active; 'I' for Inactive)
REMARK    1  A    between atoms: C_1  and  O_2
REMARK    2  A    between atoms: O_2  and  C_3
REMARK    3  A    between atoms: C_3  and  C_5
REMARK    4  A    between atoms: C_8  and  C_9
REMARK    5  A    between atoms: C_9  and  C_11
REMARK    6  A    between atoms: C_16  and  C_17
REMARK                            x       y       z     vdW  Elec       q    Type
REMARK                         _______ _______ _______ _____ _____    ______ ____
ROOT
ATOM      1  C   UNL     1       3.158   2.851  18.754  0.00  0.00    +0.000 C 
ATOM      2  C   UNL     1       1.962   2.663  19.696  0.00  0.00    +0.000 C 
ATOM      3  C   UNL     1       1.826   3.831  20.667  0.00  0.00    +0.000 C 
ATOM      4  C   UNL     1       1.889   5.167  19.971  0.00  0.00    +0.000 A 
ATOM      5  C   UNL     1       1.428   6.306  20.654  0.00  0.00    +0.000 A 
ATOM      6  C   UNL     1       1.456   7.589  20.078  0.00  0.00    +0.000 A 
ATOM      7  C   UNL     1       1.982   7.691  18.781  0.00  0.00    +0.000 A 
ATOM      8  C   UNL     1       2.450   6.568  18.091  0.00  0.00    +0.000 A 
ATOM      9  C   UNL     1       2.423   5.302  18.684  0.00  0.00    +0.000 A 
ATOM     10  C   UNL     1       2.910   4.106  17.897  0.00  0.00    +0.000 C 
ENDROOT
BRANCH   6  11
ATOM     11  C   UNL     1       0.913   8.765  20.802  0.00  0.00    +0.000 A 
ATOM     12  C   UNL     1       0.838  10.034  20.195  0.00  0.00    +0.000 A 
ATOM     13  C   UNL     1       0.409  11.161  20.904  0.00  0.00    +0.000 A 
ATOM     14  C   UNL     1       0.014  11.039  22.232  0.00  0.00    +0.000 A 
ATOM     15  C   UNL     1       0.040   9.792  22.847  0.00  0.00    +0.000 A 
ATOM     16  C   UNL     1       0.491   8.672  22.141  0.00  0.00    +0.000 A 
ENDBRANCH   6  11
BRANCH   1  17
ATOM     17  C   UNL     1       4.525   2.900  19.468  0.00  0.00    +0.000 C 
ATOM     18  O   UNL     1       4.809   2.093  20.354  0.00  0.00    +0.000 OA
BRANCH  17  22
ATOM     19  C   UNL     1       6.651   5.200  17.769  0.00  0.00    +0.000 A 
ATOM     20  C   UNL     1       6.650   5.719  19.044  0.00  0.00    +0.000 A 
ATOM     21  N   UNL     1       5.888   4.938  19.876  0.00  0.00    +0.000 NA
ATOM     22  C   UNL     1       5.417   3.989  19.087  0.00  0.00    +0.000 A 
ATOM     23  O   UNL     1       5.851   4.082  17.787  0.00  0.00    +0.000 OA
BRANCH  19  24
ATOM     24  C   UNL     1       7.315   5.637  16.570  0.00  0.00    +0.000 C 
ATOM     25  O   UNL     1       7.715   6.776  16.366  0.00  0.00    +0.000 OA
BRANCH  24  27
ATOM     26  C   UNL     1       6.731   4.761  14.474  0.00  0.00    +0.000 C 
ATOM     27  O   UNL     1       7.450   4.601  15.696  0.00  0.00    +0.000 OA
ENDBRANCH  24  27
ENDBRANCH  19  24
ENDBRANCH  17  22
ENDBRANCH   1  17
TORSDOF 5
ENDMDL
MODEL 2
REMARK VINA RESULT:      -8.9      0.427      1.018
REMARK  Name = 
REMARK  6 active torsions:
REMARK  status: ('A' for Active; 'I' for Inactive)
REMARK    1  A    between atoms: C_1  and  O_2
REMARK    2  A    between atoms: O_2  and  C_3
REMARK    3  A    between atoms: C_3  and  C_5
REMARK    4  A    between atoms: C_8  and  C_9
REMARK    5  A    between atoms: C_9  and  C_11
REMARK    6  A    between atoms: C_16  and  C_17
REMARK                            x       y       z     vdW  Elec       q    Type
REMARK                         _______ _______ _______ _____ _____    ______ ____
ROOT
ATOM      1  C   UNL     1       3.023   2.782  18.994  0.00  0.00    +0.000 C 
ATOM      2  C   UNL     1       1.922   2.665  20.055  0.00  0.00    +0.000 C 
ATOM      3  C   UNL     1       1.878   3.897  20.953  0.00  0.00    +0.000 C 
ATOM      4  C   UNL     1       1.874   5.182  20.166  0.00  0.00    +0.000 A 
ATOM      5  C   UNL     1       1.480   6.368  20.811  0.00  0.00    +0.000 A 
ATOM      6  C   UNL     1       1.452   7.609  20.150  0.00  0.00    +0.000 A 
ATOM      7  C   UNL     1       1.853   7.620  18.805  0.00  0.00    +0.000 A 
ATOM      8  C   UNL     1       2.255   6.450  18.151  0.00  0.00    +0.000 A 
ATOM      9  C   UNL     1       2.284   5.227  18.828  0.00  0.00    +0.000 A 
ATOM     10  C   UNL     1       2.695   3.978  18.081  0.00  0.00    +0.000 C 
ENDROOT
BRANCH   6  11
ATOM     11  C   UNL     1       0.979   8.834  20.840  0.00  0.00    +0.000 A 
ATOM     12  C   UNL     1       0.512   8.798  22.168  0.00  0.00    +0.000 A 
ATOM     13  C   UNL     1      -0.016   9.934  22.790  0.00  0.00    +0.000 A 
ATOM     14  C   UNL     1      -0.059  11.144  22.107  0.00  0.00    +0.000 A 
ATOM     15  C   UNL     1       0.431  11.220  20.808  0.00  0.00    +0.000 A 
ATOM     16  C   UNL     1       0.938  10.076  20.182  0.00  0.00    +0.000 A 
ENDBRANCH   6  11
BRANCH   1  17
ATOM     17  C   UNL     1       4.452   2.871  19.571  0.00  0.00    +0.000 C 
ATOM     18  O   UNL     1       4.819   2.122  20.477  0.00  0.00    +0.000 OA
BRANCH  17  22
ATOM     19  C   UNL     1       6.300   5.121  17.517  0.00  0.00    +0.000 A 
ATOM     20  C   UNL     1       6.591   5.597  18.776  0.00  0.00    +0.000 A 
ATOM     21  N   UNL     1       5.976   4.827  19.732  0.00  0.00    +0.000 NA
ATOM     22  C   UNL     1       5.303   3.927  19.037  0.00  0.00    +0.000 A 
ATOM     23  O   UNL     1       5.462   4.043  17.677  0.00  0.00    +0.000 OA
BRANCH  19  24
ATOM     24  C   UNL     1       6.724   5.565  16.217  0.00  0.00    +0.000 C 
ATOM     25  O   UNL     1       7.667   6.317  16.006  0.00  0.00    +0.000 OA
BRANCH  24  27
ATOM     26  C   UNL     1       6.656   4.473  14.142  0.00  0.00    +0.000 C 
ATOM     27  O   UNL     1       5.938   5.018  15.248  0.00  0.00    +0.000 OA
ENDBRANCH  24  27
ENDBRANCH  19  24
ENDBRANCH  17  22
ENDBRANCH   1  17
TORSDOF 5
ENDMDL
MODEL 3
REMARK VINA RESULT:      -8.6      0.577      1.427
REMARK  Name = 
REMARK  6 active torsions:
REMARK  status: ('A' for Active; 'I' for Inactive)
REMARK    1  A    between atoms: C_1  and  O_2
REMARK    2  A    between atoms: O_2  and  C_3
REMARK    3  A    between atoms: C_3  and  C_5
REMARK    4  A    between atoms: C_8  and  C_9
REMARK    5  A    between atoms: C_9  and  C_11
REMARK    6  A    between atoms: C_16  and  C_17
REMARK                            x       y       z     vdW  Elec       q    Type
REMARK                         _______ _______ _______ _____ _____    ______ ____
ROOT
ATOM      1  C   UNL     1       3.006   2.755  18.763  0.00  0.00    +0.000 C 
ATOM      2  C   UNL     1       1.841   2.618  19.752  0.00  0.00    +0.000 C 
ATOM      3  C   UNL     1       1.779   3.801  20.711  0.00  0.00    +0.000 C 
ATOM      4  C   UNL     1       1.857   5.125  19.995  0.00  0.00    +0.000 A 
ATOM      5  C   UNL     1       1.459   6.288  20.678  0.00  0.00    +0.000 A 
ATOM      6  C   UNL     1       1.505   7.562  20.084  0.00  0.00    +0.000 A 
ATOM      7  C   UNL     1       1.985   7.630  18.767  0.00  0.00    +0.000 A 
ATOM      8  C   UNL     1       2.391   6.484  18.075  0.00  0.00    +0.000 A 
ATOM      9  C   UNL     1       2.346   5.227  18.686  0.00  0.00    +0.000 A 
ATOM     10  C   UNL     1       2.765   4.006  17.898  0.00  0.00    +0.000 C 
ENDROOT
BRANCH   6  11
ATOM     11  C   UNL     1       1.027   8.764  20.811  0.00  0.00    +0.000 A 
ATOM     12  C   UNL     1       0.680   8.710  22.175  0.00  0.00    +0.000 A 
ATOM     13  C   UNL     1       0.146   9.820  22.839  0.00  0.00    +0.000 A 
ATOM     14  C   UNL     1      -0.024  11.021  22.160  0.00  0.00    +0.000 A 
ATOM     15  C   UNL     1       0.346  11.116  20.823  0.00  0.00    +0.000 A 
ATOM     16  C   UNL     1       0.859   9.997  20.157  0.00  0.00    +0.000 A 
ENDBRANCH   6  11
BRANCH   1  17
ATOM     17  C   UNL     1       4.400   2.770  19.425  0.00  0.00    +0.000 C 
ATOM     18  O   UNL     1       4.743   1.881  20.206  0.00  0.00    +0.000 OA
BRANCH  17  22
ATOM     19  C   UNL     1       6.390   5.305  17.905  0.00  0.00    +0.000 A 
ATOM     20  C   UNL     1       6.429   5.682  19.229  0.00  0.00    +0.000 A 
ATOM     21  N   UNL     1       5.724   4.792  20.000  0.00  0.00    +0.000 NA
ATOM     22  C   UNL     1       5.246   3.920  19.130  0.00  0.00    +0.000 A 
ATOM     23  O   UNL     1       5.621   4.167  17.832  0.00  0.00    +0.000 OA
BRANCH  19  24
ATOM     24  C   UNL     1       6.989   5.890  16.737  0.00  0.00    +0.000 C 
ATOM     25  O   UNL     1       7.579   5.266  15.863  0.00  0.00    +0.000 OA
BRANCH  24  27
ATOM     26  C   UNL     1       7.814   7.984  17.398  0.00  0.00    +0.000 C 
ATOM     27  O   UNL     1       6.797   7.239  16.728  0.00  0.00    +0.000 OA
ENDBRANCH  24  27
ENDBRANCH  19  24
ENDBRANCH  17  22
ENDBRANCH   1  17
TORSDOF 5
ENDMDL
MODEL 4
REMARK VINA RESULT:      -8.4      1.449      2.157
REMARK  Name = 
REMARK  6 active torsions:
REMARK  status: ('A' for Active; 'I' for Inactive)
REMARK    1  A    between atoms: C_1  and  O_2
REMARK    2  A    between atoms: O_2  and  C_3
REMARK    3  A    between atoms: C_3  and  C_5
REMARK    4  A    between atoms: C_8  and  C_9
REMARK    5  A    between atoms: C_9  and  C_11
REMARK    6  A    between atoms: C_16  and  C_17
REMARK                            x       y       z     vdW  Elec       q    Type
REMARK                         _______ _______ _______ _____ _____    ______ ____
ROOT
ATOM      1  C   UNL     1       3.538   3.607  18.327  0.00  0.00    +0.000 C 
ATOM      2  C   UNL     1       2.438   3.236  19.331  0.00  0.00    +0.000 C 
ATOM      3  C   UNL     1       2.261   4.318  20.390  0.00  0.00    +0.000 C 
ATOM      4  C   UNL     1       2.141   5.695  19.790  0.00  0.00    +0.000 A 
ATOM      5  C   UNL     1       1.623   6.735  20.583  0.00  0.00    +0.000 A 
ATOM      6  C   UNL     1       1.483   8.049  20.101  0.00  0.00    +0.000 A 
ATOM      7  C   UNL     1       1.900   8.288  18.782  0.00  0.00    +0.000 A 
ATOM      8  C   UNL     1       2.423   7.266  17.983  0.00  0.00    +0.000 A 
ATOM      9  C   UNL     1       2.564   5.969  18.483  0.00  0.00    +0.000 A 
ATOM     10  C   UNL     1       3.106   4.883  17.581  0.00  0.00    +0.000 C 
ENDROOT
BRANCH   6  11
ATOM     11  C   UNL     1       0.882   9.113  20.942  0.00  0.00    +0.000 A 
ATOM     12  C   UNL     1       0.403   8.845  22.239  0.00  0.00    +0.000 A 
ATOM     13  C   UNL     1      -0.242   9.826  22.999  0.00  0.00    +0.000 A 
ATOM     14  C   UNL     1      -0.396  11.111  22.489  0.00  0.00    +0.000 A 
ATOM     15  C   UNL     1       0.101  11.416  21.227  0.00  0.00    +0.000 A 
ATOM     16  C   UNL     1       0.726  10.426  20.462  0.00  0.00    +0.000 A 
ENDBRANCH   6  11
BRANCH   1  17
ATOM     17  C   UNL     1       4.942   3.749  18.950  0.00  0.00    +0.000 C 
ATOM     18  O   UNL     1       5.206   3.252  20.046  0.00  0.00    +0.000 OA
BRANCH  17  22
ATOM     19  C   UNL     1       7.039   6.333  17.674  0.00  0.00    +0.000 A 
ATOM     20  C   UNL     1       7.391   5.271  16.871  0.00  0.00    +0.000 A 
ATOM     21  N   UNL     1       6.655   4.160  17.197  0.00  0.00    +0.000 NA
ATOM     22  C   UNL     1       5.902   4.557  18.208  0.00  0.00    +0.000 A 
ATOM     23  O   UNL     1       6.079   5.877  18.546  0.00  0.00    +0.000 OA
BRANCH  19  24
ATOM     24  C   UNL     1       7.500   7.694  17.699  0.00  0.00    +0.000 C 
ATOM     25  O   UNL     1       7.081   8.590  16.977  0.00  0.00    +0.000 OA
BRANCH  24  27
ATOM     26  C   UNL     1       8.890   9.201  18.839  0.00  0.00    +0.000 C 
ATOM     27  O   UNL     1       8.462   7.853  18.651  0.00  0.00    +0.000 OA
ENDBRANCH  24  27
ENDBRANCH  19  24
ENDBRANCH  17  22
ENDBRANCH   1  17
TORSDOF 5
ENDMDL
MODEL 5
REMARK VINA RESULT:      -8.1      1.386      1.790
REMARK  Name = 
REMARK  6 active torsions:
REMARK  status: ('A' for Active; 'I' for Inactive)
REMARK    1  A    between atoms: C_1  and  O_2
REMARK    2  A    between atoms: O_2  and  C_3
REMARK    3  A    between atoms: C_3  and  C_5
REMARK    4  A    between atoms: C_8  and  C_9
REMARK    5  A    between atoms: C_9  and  C_11
REMARK    6  A    between atoms: C_16  and  C_17
REMARK                            x       y       z     vdW  Elec       q    Type
REMARK                         _______ _______ _______ _____ _____    ______ ____
ROOT
ATOM      1  C   UNL     1       3.328   4.580  18.565  0.00  0.00    +0.000 C 
ATOM      2  C   UNL     1       2.349   4.248  19.699  0.00  0.00    +0.000 C 
ATOM      3  C   UNL     1       2.186   5.421  20.658  0.00  0.00    +0.000 C 
ATOM      4  C   UNL     1       1.915   6.718  19.939  0.00  0.00    +0.000 A 
ATOM      5  C   UNL     1       1.393   7.800  20.670  0.00  0.00    +0.000 A 
ATOM      6  C   UNL     1       1.117   9.044  20.076  0.00  0.00    +0.000 A 
ATOM      7  C   UNL     1       1.399   9.170  18.707  0.00  0.00    +0.000 A 
ATOM      8  C   UNL     1       1.925   8.105  17.967  0.00  0.00    +0.000 A 
ATOM      9  C   UNL     1       2.202   6.879  18.578  0.00  0.00    +0.000 A 
ATOM     10  C   UNL     1       2.742   5.741  17.741  0.00  0.00    +0.000 C 
ENDROOT
BRANCH   6  11
ATOM     11  C   UNL     1       0.515  10.151  20.861  0.00  0.00    +0.000 A 
ATOM     12  C   UNL     1       0.749  11.500  20.531  0.00  0.00    +0.000 A 
ATOM     13  C   UNL     1       0.255  12.543  21.321  0.00  0.00    +0.000 A 
ATOM     14  C   UNL     1      -0.513  12.261  22.446  0.00  0.00    +0.000 A 
ATOM     15  C   UNL     1      -0.792  10.939  22.775  0.00  0.00    +0.000 A 
ATOM     16  C   UNL     1      -0.278   9.898  21.994  0.00  0.00    +0.000 A 
ENDBRANCH   6  11
BRANCH   1  17
ATOM     17  C   UNL     1       4.767   4.876  19.037  0.00  0.00    +0.000 C 
ATOM     18  O   UNL     1       5.073   4.804  20.228  0.00  0.00    +0.000 OA
BRANCH  17  22
ATOM     19  C   UNL     1       6.696   5.326  16.075  0.00  0.00    +0.000 A 
ATOM     20  C   UNL     1       7.216   6.305  16.893  0.00  0.00    +0.000 A 
ATOM     21  N   UNL     1       6.605   6.276  18.121  0.00  0.00    +0.000 NA
ATOM     22  C   UNL     1       5.709   5.310  18.013  0.00  0.00    +0.000 A 
ATOM     23  O   UNL     1       5.716   4.681  16.792  0.00  0.00    +0.000 OA
BRANCH  19  24
ATOM     24  C   UNL     1       7.024   4.947  14.727  0.00  0.00    +0.000 C 
ATOM     25  O   UNL     1       7.923   5.440  14.059  0.00  0.00    +0.000 OA
BRANCH  24  27
ATOM     26  C   UNL     1       6.313   3.642  12.912  0.00  0.00    +0.000 C 
ATOM     27  O   UNL     1       6.200   3.948  14.301  0.00  0.00    +0.000 OA
ENDBRANCH  24  27
ENDBRANCH  19  24
ENDBRANCH  17  22
ENDBRANCH   1  17
TORSDOF 5
ENDMDL
MODEL 6
REMARK VINA RESULT:      -8.1      1.079      1.547
REMARK  Name = 
REMARK  6 active torsions:
REMARK  status: ('A' for Active; 'I' for Inactive)
REMARK    1  A    between atoms: C_1  and  O_2
REMARK    2  A    between atoms: O_2  and  C_3
REMARK    3  A    between atoms: C_3  and  C_5
REMARK    4  A    between atoms: C_8  and  C_9
REMARK    5  A    between atoms: C_9  and  C_11
REMARK    6  A    between atoms: C_16  and  C_17
REMARK                            x       y       z     vdW  Elec       q    Type
REMARK                         _______ _______ _______ _____ _____    ______ ____
ROOT
ATOM      1  C   UNL     1       2.803   2.395  19.674  0.00  0.00    +0.000 C 
ATOM      2  C   UNL     1       2.000   2.750  20.932  0.00  0.00    +0.000 C 
ATOM      3  C   UNL     1       2.211   4.205  21.336  0.00  0.00    +0.000 C 
ATOM      4  C   UNL     1       2.040   5.154  20.179  0.00  0.00    +0.000 A 
ATOM      5  C   UNL     1       1.847   6.521  20.448  0.00  0.00    +0.000 A 
ATOM      6  C   UNL     1       1.683   7.472  19.425  0.00  0.00    +0.000 A 
ATOM      7  C   UNL     1       1.734   6.999  18.104  0.00  0.00    +0.000 A 
ATOM      8  C   UNL     1       1.931   5.643  17.820  0.00  0.00    +0.000 A 
ATOM      9  C   UNL     1       2.102   4.714  18.850  0.00  0.00    +0.000 A 
ATOM     10  C   UNL     1       2.283   3.253  18.506  0.00  0.00    +0.000 C 
ENDROOT
BRANCH   6  11
ATOM     11  C   UNL     1       1.426   8.899  19.740  0.00  0.00    +0.000 A 
ATOM     12  C   UNL     1       1.038   9.311  21.030  0.00  0.00    +0.000 A 
ATOM     13  C   UNL     1       0.711  10.642  21.306  0.00  0.00    +0.000 A 
ATOM     14  C   UNL     1       0.796  11.602  20.303  0.00  0.00    +0.000 A 
ATOM     15  C   UNL     1       1.214  11.233  19.029  0.00  0.00    +0.000 A 
ATOM     16  C   UNL     1       1.518   9.896  18.752  0.00  0.00    +0.000 A 
ENDBRANCH   6  11
BRANCH   1  17
ATOM     17  C   UNL     1       4.332   2.514  19.843  0.00  0.00    +0.000 C 
ATOM     18  O   UNL     1       4.943   1.793  20.633  0.00  0.00    +0.000 OA
BRANCH  17  22
ATOM     19  C   UNL     1       5.660   4.634  17.306  0.00  0.00    +0.000 A 
ATOM     20  C   UNL     1       6.040   5.302  18.448  0.00  0.00    +0.000 A 
ATOM     21  N   UNL     1       5.634   4.612  19.562  0.00  0.00    +0.000 NA
ATOM     22  C   UNL     1       4.989   3.566  19.077  0.00  0.00    +0.000 A 
ATOM     23  O   UNL     1       4.974   3.511  17.704  0.00  0.00    +0.000 OA
BRANCH  19  24
ATOM     24  C   UNL     1       5.875   4.937  15.917  0.00  0.00    +0.000 C 
ATOM     25  O   UNL     1       5.908   6.065  15.442  0.00  0.00    +0.000 OA
BRANCH  24  27
ATOM     26  C   UNL     1       6.340   3.995  13.819  0.00  0.00    +0.000 C 
ATOM     27  O   UNL     1       6.053   3.790  15.202  0.00  0.00    +0.000 OA
ENDBRANCH  24  27
ENDBRANCH  19  24
ENDBRANCH  17  22
ENDBRANCH   1  17
TORSDOF 5
ENDMDL
MODEL 7
REMARK VINA RESULT:      -8.0      1.084      1.145
REMARK  Name = 
REMARK  6 active torsions:
REMARK  status: ('A' for Active; 'I' for Inactive)
REMARK    1  A    between atoms: C_1  and  O_2
REMARK    2  A    between atoms: O_2  and  C_3
REMARK    3  A    between atoms: C_3  and  C_5
REMARK    4  A    between atoms: C_8  and  C_9
REMARK    5  A    between atoms: C_9  and  C_11
REMARK    6  A    between atoms: C_16  and  C_17
REMARK                            x       y       z     vdW  Elec       q    Type
REMARK                         _______ _______ _______ _____ _____    ______ ____
ROOT
ATOM      1  C   UNL     1       2.619   2.523  17.813  0.00  0.00    +0.000 C 
ATOM      2  C   UNL     1       1.415   2.231  18.719  0.00  0.00    +0.000 C 
ATOM      3  C   UNL     1       1.399   3.144  19.939  0.00  0.00    +0.000 C 
ATOM      4  C   UNL     1       1.588   4.594  19.574  0.00  0.00    +0.000 A 
ATOM      5  C   UNL     1       1.245   5.579  20.518  0.00  0.00    +0.000 A 
ATOM      6  C   UNL     1       1.395   6.953  20.258  0.00  0.00    +0.000 A 
ATOM      7  C   UNL     1       1.921   7.308  19.007  0.00  0.00    +0.000 A 
ATOM      8  C   UNL     1       2.274   6.340  18.059  0.00  0.00    +0.000 A 
ATOM      9  C   UNL     1       2.126   4.979  18.340  0.00  0.00    +0.000 A 
ATOM     10  C   UNL     1       2.490   3.962  17.281  0.00  0.00    +0.000 C 
ENDROOT
BRANCH   6  11
ATOM     11  C   UNL     1       0.973   7.971  21.252  0.00  0.00    +0.000 A 
ATOM     12  C   UNL     1       1.914   8.714  21.990  0.00  0.00    +0.000 A 
ATOM     13  C   UNL     1       1.519   9.609  22.989  0.00  0.00    +0.000 A 
ATOM     14  C   UNL     1       0.168   9.806  23.253  0.00  0.00    +0.000 A 
ATOM     15  C   UNL     1      -0.786   9.115  22.513  0.00  0.00    +0.000 A 
ATOM     16  C   UNL     1      -0.386   8.204  21.530  0.00  0.00    +0.000 A 
ENDBRANCH   6  11
BRANCH   1  17
ATOM     17  C   UNL     1       3.988   2.274  18.480  0.00  0.00    +0.000 C 
ATOM     18  O   UNL     1       4.240   1.204  19.036  0.00  0.00    +0.000 OA
BRANCH  17  22
ATOM     19  C   UNL     1       6.276   4.870  17.630  0.00  0.00    +0.000 A 
ATOM     20  C   UNL     1       6.184   5.021  18.996  0.00  0.00    +0.000 A 
ATOM     21  N   UNL     1       5.347   4.072  19.527  0.00  0.00    +0.000 NA
ATOM     22  C   UNL     1       4.924   3.391  18.476  0.00  0.00    +0.000 A 
ATOM     23  O   UNL     1       5.459   3.820  17.285  0.00  0.00    +0.000 OA
BRANCH  19  24
ATOM     24  C   UNL     1       7.037   5.593  16.648  0.00  0.00    +0.000 C 
ATOM     25  O   UNL     1       7.224   6.803  16.656  0.00  0.00    +0.000 OA
BRANCH  24  27
ATOM     26  C   UNL     1       6.921   4.842  14.428  0.00  0.00    +0.000 C 
ATOM     27  O   UNL     1       7.537   4.738  15.711  0.00  0.00    +0.000 OA
ENDBRANCH  24  27
ENDBRANCH  19  24
ENDBRANCH  17  22
ENDBRANCH   1  17
TORSDOF 5
ENDMDL
MODEL 8
REMARK VINA RESULT:      -8.0      1.388      2.121
REMARK  Name = 
REMARK  6 active torsions:
REMARK  status: ('A' for Active; 'I' for Inactive)
REMARK    1  A    between atoms: C_1  and  O_2
REMARK    2  A    between atoms: O_2  and  C_3
REMARK    3  A    between atoms: C_3  and  C_5
REMARK    4  A    between atoms: C_8  and  C_9
REMARK    5  A    between atoms: C_9  and  C_11
REMARK    6  A    between atoms: C_16  and  C_17
REMARK                            x       y       z     vdW  Elec       q    Type
REMARK                         _______ _______ _______ _____ _____    ______ ____
ROOT
ATOM      1  C   UNL     1       3.211   4.619  18.626  0.00  0.00    +0.000 C 
ATOM      2  C   UNL     1       2.261   4.310  19.789  0.00  0.00    +0.000 C 
ATOM      3  C   UNL     1       2.147   5.492  20.746  0.00  0.00    +0.000 C 
ATOM      4  C   UNL     1       1.879   6.789  20.028  0.00  0.00    +0.000 A 
ATOM      5  C   UNL     1       1.398   7.884  20.768  0.00  0.00    +0.000 A 
ATOM      6  C   UNL     1       1.127   9.130  20.175  0.00  0.00    +0.000 A 
ATOM      7  C   UNL     1       1.371   9.244  18.797  0.00  0.00    +0.000 A 
ATOM      8  C   UNL     1       1.855   8.166  18.048  0.00  0.00    +0.000 A 
ATOM      9  C   UNL     1       2.128   6.938  18.658  0.00  0.00    +0.000 A 
ATOM     10  C   UNL     1       2.622   5.786  17.812  0.00  0.00    +0.000 C 
ENDROOT
BRANCH   6  11
ATOM     11  C   UNL     1       0.569  10.252  20.970  0.00  0.00    +0.000 A 
ATOM     12  C   UNL     1      -0.295  10.024  22.059  0.00  0.00    +0.000 A 
ATOM     13  C   UNL     1      -0.891  11.082  22.754  0.00  0.00    +0.000 A 
ATOM     14  C   UNL     1      -0.611  12.396  22.395  0.00  0.00    +0.000 A 
ATOM     15  C   UNL     1       0.268  12.652  21.349  0.00  0.00    +0.000 A 
ATOM     16  C   UNL     1       0.845  11.591  20.643  0.00  0.00    +0.000 A 
ENDBRANCH   6  11
BRANCH   1  17
ATOM     17  C   UNL     1       4.669   4.891  19.053  0.00  0.00    +0.000 C 
ATOM     18  O   UNL     1       5.006   4.834  20.237  0.00  0.00    +0.000 OA
BRANCH  17  22
ATOM     19  C   UNL     1       6.575   5.197  16.058  0.00  0.00    +0.000 A 
ATOM     20  C   UNL     1       7.058   6.252  16.800  0.00  0.00    +0.000 A 
ATOM     21  N   UNL     1       6.451   6.288  18.030  0.00  0.00    +0.000 NA
ATOM     22  C   UNL     1       5.592   5.284  17.996  0.00  0.00    +0.000 A 
ATOM     23  O   UNL     1       5.621   4.569  16.824  0.00  0.00    +0.000 OA
BRANCH  19  24
ATOM     24  C   UNL     1       6.914   4.734  14.740  0.00  0.00    +0.000 C 
ATOM     25  O   UNL     1       6.363   3.808  14.158  0.00  0.00    +0.000 OA
BRANCH  24  27
ATOM     26  C   UNL     1       8.058   5.395  12.802  0.00  0.00    +0.000 C 
ATOM     27  O   UNL     1       7.928   5.482  14.220  0.00  0.00    +0.000 OA
ENDBRANCH  24  27
ENDBRANCH  19  24
ENDBRANCH  17  22
ENDBRANCH   1  17
TORSDOF 5
ENDMDL
MODEL 9
REMARK VINA RESULT:      -8.0      3.158      7.809
REMARK  Name = 
REMARK  6 active torsions:
REMARK  status: ('A' for Active; 'I' for Inactive)
REMARK    1  A    between atoms: C_1  and  O_2
REMARK    2  A    between atoms: O_2  and  C_3
REMARK    3  A    between atoms: C_3  and  C_5
REMARK    4  A    between atoms: C_8  and  C_9
REMARK    5  A    between atoms: C_9  and  C_11
REMARK    6  A    between atoms: C_16  and  C_17
REMARK                            x       y       z     vdW  Elec       q    Type
REMARK                         _______ _______ _______ _____ _____    ______ ____
ROOT
ATOM      1  C   UNL     1       3.317   4.088  20.192  0.00  0.00    +0.000 C 
ATOM      2  C   UNL     1       3.576   2.683  19.633  0.00  0.00    +0.000 C 
ATOM      3  C   UNL     1       3.654   2.693  18.110  0.00  0.00    +0.000 C 
ATOM      4  C   UNL     1       4.572   3.769  17.589  0.00  0.00    +0.000 A 
ATOM      5  C   UNL     1       5.027   3.684  16.261  0.00  0.00    +0.000 A 
ATOM      6  C   UNL     1       5.882   4.647  15.696  0.00  0.00    +0.000 A 
ATOM      7  C   UNL     1       6.258   5.721  16.519  0.00  0.00    +0.000 A 
ATOM      8  C   UNL     1       5.809   5.823  17.840  0.00  0.00    +0.000 A 
ATOM      9  C   UNL     1       4.952   4.860  18.380  0.00  0.00    +0.000 A 
ATOM     10  C   UNL     1       4.511   4.987  19.821  0.00  0.00    +0.000 C 
ENDROOT
BRANCH   6  11
ATOM     11  C   UNL     1       6.389   4.502  14.310  0.00  0.00    +0.000 A 
ATOM     12  C   UNL     1       7.470   5.272  13.836  0.00  0.00    +0.000 A 
ATOM     13  C   UNL     1       7.892   5.200  12.505  0.00  0.00    +0.000 A 
ATOM     14  C   UNL     1       7.261   4.331  11.621  0.00  0.00    +0.000 A 
ATOM     15  C   UNL     1       6.216   3.531  12.069  0.00  0.00    +0.000 A 
ATOM     16  C   UNL     1       5.783   3.622  13.396  0.00  0.00    +0.000 A 
ENDBRANCH   6  11
BRANCH   1  17
ATOM     17  C   UNL     1       1.972   4.705  19.756  0.00  0.00    +0.000 C 
ATOM     18  O   UNL     1       1.044   3.996  19.365  0.00  0.00    +0.000 OA
BRANCH  17  22
ATOM     19  C   UNL     1       1.517   8.141  20.584  0.00  0.00    +0.000 A 
ATOM     20  C   UNL     1       1.971   8.229  19.287  0.00  0.00    +0.000 A 
ATOM     21  N   UNL     1       2.185   6.976  18.770  0.00  0.00    +0.000 NA
ATOM     22  C   UNL     1       1.892   6.161  19.768  0.00  0.00    +0.000 A 
ATOM     23  O   UNL     1       1.467   6.805  20.904  0.00  0.00    +0.000 OA
BRANCH  19  24
ATOM     24  C   UNL     1       1.132   9.160  21.522  0.00  0.00    +0.000 C 
ATOM     25  O   UNL     1       1.686   9.373  22.593  0.00  0.00    +0.000 OA
BRANCH  24  27
ATOM     26  C   UNL     1      -0.188  11.087  21.743  0.00  0.00    +0.000 C 
ATOM     27  O   UNL     1       0.070   9.869  21.045  0.00  0.00    +0.000 OA
ENDBRANCH  24  27
ENDBRANCH  19  24
ENDBRANCH  17  22
ENDBRANCH   1  17
TORSDOF 5
ENDMDL
