MODEL 1
REMARK VINA RESULT:      -7.5      0.000      0.000
REMARK  Name = 
REMARK  5 active torsions:
REMARK  status: ('A' for Active; 'I' for Inactive)
REMARK    1  A    between atoms: C_1  and  C_2
REMARK    2  A    between atoms: C_2  and  O_3
REMARK    3  A    between atoms: O_3  and  C_4
REMARK    4  A    between atoms: C_4  and  C_6
REMARK    5  A    between atoms: C_11  and  N_12
REMARK                            x       y       z     vdW  Elec       q    Type
REMARK                         _______ _______ _______ _____ _____    ______ ____
ROOT
ATOM      1  C   UNL     1       5.408   4.621  16.128  0.00  0.00    +0.000 A 
ATOM      2  O   UNL     1       5.105   3.292  16.380  0.00  0.00    +0.000 OA
ATOM      3  C   UNL     1       4.216   3.259  17.413  0.00  0.00    +0.000 A 
ATOM      4  C   UNL     1       3.627   2.149  18.000  0.00  0.00    +0.000 A 
ATOM      5  C   UNL     1       2.765   2.423  19.078  0.00  0.00    +0.000 A 
ATOM      6  C   UNL     1       2.526   3.749  19.507  0.00  0.00    +0.000 A 
ATOM      7  C   UNL     1       3.091   4.862  18.865  0.00  0.00    +0.000 A 
ATOM      8  C   UNL     1       3.963   4.547  17.821  0.00  0.00    +0.000 A 
ATOM      9  C   UNL     1       4.696   5.422  17.001  0.00  0.00    +0.000 A 
ATOM     10  C   UNL     1       4.568   6.892  17.204  0.00  0.00    +0.000 C 
ATOM     11  C   UNL     1       3.232   7.216  17.939  0.00  0.00    +0.000 C 
ATOM     12  C   UNL     1       2.930   6.323  19.185  0.00  0.00    +0.000 C 
ENDROOT
BRANCH   6  13
ATOM     13  N   UNL     1       1.677   3.942  20.670  0.00  0.00    +0.000 N 
ATOM     14  O   UNL     1       0.482   4.198  20.461  0.00  0.00    +0.000 OA
ATOM     15  O   UNL     1       2.203   3.817  21.784  0.00  0.00    +0.000 OA
ENDBRANCH   6  13
BRANCH   1  16
ATOM     16  C   UNL     1       6.298   4.955  15.042  0.00  0.00    +0.000 C 
ATOM     17  O   UNL     1       7.400   5.474  15.166  0.00  0.00    +0.000 OA
BRANCH  16  18
ATOM     18  O   UNL     1       5.690   4.687  13.854  0.00  0.00    +0.000 OA
BRANCH  18  20
ATOM     19  C   UNL     1       5.296   3.251  11.989  0.00  0.00    +0.000 C 
ATOM     20  C   UNL     1       6.279   3.636  13.081  0.00  0.00    +0.000 C 
ENDBRANCH  18  20
ENDBRANCH  16  18
ENDBRANCH   1  16
TORSDOF 4
ENDMDL
MODEL 2
REMARK VINA RESULT:      -7.4      0.979      1.331
REMARK  Name = 
REMARK  5 active torsions:
REMARK  status: ('A' for Active; 'I' for Inactive)
REMARK    1  A    between atoms: C_1  and  C_2
REMARK    2  A    between atoms: C_2  and  O_3
REMARK    3  A    between atoms: O_3  and  C_4
REMARK    4  A    between atoms: C_4  and  C_6
REMARK    5  A    between atoms: C_11  and  N_12
REMARK                            x       y       z     vdW  Elec       q    Type
REMARK                         _______ _______ _______ _____ _____    ______ ____
ROOT
ATOM      1  C   UNL     1       4.931   4.976  16.497  0.00  0.00    +0.000 A 
ATOM      2  O   UNL     1       4.880   3.591  16.526  0.00  0.00    +0.000 OA
ATOM      3  C   UNL     1       4.119   3.228  17.597  0.00  0.00    +0.000 A 
ATOM      4  C   UNL     1       3.784   1.947  18.013  0.00  0.00    +0.000 A 
ATOM      5  C   UNL     1       3.004   1.878  19.183  0.00  0.00    +0.000 A 
ATOM      6  C   UNL     1       2.596   3.050  19.861  0.00  0.00    +0.000 A 
ATOM      7  C   UNL     1       2.900   4.337  19.393  0.00  0.00    +0.000 A 
ATOM      8  C   UNL     1       3.700   4.362  18.249  0.00  0.00    +0.000 A 
ATOM      9  C   UNL     1       4.191   5.479  17.551  0.00  0.00    +0.000 A 
ATOM     10  C   UNL     1       3.844   6.848  18.026  0.00  0.00    +0.000 C 
ATOM     11  C   UNL     1       2.556   6.798  18.903  0.00  0.00    +0.000 C 
ATOM     12  C   UNL     1       2.534   5.672  19.984  0.00  0.00    +0.000 C 
ENDROOT
BRANCH   6  13
ATOM     13  N   UNL     1       1.851   2.890  21.099  0.00  0.00    +0.000 N 
ATOM     14  O   UNL     1       2.509   2.792  22.145  0.00  0.00    +0.000 OA
ATOM     15  O   UNL     1       0.615   2.883  21.022  0.00  0.00    +0.000 OA
ENDBRANCH   6  13
BRANCH   1  16
ATOM     16  C   UNL     1       5.638   5.641  15.429  0.00  0.00    +0.000 C 
ATOM     17  O   UNL     1       5.275   6.671  14.876  0.00  0.00    +0.000 OA
BRANCH  16  18
ATOM     18  O   UNL     1       6.723   4.902  15.070  0.00  0.00    +0.000 OA
BRANCH  18  20
ATOM     19  C   UNL     1       6.158   3.650  13.118  0.00  0.00    +0.000 C 
ATOM     20  C   UNL     1       6.972   4.812  13.663  0.00  0.00    +0.000 C 
ENDBRANCH  18  20
ENDBRANCH  16  18
ENDBRANCH   1  16
TORSDOF 4
ENDMDL
MODEL 3
REMARK VINA RESULT:      -7.2      1.774      2.553
REMARK  Name = 
REMARK  5 active torsions:
REMARK  status: ('A' for Active; 'I' for Inactive)
REMARK    1  A    between atoms: C_1  and  C_2
REMARK    2  A    between atoms: C_2  and  O_3
REMARK    3  A    between atoms: O_3  and  C_4
REMARK    4  A    between atoms: C_4  and  C_6
REMARK    5  A    between atoms: C_11  and  N_12
REMARK                            x       y       z     vdW  Elec       q    Type
REMARK                         _______ _______ _______ _____ _____    ______ ____
ROOT
ATOM      1  C   UNL     1       4.866   5.466  16.813  0.00  0.00    +0.000 A 
ATOM      2  O   UNL     1       4.913   4.083  16.725  0.00  0.00    +0.000 OA
ATOM      3  C   UNL     1       4.154   3.578  17.738  0.00  0.00    +0.000 A 
ATOM      4  C   UNL     1       3.902   2.247  18.036  0.00  0.00    +0.000 A 
ATOM      5  C   UNL     1       3.101   2.024  19.172  0.00  0.00    +0.000 A 
ATOM      6  C   UNL     1       2.592   3.103  19.932  0.00  0.00    +0.000 A 
ATOM      7  C   UNL     1       2.815   4.443  19.582  0.00  0.00    +0.000 A 
ATOM      8  C   UNL     1       3.639   4.621  18.469  0.00  0.00    +0.000 A 
ATOM      9  C   UNL     1       4.065   5.825  17.882  0.00  0.00    +0.000 A 
ATOM     10  C   UNL     1       3.609   7.121  18.458  0.00  0.00    +0.000 C 
ATOM     11  C   UNL     1       2.307   6.908  19.288  0.00  0.00    +0.000 C 
ATOM     12  C   UNL     1       2.340   5.694  20.271  0.00  0.00    +0.000 C 
ENDROOT
BRANCH   6  13
ATOM     13  N   UNL     1       1.831   2.787  21.129  0.00  0.00    +0.000 N 
ATOM     14  O   UNL     1       2.473   2.586  22.171  0.00  0.00    +0.000 OA
ATOM     15  O   UNL     1       0.597   2.761  21.027  0.00  0.00    +0.000 OA
ENDBRANCH   6  13
BRANCH   1  16
ATOM     16  C   UNL     1       5.549   6.267  15.826  0.00  0.00    +0.000 C 
ATOM     17  O   UNL     1       5.004   6.911  14.938  0.00  0.00    +0.000 OA
BRANCH  16  18
ATOM     18  O   UNL     1       6.894   6.127  15.976  0.00  0.00    +0.000 OA
BRANCH  18  20
ATOM     19  C   UNL     1       7.637   7.840  17.463  0.00  0.00    +0.000 C 
ATOM     20  C   UNL     1       7.396   6.349  17.298  0.00  0.00    +0.000 C 
ENDBRANCH  18  20
ENDBRANCH  16  18
ENDBRANCH   1  16
TORSDOF 4
ENDMDL
MODEL 4
REMARK VINA RESULT:      -7.1      1.807      2.728
REMARK  Name = 
REMARK  5 active torsions:
REMARK  status: ('A' for Active; 'I' for Inactive)
REMARK    1  A    between atoms: C_1  and  C_2
REMARK    2  A    between atoms: C_2  and  O_3
REMARK    3  A    between atoms: O_3  and  C_4
REMARK    4  A    between atoms: C_4  and  C_6
REMARK    5  A    between atoms: C_11  and  N_12
REMARK                            x       y       z     vdW  Elec       q    Type
REMARK                         _______ _______ _______ _____ _____    ______ ____
ROOT
ATOM      1  C   UNL     1       5.597   5.292  16.826  0.00  0.00    +0.000 A 
ATOM      2  O   UNL     1       5.594   3.907  16.769  0.00  0.00    +0.000 OA
ATOM      3  C   UNL     1       4.479   3.468  17.420  0.00  0.00    +0.000 A 
ATOM      4  C   UNL     1       4.056   2.160  17.606  0.00  0.00    +0.000 A 
ATOM      5  C   UNL     1       2.872   2.009  18.351  0.00  0.00    +0.000 A 
ATOM      6  C   UNL     1       2.176   3.132  18.855  0.00  0.00    +0.000 A 
ATOM      7  C   UNL     1       2.592   4.450  18.609  0.00  0.00    +0.000 A 
ATOM      8  C   UNL     1       3.785   4.555  17.893  0.00  0.00    +0.000 A 
ATOM      9  C   UNL     1       4.472   5.720  17.507  0.00  0.00    +0.000 A 
ATOM     10  C   UNL     1       3.906   7.052  17.859  0.00  0.00    +0.000 C 
ATOM     11  C   UNL     1       2.376   6.928  18.130  0.00  0.00    +0.000 C 
ATOM     12  C   UNL     1       1.963   5.741  19.058  0.00  0.00    +0.000 C 
ENDROOT
BRANCH   6  13
ATOM     13  N   UNL     1       0.999   2.888  19.672  0.00  0.00    +0.000 N 
ATOM     14  O   UNL     1      -0.030   2.520  19.085  0.00  0.00    +0.000 OA
ATOM     15  O   UNL     1       1.114   3.045  20.895  0.00  0.00    +0.000 OA
ENDBRANCH   6  13
BRANCH   1  16
ATOM     16  C   UNL     1       6.649   6.030  16.170  0.00  0.00    +0.000 C 
ATOM     17  O   UNL     1       7.386   5.586  15.299  0.00  0.00    +0.000 OA
BRANCH  16  18
ATOM     18  O   UNL     1       6.755   7.267  16.727  0.00  0.00    +0.000 OA
BRANCH  18  20
ATOM     19  C   UNL     1       8.102   8.859  17.888  0.00  0.00    +0.000 C 
ATOM     20  C   UNL     1       7.723   7.392  17.775  0.00  0.00    +0.000 C 
ENDBRANCH  18  20
ENDBRANCH  16  18
ENDBRANCH   1  16
TORSDOF 4
ENDMDL
MODEL 5
REMARK VINA RESULT:      -7.1      1.554      2.528
REMARK  Name = 
REMARK  5 active torsions:
REMARK  status: ('A' for Active; 'I' for Inactive)
REMARK    1  A    between atoms: C_1  and  C_2
REMARK    2  A    between atoms: C_2  and  O_3
REMARK    3  A    between atoms: O_3  and  C_4
REMARK    4  A    between atoms: C_4  and  C_6
REMARK    5  A    between atoms: C_11  and  N_12
REMARK                            x       y       z     vdW  Elec       q    Type
REMARK                         _______ _______ _______ _____ _____    ______ ____
ROOT
ATOM      1  C   UNL     1       5.324   4.903  16.652  0.00  0.00    +0.000 A 
ATOM      2  O   UNL     1       5.227   3.520  16.677  0.00  0.00    +0.000 OA
ATOM      3  C   UNL     1       4.184   3.193  17.490  0.00  0.00    +0.000 A 
ATOM      4  C   UNL     1       3.708   1.928  17.805  0.00  0.00    +0.000 A 
ATOM      5  C   UNL     1       2.627   1.897  18.706  0.00  0.00    +0.000 A 
ATOM      6  C   UNL     1       2.076   3.090  19.230  0.00  0.00    +0.000 A 
ATOM      7  C   UNL     1       2.537   4.361  18.856  0.00  0.00    +0.000 A 
ATOM      8  C   UNL     1       3.629   4.348  17.986  0.00  0.00    +0.000 A 
ATOM      9  C   UNL     1       4.329   5.441  17.447  0.00  0.00    +0.000 A 
ATOM     10  C   UNL     1       3.900   6.826  17.792  0.00  0.00    +0.000 C 
ATOM     11  C   UNL     1       2.415   6.822  18.267  0.00  0.00    +0.000 C 
ATOM     12  C   UNL     1       2.056   5.714  19.308  0.00  0.00    +0.000 C 
ENDROOT
BRANCH   6  13
ATOM     13  N   UNL     1       1.006   2.969  20.206  0.00  0.00    +0.000 N 
ATOM     14  O   UNL     1       1.330   2.982  21.404  0.00  0.00    +0.000 OA
ATOM     15  O   UNL     1      -0.151   2.881  19.774  0.00  0.00    +0.000 OA
ENDBRANCH   6  13
BRANCH   1  16
ATOM     16  C   UNL     1       6.323   5.533  15.823  0.00  0.00    +0.000 C 
ATOM     17  O   UNL     1       6.183   5.817  14.640  0.00  0.00    +0.000 OA
BRANCH  16  18
ATOM     18  O   UNL     1       7.475   5.683  16.531  0.00  0.00    +0.000 OA
BRANCH  18  20
ATOM     19  C   UNL     1       7.875   6.391  18.775  0.00  0.00    +0.000 C 
ATOM     20  C   UNL     1       7.542   6.845  17.364  0.00  0.00    +0.000 C 
ENDBRANCH  18  20
ENDBRANCH  16  18
ENDBRANCH   1  16
TORSDOF 4
ENDMDL
MODEL 6
REMARK VINA RESULT:      -7.1      1.987      2.870
REMARK  Name = 
REMARK  5 active torsions:
REMARK  status: ('A' for Active; 'I' for Inactive)
REMARK    1  A    between atoms: C_1  and  C_2
REMARK    2  A    between atoms: C_2  and  O_3
REMARK    3  A    between atoms: O_3  and  C_4
REMARK    4  A    between atoms: C_4  and  C_6
REMARK    5  A    between atoms: C_11  and  N_12
REMARK                            x       y       z     vdW  Elec       q    Type
REMARK                         _______ _______ _______ _____ _____    ______ ____
ROOT
ATOM      1  C   UNL     1       5.898   5.567  17.341  0.00  0.00    +0.000 A 
ATOM      2  O   UNL     1       6.116   4.260  17.746  0.00  0.00    +0.000 OA
ATOM      3  C   UNL     1       5.082   3.901  18.558  0.00  0.00    +0.000 A 
ATOM      4  C   UNL     1       4.871   2.682  19.187  0.00  0.00    +0.000 A 
ATOM      5  C   UNL     1       3.722   2.612  19.997  0.00  0.00    +0.000 A 
ATOM      6  C   UNL     1       2.853   3.720  20.134  0.00  0.00    +0.000 A 
ATOM      7  C   UNL     1       3.056   4.926  19.445  0.00  0.00    +0.000 A 
ATOM      8  C   UNL     1       4.221   4.965  18.678  0.00  0.00    +0.000 A 
ATOM      9  C   UNL     1       4.716   6.023  17.894  0.00  0.00    +0.000 A 
ATOM     10  C   UNL     1       3.944   7.294  17.812  0.00  0.00    +0.000 C 
ATOM     11  C   UNL     1       2.452   7.038  18.183  0.00  0.00    +0.000 C 
ATOM     12  C   UNL     1       2.228   6.182  19.471  0.00  0.00    +0.000 C 
ENDROOT
BRANCH   6  13
ATOM     13  N   UNL     1       1.726   3.588  21.042  0.00  0.00    +0.000 N 
ATOM     14  O   UNL     1       0.593   3.734  20.560  0.00  0.00    +0.000 OA
ATOM     15  O   UNL     1       1.978   3.321  22.224  0.00  0.00    +0.000 OA
ENDBRANCH   6  13
BRANCH   1  16
ATOM     16  C   UNL     1       6.823   6.193  16.426  0.00  0.00    +0.000 C 
ATOM     17  O   UNL     1       7.380   5.633  15.491  0.00  0.00    +0.000 OA
BRANCH  16  18
ATOM     18  O   UNL     1       7.049   7.478  16.815  0.00  0.00    +0.000 OA
BRANCH  18  20
ATOM     19  C   UNL     1       8.267   9.114  18.055  0.00  0.00    +0.000 C 
ATOM     20  C   UNL     1       7.920   7.640  17.940  0.00  0.00    +0.000 C 
ENDBRANCH  18  20
ENDBRANCH  16  18
ENDBRANCH   1  16
TORSDOF 4
ENDMDL
MODEL 7
REMARK VINA RESULT:      -7.1      1.218      1.385
REMARK  Name = 
REMARK  5 active torsions:
REMARK  status: ('A' for Active; 'I' for Inactive)
REMARK    1  A    between atoms: C_1  and  C_2
REMARK    2  A    between atoms: C_2  and  O_3
REMARK    3  A    between atoms: O_3  and  C_4
REMARK    4  A    between atoms: C_4  and  C_6
REMARK    5  A    between atoms: C_11  and  N_12
REMARK                            x       y       z     vdW  Elec       q    Type
REMARK                         _______ _______ _______ _____ _____    ______ ____
ROOT
ATOM      1  C   UNL     1       5.824   5.539  17.269  0.00  0.00    +0.000 A 
ATOM      2  O   UNL     1       6.067   4.238  17.680  0.00  0.00    +0.000 OA
ATOM      3  C   UNL     1       5.063   3.878  18.529  0.00  0.00    +0.000 A 
ATOM      4  C   UNL     1       4.884   2.665  19.177  0.00  0.00    +0.000 A 
ATOM      5  C   UNL     1       3.763   2.593  20.026  0.00  0.00    +0.000 A 
ATOM      6  C   UNL     1       2.890   3.695  20.180  0.00  0.00    +0.000 A 
ATOM      7  C   UNL     1       3.059   4.896  19.474  0.00  0.00    +0.000 A 
ATOM      8  C   UNL     1       4.198   4.937  18.667  0.00  0.00    +0.000 A 
ATOM      9  C   UNL     1       4.657   5.991  17.858  0.00  0.00    +0.000 A 
ATOM     10  C   UNL     1       3.872   7.255  17.789  0.00  0.00    +0.000 C 
ATOM     11  C   UNL     1       2.395   6.990  18.212  0.00  0.00    +0.000 C 
ATOM     12  C   UNL     1       2.222   6.145  19.515  0.00  0.00    +0.000 C 
ENDROOT
BRANCH   6  13
ATOM     13  N   UNL     1       1.795   3.563  21.126  0.00  0.00    +0.000 N 
ATOM     14  O   UNL     1       0.644   3.625  20.670  0.00  0.00    +0.000 OA
ATOM     15  O   UNL     1       2.090   3.378  22.315  0.00  0.00    +0.000 OA
ENDBRANCH   6  13
BRANCH   1  16
ATOM     16  C   UNL     1       6.712   6.164  16.319  0.00  0.00    +0.000 C 
ATOM     17  O   UNL     1       7.637   6.915  16.604  0.00  0.00    +0.000 OA
BRANCH  16  18
ATOM     18  O   UNL     1       6.312   5.863  15.053  0.00  0.00    +0.000 OA
BRANCH  18  20
ATOM     19  C   UNL     1       6.026   3.887  13.746  0.00  0.00    +0.000 C 
ATOM     20  C   UNL     1       7.035   4.808  14.410  0.00  0.00    +0.000 C 
ENDBRANCH  18  20
ENDBRANCH  16  18
ENDBRANCH   1  16
TORSDOF 4
ENDMDL
MODEL 8
REMARK VINA RESULT:      -6.9      3.214      5.526
REMARK  Name = 
REMARK  5 active torsions:
REMARK  status: ('A' for Active; 'I' for Inactive)
REMARK    1  A    between atoms: C_1  and  C_2
REMARK    2  A    between atoms: C_2  and  O_3
REMARK    3  A    between atoms: O_3  and  C_4
REMARK    4  A    between atoms: C_4  and  C_6
REMARK    5  A    between atoms: C_11  and  N_12
REMARK                            x       y       z     vdW  Elec       q    Type
REMARK                         _______ _______ _______ _____ _____    ______ ____
ROOT
ATOM      1  C   UNL     1       2.310   7.615  18.727  0.00  0.00    +0.000 A 
ATOM      2  O   UNL     1       1.705   7.009  19.817  0.00  0.00    +0.000 OA
ATOM      3  C   UNL     1       2.244   5.764  19.950  0.00  0.00    +0.000 A 
ATOM      4  C   UNL     1       1.952   4.803  20.907  0.00  0.00    +0.000 A 
ATOM      5  C   UNL     1       2.650   3.588  20.775  0.00  0.00    +0.000 A 
ATOM      6  C   UNL     1       3.587   3.391  19.734  0.00  0.00    +0.000 A 
ATOM      7  C   UNL     1       3.907   4.396  18.808  0.00  0.00    +0.000 A 
ATOM      8  C   UNL     1       3.172   5.574  18.954  0.00  0.00    +0.000 A 
ATOM      9  C   UNL     1       3.239   6.747  18.183  0.00  0.00    +0.000 A 
ATOM     10  C   UNL     1       4.207   6.824  17.053  0.00  0.00    +0.000 C 
ATOM     11  C   UNL     1       5.352   5.786  17.259  0.00  0.00    +0.000 C 
ATOM     12  C   UNL     1       4.880   4.352  17.661  0.00  0.00    +0.000 C 
ENDROOT
BRANCH   6  13
ATOM     13  N   UNL     1       4.214   2.085  19.626  0.00  0.00    +0.000 N 
ATOM     14  O   UNL     1       5.113   1.822  20.440  0.00  0.00    +0.000 OA
ATOM     15  O   UNL     1       3.794   1.323  18.746  0.00  0.00    +0.000 OA
ENDBRANCH   6  13
BRANCH   1  16
ATOM     16  C   UNL     1       1.960   8.972  18.381  0.00  0.00    +0.000 C 
ATOM     17  O   UNL     1       2.299   9.549  17.355  0.00  0.00    +0.000 OA
BRANCH  16  18
ATOM     18  O   UNL     1       1.272   9.542  19.407  0.00  0.00    +0.000 OA
BRANCH  18  20
ATOM     19  C   UNL     1      -0.955  10.320  19.041  0.00  0.00    +0.000 C 
ATOM     20  C   UNL     1       0.513  10.708  19.070  0.00  0.00    +0.000 C 
ENDBRANCH  18  20
ENDBRANCH  16  18
ENDBRANCH   1  16
TORSDOF 4
ENDMDL
MODEL 9
REMARK VINA RESULT:      -6.8      3.180      6.227
REMARK  Name = 
REMARK  5 active torsions:
REMARK  status: ('A' for Active; 'I' for Inactive)
REMARK    1  A    between atoms: C_1  and  C_2
REMARK    2  A    between atoms: C_2  and  O_3
REMARK    3  A    between atoms: O_3  and  C_4
REMARK    4  A    between atoms: C_4  and  C_6
REMARK    5  A    between atoms: C_11  and  N_12
REMARK                            x       y       z     vdW  Elec       q    Type
REMARK                         _______ _______ _______ _____ _____    ______ ____
ROOT
ATOM      1  C   UNL     1       1.913   7.187  20.020  0.00  0.00    +0.000 A 
ATOM      2  O   UNL     1       1.486   6.294  20.990  0.00  0.00    +0.000 OA
ATOM      3  C   UNL     1       2.088   5.096  20.744  0.00  0.00    +0.000 A 
ATOM      4  C   UNL     1       1.967   3.915  21.460  0.00  0.00    +0.000 A 
ATOM      5  C   UNL     1       2.689   2.821  20.946  0.00  0.00    +0.000 A 
ATOM      6  C   UNL     1       3.483   2.949  19.783  0.00  0.00    +0.000 A 
ATOM      7  C   UNL     1       3.634   4.168  19.104  0.00  0.00    +0.000 A 
ATOM      8  C   UNL     1       2.879   5.219  19.627  0.00  0.00    +0.000 A 
ATOM      9  C   UNL     1       2.794   6.545  19.169  0.00  0.00    +0.000 A 
ATOM     10  C   UNL     1       3.595   6.962  17.984  0.00  0.00    +0.000 C 
ATOM     11  C   UNL     1       4.798   5.990  17.785  0.00  0.00    +0.000 C 
ATOM     12  C   UNL     1       4.443   4.472  17.872  0.00  0.00    +0.000 C 
ENDROOT
BRANCH   6  13
ATOM     13  N   UNL     1       4.142   1.756  19.279  0.00  0.00    +0.000 N 
ATOM     14  O   UNL     1       5.102   1.322  19.933  0.00  0.00    +0.000 OA
ATOM     15  O   UNL     1       3.685   1.248  18.246  0.00  0.00    +0.000 OA
ENDBRANCH   6  13
BRANCH   1  16
ATOM     16  C   UNL     1       1.466   8.558  20.067  0.00  0.00    +0.000 C 
ATOM     17  O   UNL     1       1.408   9.316  19.106  0.00  0.00    +0.000 OA
BRANCH  16  18
ATOM     18  O   UNL     1       1.204   8.909  21.355  0.00  0.00    +0.000 OA
BRANCH  18  20
ATOM     19  C   UNL     1      -0.232   9.709  23.086  0.00  0.00    +0.000 C 
ATOM     20  C   UNL     1      -0.154   9.270  21.634  0.00  0.00    +0.000 C 
ENDBRANCH  18  20
ENDBRANCH  16  18
ENDBRANCH   1  16
TORSDOF 4
ENDMDL
