MODEL 1
REMARK VINA RESULT:      -7.6      0.000      0.000
REMARK  Name = 
REMARK  7 active torsions:
REMARK  status: ('A' for Active; 'I' for Inactive)
REMARK    1  A    between atoms: C_1  and  O_2
REMARK    2  A    between atoms: O_2  and  C_3
REMARK    3  A    between atoms: C_8  and  C_9
REMARK    4  A    between atoms: C_14  and  N_15
REMARK    5  A    between atoms: N_15  and  C_16
REMARK    6  A    between atoms: C_16  and  C_17
REMARK    7  A    between atoms: C_20  and  C_21
REMARK                            x       y       z     vdW  Elec       q    Type
REMARK                         _______ _______ _______ _____ _____    ______ ____
ROOT
ATOM      1  C   UNL     1       3.630   3.614  17.690  0.00  0.00    +0.000 A 
ATOM      2  C   UNL     1       3.450   2.259  17.971  0.00  0.00    +0.000 A 
ATOM      3  N   UNL     1       2.381   1.723  18.601  0.00  0.00    +0.000 NA
ATOM      4  C   UNL     1       1.456   2.598  18.994  0.00  0.00    +0.000 A 
ATOM      5  N   UNL     1       1.524   3.925  18.856  0.00  0.00    +0.000 NA
ATOM      6  C   UNL     1       2.590   4.425  18.192  0.00  0.00    +0.000 A 
ENDROOT
BRANCH   1  12
ATOM      7  C   UNL     1       6.050   4.510  17.579  0.00  0.00    +0.000 A 
ATOM      8  C   UNL     1       7.197   4.781  16.808  0.00  0.00    +0.000 A 
ATOM      9  C   UNL     1       7.153   4.756  15.418  0.00  0.00    +0.000 A 
ATOM     10  C   UNL     1       5.947   4.497  14.787  0.00  0.00    +0.000 A 
ATOM     11  C   UNL     1       4.809   4.211  15.548  0.00  0.00    +0.000 A 
ATOM     12  C   UNL     1       4.834   4.121  16.955  0.00  0.00    +0.000 A 
BRANCH   7  14
ATOM     13  C   UNL     1       7.082   5.504  19.448  0.00  0.00    +0.000 C 
ATOM     14  O   UNL     1       6.118   4.570  18.950  0.00  0.00    +0.000 OA
ENDBRANCH   7  14
ENDBRANCH   1  12
BRANCH   6  15
ATOM     15  N   UNL     1       2.628   5.814  18.022  0.00  0.00    +0.000 N 
ATOM     16  H   UNL     1       1.835   6.145  17.477  0.00  0.00    +0.000 HD
BRANCH  15  17
ATOM     17  C   UNL     1       2.958   6.684  19.146  0.00  0.00    +0.000 C 
BRANCH  17  18
ATOM     18  C   UNL     1       2.081   7.905  19.272  0.00  0.00    +0.000 A 
ATOM     19  C   UNL     1       1.833   8.707  18.164  0.00  0.00    +0.000 A 
ATOM     20  N   UNL     1       1.020   9.792  18.200  0.00  0.00    +0.000 NA
ATOM     21  C   UNL     1       0.455  10.063  19.398  0.00  0.00    +0.000 A 
ATOM     22  C   UNL     1      -0.410  11.279  19.502  0.00  0.00    +0.000 C 
ATOM     23  C   UNL     1       0.687   9.254  20.506  0.00  0.00    +0.000 A 
ATOM     24  N   UNL     1       1.499   8.170  20.475  0.00  0.00    +0.000 NA
ENDBRANCH  17  18
ENDBRANCH  15  17
ENDBRANCH   6  15
TORSDOF 5
ENDMDL
MODEL 2
REMARK VINA RESULT:      -7.6      0.733      1.178
REMARK  Name = 
REMARK  7 active torsions:
REMARK  status: ('A' for Active; 'I' for Inactive)
REMARK    1  A    between atoms: C_1  and  O_2
REMARK    2  A    between atoms: O_2  and  C_3
REMARK    3  A    between atoms: C_8  and  C_9
REMARK    4  A    between atoms: C_14  and  N_15
REMARK    5  A    between atoms: N_15  and  C_16
REMARK    6  A    between atoms: C_16  and  C_17
REMARK    7  A    between atoms: C_20  and  C_21
REMARK                            x       y       z     vdW  Elec       q    Type
REMARK                         _______ _______ _______ _____ _____    ______ ____
ROOT
ATOM      1  C   UNL     1       3.538   4.018  17.582  0.00  0.00    +0.000 A 
ATOM      2  C   UNL     1       2.897   2.789  17.420  0.00  0.00    +0.000 A 
ATOM      3  N   UNL     1       1.739   2.423  18.013  0.00  0.00    +0.000 NA
ATOM      4  C   UNL     1       1.211   3.329  18.835  0.00  0.00    +0.000 A 
ATOM      5  N   UNL     1       1.743   4.515  19.140  0.00  0.00    +0.000 NA
ATOM      6  C   UNL     1       2.884   4.864  18.503  0.00  0.00    +0.000 A 
ENDROOT
BRANCH   1  12
ATOM      7  C   UNL     1       6.078   4.470  17.479  0.00  0.00    +0.000 A 
ATOM      8  C   UNL     1       7.248   4.589  16.702  0.00  0.00    +0.000 A 
ATOM      9  C   UNL     1       7.184   4.682  15.316  0.00  0.00    +0.000 A 
ATOM     10  C   UNL     1       5.945   4.694  14.697  0.00  0.00    +0.000 A 
ATOM     11  C   UNL     1       4.783   4.559  15.463  0.00  0.00    +0.000 A 
ATOM     12  C   UNL     1       4.806   4.356  16.858  0.00  0.00    +0.000 A 
BRANCH   7  14
ATOM     13  C   UNL     1       6.923   5.478  19.433  0.00  0.00    +0.000 C 
ATOM     14  O   UNL     1       6.171   4.409  18.849  0.00  0.00    +0.000 OA
ENDBRANCH   7  14
ENDBRANCH   1  12
BRANCH   6  15
ATOM     15  N   UNL     1       3.410   6.126  18.805  0.00  0.00    +0.000 N 
ATOM     16  H   UNL     1       4.399   6.072  19.037  0.00  0.00    +0.000 HD
BRANCH  15  17
ATOM     17  C   UNL     1       3.074   7.281  17.980  0.00  0.00    +0.000 C 
BRANCH  17  18
ATOM     18  C   UNL     1       2.102   8.244  18.615  0.00  0.00    +0.000 A 
ATOM     19  C   UNL     1       1.771   8.120  19.959  0.00  0.00    +0.000 A 
ATOM     20  N   UNL     1       0.939   8.978  20.601  0.00  0.00    +0.000 NA
ATOM     21  C   UNL     1       0.431   9.979  19.847  0.00  0.00    +0.000 A 
ATOM     22  C   UNL     1      -0.531  10.922  20.495  0.00  0.00    +0.000 C 
ATOM     23  C   UNL     1       0.772  10.117  18.505  0.00  0.00    +0.000 A 
ATOM     24  N   UNL     1       1.602   9.261  17.860  0.00  0.00    +0.000 NA
ENDBRANCH  17  18
ENDBRANCH  15  17
ENDBRANCH   6  15
TORSDOF 5
ENDMDL
MODEL 3
REMARK VINA RESULT:      -7.5      1.249      1.290
REMARK  Name = 
REMARK  7 active torsions:
REMARK  status: ('A' for Active; 'I' for Inactive)
REMARK    1  A    between atoms: C_1  and  O_2
REMARK    2  A    between atoms: O_2  and  C_3
REMARK    3  A    between atoms: C_8  and  C_9
REMARK    4  A    between atoms: C_14  and  N_15
REMARK    5  A    between atoms: N_15  and  C_16
REMARK    6  A    between atoms: C_16  and  C_17
REMARK    7  A    between atoms: C_20  and  C_21
REMARK                            x       y       z     vdW  Elec       q    Type
REMARK                         _______ _______ _______ _____ _____    ______ ____
ROOT
ATOM      1  C   UNL     1       3.951   3.995  19.175  0.00  0.00    +0.000 A 
ATOM      2  C   UNL     1       3.662   2.708  19.630  0.00  0.00    +0.000 A 
ATOM      3  N   UNL     1       2.784   2.400  20.610  0.00  0.00    +0.000 NA
ATOM      4  C   UNL     1       2.185   3.442  21.184  0.00  0.00    +0.000 A 
ATOM      5  N   UNL     1       2.410   4.728  20.901  0.00  0.00    +0.000 NA
ATOM      6  C   UNL     1       3.268   5.000  19.893  0.00  0.00    +0.000 A 
ENDROOT
BRANCH   1  12
ATOM      7  C   UNL     1       6.242   4.722  18.232  0.00  0.00    +0.000 A 
ATOM      8  C   UNL     1       7.149   4.738  17.154  0.00  0.00    +0.000 A 
ATOM      9  C   UNL     1       6.750   4.367  15.874  0.00  0.00    +0.000 A 
ATOM     10  C   UNL     1       5.429   4.014  15.655  0.00  0.00    +0.000 A 
ATOM     11  C   UNL     1       4.530   3.981  16.725  0.00  0.00    +0.000 A 
ATOM     12  C   UNL     1       4.916   4.246  18.056  0.00  0.00    +0.000 A 
BRANCH   7  14
ATOM     13  C   UNL     1       7.939   5.760  19.494  0.00  0.00    +0.000 C 
ATOM     14  O   UNL     1       6.658   5.120  19.480  0.00  0.00    +0.000 OA
ENDBRANCH   7  14
ENDBRANCH   1  12
BRANCH   6  15
ATOM     15  N   UNL     1       3.465   6.351  19.584  0.00  0.00    +0.000 N 
ATOM     16  H   UNL     1       4.455   6.578  19.519  0.00  0.00    +0.000 HD
BRANCH  15  17
ATOM     17  C   UNL     1       2.658   6.997  18.555  0.00  0.00    +0.000 C 
BRANCH  17  18
ATOM     18  C   UNL     1       1.928   8.234  19.016  0.00  0.00    +0.000 A 
ATOM     19  C   UNL     1       1.637   9.252  18.115  0.00  0.00    +0.000 A 
ATOM     20  N   UNL     1       0.947  10.369  18.454  0.00  0.00    +0.000 NA
ATOM     21  C   UNL     1       0.554  10.447  19.746  0.00  0.00    +0.000 A 
ATOM     22  C   UNL     1      -0.167  11.682  20.183  0.00  0.00    +0.000 C 
ATOM     23  C   UNL     1       0.828   9.424  20.648  0.00  0.00    +0.000 A 
ATOM     24  N   UNL     1       1.518   8.306  20.313  0.00  0.00    +0.000 NA
ENDBRANCH  17  18
ENDBRANCH  15  17
ENDBRANCH   6  15
TORSDOF 5
ENDMDL
MODEL 4
REMARK VINA RESULT:      -7.5      1.095      1.418
REMARK  Name = 
REMARK  7 active torsions:
REMARK  status: ('A' for Active; 'I' for Inactive)
REMARK    1  A    between atoms: C_1  and  O_2
REMARK    2  A    between atoms: O_2  and  C_3
REMARK    3  A    between atoms: C_8  and  C_9
REMARK    4  A    between atoms: C_14  and  N_15
REMARK    5  A    between atoms: N_15  and  C_16
REMARK    6  A    between atoms: C_16  and  C_17
REMARK    7  A    between atoms: C_20  and  C_21
REMARK                            x       y       z     vdW  Elec       q    Type
REMARK                         _______ _______ _______ _____ _____    ______ ____
ROOT
ATOM      1  C   UNL     1       3.983   3.832  18.791  0.00  0.00    +0.000 A 
ATOM      2  C   UNL     1       3.604   2.517  19.062  0.00  0.00    +0.000 A 
ATOM      3  N   UNL     1       2.675   2.139  19.968  0.00  0.00    +0.000 NA
ATOM      4  C   UNL     1       2.117   3.133  20.658  0.00  0.00    +0.000 A 
ATOM      5  N   UNL     1       2.427   4.428  20.556  0.00  0.00    +0.000 NA
ATOM      6  C   UNL     1       3.335   4.775  19.617  0.00  0.00    +0.000 A 
ENDROOT
BRANCH   1  12
ATOM      7  C   UNL     1       6.325   4.600  18.019  0.00  0.00    +0.000 A 
ATOM      8  C   UNL     1       7.279   4.698  16.987  0.00  0.00    +0.000 A 
ATOM      9  C   UNL     1       6.933   4.455  15.662  0.00  0.00    +0.000 A 
ATOM     10  C   UNL     1       5.617   4.147  15.355  0.00  0.00    +0.000 A 
ATOM     11  C   UNL     1       4.671   4.033  16.378  0.00  0.00    +0.000 A 
ATOM     12  C   UNL     1       5.001   4.167  17.743  0.00  0.00    +0.000 A 
BRANCH   7  14
ATOM     13  C   UNL     1       7.814   5.755  19.433  0.00  0.00    +0.000 C 
ATOM     14  O   UNL     1       6.691   4.874  19.316  0.00  0.00    +0.000 OA
ENDBRANCH   7  14
ENDBRANCH   1  12
BRANCH   6  15
ATOM     15  N   UNL     1       3.622   6.140  19.497  0.00  0.00    +0.000 N 
ATOM     16  H   UNL     1       4.612   6.328  19.642  0.00  0.00    +0.000 HD
BRANCH  15  17
ATOM     17  C   UNL     1       3.042   6.922  18.410  0.00  0.00    +0.000 C 
BRANCH  17  18
ATOM     18  C   UNL     1       2.108   8.020  18.857  0.00  0.00    +0.000 A 
ATOM     19  C   UNL     1       1.702   8.096  20.184  0.00  0.00    +0.000 A 
ATOM     20  N   UNL     1       0.900   9.082  20.659  0.00  0.00    +0.000 NA
ATOM     21  C   UNL     1       0.502  10.003  19.753  0.00  0.00    +0.000 A 
ATOM     22  C   UNL     1      -0.424  11.082  20.216  0.00  0.00    +0.000 C 
ATOM     23  C   UNL     1       0.919   9.940  18.427  0.00  0.00    +0.000 A 
ATOM     24  N   UNL     1       1.719   8.957  17.948  0.00  0.00    +0.000 NA
ENDBRANCH  17  18
ENDBRANCH  15  17
ENDBRANCH   6  15
TORSDOF 5
ENDMDL
MODEL 5
REMARK VINA RESULT:      -7.2      1.481      2.569
REMARK  Name = 
REMARK  7 active torsions:
REMARK  status: ('A' for Active; 'I' for Inactive)
REMARK    1  A    between atoms: C_1  and  O_2
REMARK    2  A    between atoms: O_2  and  C_3
REMARK    3  A    between atoms: C_8  and  C_9
REMARK    4  A    between atoms: C_14  and  N_15
REMARK    5  A    between atoms: N_15  and  C_16
REMARK    6  A    between atoms: C_16  and  C_17
REMARK    7  A    between atoms: C_20  and  C_21
REMARK                            x       y       z     vdW  Elec       q    Type
REMARK                         _______ _______ _______ _____ _____    ______ ____
ROOT
ATOM      1  C   UNL     1       4.093   4.498  18.321  0.00  0.00    +0.000 A 
ATOM      2  C   UNL     1       3.890   3.231  17.772  0.00  0.00    +0.000 A 
ATOM      3  N   UNL     1       2.719   2.557  17.766  0.00  0.00    +0.000 NA
ATOM      4  C   UNL     1       1.703   3.176  18.368  0.00  0.00    +0.000 A 
ATOM      5  N   UNL     1       1.765   4.354  18.993  0.00  0.00    +0.000 NA
ATOM      6  C   UNL     1       2.942   5.018  18.950  0.00  0.00    +0.000 A 
ENDROOT
BRANCH   1  12
ATOM      7  C   UNL     1       5.835   6.029  17.186  0.00  0.00    +0.000 A 
ATOM      8  C   UNL     1       7.009   6.801  17.293  0.00  0.00    +0.000 A 
ATOM      9  C   UNL     1       7.835   6.702  18.407  0.00  0.00    +0.000 A 
ATOM     10  C   UNL     1       7.513   5.800  19.408  0.00  0.00    +0.000 A 
ATOM     11  C   UNL     1       6.341   5.044  19.313  0.00  0.00    +0.000 A 
ATOM     12  C   UNL     1       5.421   5.190  18.254  0.00  0.00    +0.000 A 
BRANCH   7  14
ATOM     13  C   UNL     1       5.540   5.377  14.942  0.00  0.00    +0.000 C 
ATOM     14  O   UNL     1       5.053   6.128  16.060  0.00  0.00    +0.000 OA
ENDBRANCH   7  14
ENDBRANCH   1  12
BRANCH   6  15
ATOM     15  N   UNL     1       2.980   6.269  19.578  0.00  0.00    +0.000 N 
ATOM     16  H   UNL     1       3.870   6.424  20.046  0.00  0.00    +0.000 HD
BRANCH  15  17
ATOM     17  C   UNL     1       2.476   7.453  18.891  0.00  0.00    +0.000 C 
BRANCH  17  18
ATOM     18  C   UNL     1       1.657   8.378  19.756  0.00  0.00    +0.000 A 
ATOM     19  C   UNL     1       1.418   8.063  21.088  0.00  0.00    +0.000 A 
ATOM     20  N   UNL     1       0.728   8.872  21.930  0.00  0.00    +0.000 NA
ATOM     21  C   UNL     1       0.268  10.025  21.392  0.00  0.00    +0.000 A 
ATOM     22  C   UNL     1      -0.542  10.928  22.266  0.00  0.00    +0.000 C 
ATOM     23  C   UNL     1       0.519  10.353  20.063  0.00  0.00    +0.000 A 
ATOM     24  N   UNL     1       1.207   9.547  19.219  0.00  0.00    +0.000 NA
ENDBRANCH  17  18
ENDBRANCH  15  17
ENDBRANCH   6  15
TORSDOF 5
ENDMDL
MODEL 6
REMARK VINA RESULT:      -7.2      1.511      2.419
REMARK  Name = 
REMARK  7 active torsions:
REMARK  status: ('A' for Active; 'I' for Inactive)
REMARK    1  A    between atoms: C_1  and  O_2
REMARK    2  A    between atoms: O_2  and  C_3
REMARK    3  A    between atoms: C_8  and  C_9
REMARK    4  A    between atoms: C_14  and  N_15
REMARK    5  A    between atoms: N_15  and  C_16
REMARK    6  A    between atoms: C_16  and  C_17
REMARK    7  A    between atoms: C_20  and  C_21
REMARK                            x       y       z     vdW  Elec       q    Type
REMARK                         _______ _______ _______ _____ _____    ______ ____
ROOT
ATOM      1  C   UNL     1       4.106   4.563  18.349  0.00  0.00    +0.000 A 
ATOM      2  C   UNL     1       3.892   3.292  17.814  0.00  0.00    +0.000 A 
ATOM      3  N   UNL     1       2.716   2.627  17.818  0.00  0.00    +0.000 NA
ATOM      4  C   UNL     1       1.706   3.260  18.415  0.00  0.00    +0.000 A 
ATOM      5  N   UNL     1       1.778   4.444  19.027  0.00  0.00    +0.000 NA
ATOM      6  C   UNL     1       2.960   5.098  18.976  0.00  0.00    +0.000 A 
ENDROOT
BRANCH   1  12
ATOM      7  C   UNL     1       5.858   6.068  17.194  0.00  0.00    +0.000 A 
ATOM      8  C   UNL     1       7.038   6.832  17.290  0.00  0.00    +0.000 A 
ATOM      9  C   UNL     1       7.865   6.740  18.404  0.00  0.00    +0.000 A 
ATOM     10  C   UNL     1       7.537   5.852  19.416  0.00  0.00    +0.000 A 
ATOM     11  C   UNL     1       6.359   5.104  19.332  0.00  0.00    +0.000 A 
ATOM     12  C   UNL     1       5.439   5.244  18.272  0.00  0.00    +0.000 A 
BRANCH   7  14
ATOM     13  C   UNL     1       5.555   5.393  14.957  0.00  0.00    +0.000 C 
ATOM     14  O   UNL     1       5.075   6.159  16.068  0.00  0.00    +0.000 OA
ENDBRANCH   7  14
ENDBRANCH   1  12
BRANCH   6  15
ATOM     15  N   UNL     1       3.009   6.355  19.590  0.00  0.00    +0.000 N 
ATOM     16  H   UNL     1       3.925   6.537  19.994  0.00  0.00    +0.000 HD
BRANCH  15  17
ATOM     17  C   UNL     1       2.429   7.520  18.930  0.00  0.00    +0.000 C 
BRANCH  17  18
ATOM     18  C   UNL     1       1.623   8.417  19.837  0.00  0.00    +0.000 A 
ATOM     19  C   UNL     1       1.111   9.617  19.359  0.00  0.00    +0.000 A 
ATOM     20  N   UNL     1       0.343  10.447  20.108  0.00  0.00    +0.000 NA
ATOM     21  C   UNL     1       0.102  10.040  21.376  0.00  0.00    +0.000 A 
ATOM     22  C   UNL     1      -0.698  10.944  22.259  0.00  0.00    +0.000 C 
ATOM     23  C   UNL     1       0.599   8.832  21.854  0.00  0.00    +0.000 A 
ATOM     24  N   UNL     1       1.367   8.000  21.109  0.00  0.00    +0.000 NA
ENDBRANCH  17  18
ENDBRANCH  15  17
ENDBRANCH   6  15
TORSDOF 5
ENDMDL
MODEL 7
REMARK VINA RESULT:      -7.2      2.033      3.882
REMARK  Name = 
REMARK  7 active torsions:
REMARK  status: ('A' for Active; 'I' for Inactive)
REMARK    1  A    between atoms: C_1  and  O_2
REMARK    2  A    between atoms: O_2  and  C_3
REMARK    3  A    between atoms: C_8  and  C_9
REMARK    4  A    between atoms: C_14  and  N_15
REMARK    5  A    between atoms: N_15  and  C_16
REMARK    6  A    between atoms: C_16  and  C_17
REMARK    7  A    between atoms: C_20  and  C_21
REMARK                            x       y       z     vdW  Elec       q    Type
REMARK                         _______ _______ _______ _____ _____    ______ ____
ROOT
ATOM      1  C   UNL     1       3.791   4.485  17.742  0.00  0.00    +0.000 A 
ATOM      2  C   UNL     1       4.336   3.694  16.730  0.00  0.00    +0.000 A 
ATOM      3  N   UNL     1       5.118   4.140  15.722  0.00  0.00    +0.000 NA
ATOM      4  C   UNL     1       5.343   5.453  15.714  0.00  0.00    +0.000 A 
ATOM      5  N   UNL     1       4.834   6.339  16.574  0.00  0.00    +0.000 NA
ATOM      6  C   UNL     1       4.084   5.857  17.590  0.00  0.00    +0.000 A 
ENDROOT
BRANCH   1  12
ATOM      7  C   UNL     1       3.480   3.162  19.938  0.00  0.00    +0.000 A 
ATOM      8  C   UNL     1       2.660   2.825  21.033  0.00  0.00    +0.000 A 
ATOM      9  C   UNL     1       1.305   3.135  21.039  0.00  0.00    +0.000 A 
ATOM     10  C   UNL     1       0.749   3.751  19.930  0.00  0.00    +0.000 A 
ATOM     11  C   UNL     1       1.562   4.102  18.848  0.00  0.00    +0.000 A 
ATOM     12  C   UNL     1       2.958   3.903  18.845  0.00  0.00    +0.000 A 
BRANCH   7  14
ATOM     13  C   UNL     1       5.077   1.529  20.513  0.00  0.00    +0.000 C 
ATOM     14  O   UNL     1       4.811   2.818  19.949  0.00  0.00    +0.000 OA
ENDBRANCH   7  14
ENDBRANCH   1  12
BRANCH   6  15
ATOM     15  N   UNL     1       3.589   6.794  18.505  0.00  0.00    +0.000 N 
ATOM     16  H   UNL     1       4.336   7.203  19.061  0.00  0.00    +0.000 HD
BRANCH  15  17
ATOM     17  C   UNL     1       2.582   7.765  18.091  0.00  0.00    +0.000 C 
BRANCH  17  18
ATOM     18  C   UNL     1       1.823   8.403  19.228  0.00  0.00    +0.000 A 
ATOM     19  C   UNL     1       1.164   9.612  19.039  0.00  0.00    +0.000 A 
ATOM     20  N   UNL     1       0.428  10.216  20.005  0.00  0.00    +0.000 NA
ATOM     21  C   UNL     1       0.374   9.570  21.192  0.00  0.00    +0.000 A 
ATOM     22  C   UNL     1      -0.383  10.220  22.306  0.00  0.00    +0.000 C 
ATOM     23  C   UNL     1       1.019   8.352  21.382  0.00  0.00    +0.000 A 
ATOM     24  N   UNL     1       1.755   7.746  20.419  0.00  0.00    +0.000 NA
ENDBRANCH  17  18
ENDBRANCH  15  17
ENDBRANCH   6  15
TORSDOF 5
ENDMDL
MODEL 8
REMARK VINA RESULT:      -7.2      1.159      2.200
REMARK  Name = 
REMARK  7 active torsions:
REMARK  status: ('A' for Active; 'I' for Inactive)
REMARK    1  A    between atoms: C_1  and  O_2
REMARK    2  A    between atoms: O_2  and  C_3
REMARK    3  A    between atoms: C_8  and  C_9
REMARK    4  A    between atoms: C_14  and  N_15
REMARK    5  A    between atoms: N_15  and  C_16
REMARK    6  A    between atoms: C_16  and  C_17
REMARK    7  A    between atoms: C_20  and  C_21
REMARK                            x       y       z     vdW  Elec       q    Type
REMARK                         _______ _______ _______ _____ _____    ______ ____
ROOT
ATOM      1  C   UNL     1       3.807   3.784  18.216  0.00  0.00    +0.000 A 
ATOM      2  C   UNL     1       3.630   2.407  18.353  0.00  0.00    +0.000 A 
ATOM      3  N   UNL     1       2.440   1.776  18.462  0.00  0.00    +0.000 NA
ATOM      4  C   UNL     1       1.372   2.572  18.461  0.00  0.00    +0.000 A 
ATOM      5  N   UNL     1       1.390   3.907  18.406  0.00  0.00    +0.000 NA
ATOM      6  C   UNL     1       2.595   4.504  18.263  0.00  0.00    +0.000 A 
ENDROOT
BRANCH   1  12
ATOM      7  C   UNL     1       5.846   4.554  16.830  0.00  0.00    +0.000 A 
ATOM      8  C   UNL     1       7.024   5.323  16.749  0.00  0.00    +0.000 A 
ATOM      9  C   UNL     1       7.597   5.882  17.886  0.00  0.00    +0.000 A 
ATOM     10  C   UNL     1       7.017   5.644  19.121  0.00  0.00    +0.000 A 
ATOM     11  C   UNL     1       5.838   4.895  19.204  0.00  0.00    +0.000 A 
ATOM     12  C   UNL     1       5.166   4.400  18.067  0.00  0.00    +0.000 A 
BRANCH   7  14
ATOM     13  C   UNL     1       6.159   4.103  14.540  0.00  0.00    +0.000 C 
ATOM     14  O   UNL     1       5.318   3.991  15.693  0.00  0.00    +0.000 OA
ENDBRANCH   7  14
ENDBRANCH   1  12
BRANCH   6  15
ATOM     15  N   UNL     1       2.595   5.901  18.169  0.00  0.00    +0.000 N 
ATOM     16  H   UNL     1       1.942   6.227  17.459  0.00  0.00    +0.000 HD
BRANCH  15  17
ATOM     17  C   UNL     1       2.589   6.720  19.376  0.00  0.00    +0.000 C 
BRANCH  17  18
ATOM     18  C   UNL     1       1.978   8.089  19.202  0.00  0.00    +0.000 A 
ATOM     19  C   UNL     1       1.305   8.695  20.256  0.00  0.00    +0.000 A 
ATOM     20  N   UNL     1       0.773   9.940  20.179  0.00  0.00    +0.000 NA
ATOM     21  C   UNL     1       0.927  10.572  18.994  0.00  0.00    +0.000 A 
ATOM     22  C   UNL     1       0.313  11.928  18.841  0.00  0.00    +0.000 C 
ATOM     23  C   UNL     1       1.613   9.977  17.940  0.00  0.00    +0.000 A 
ATOM     24  N   UNL     1       2.146   8.733  18.013  0.00  0.00    +0.000 NA
ENDBRANCH  17  18
ENDBRANCH  15  17
ENDBRANCH   6  15
TORSDOF 5
ENDMDL
MODEL 9
REMARK VINA RESULT:      -7.2      1.990      4.018
REMARK  Name = 
REMARK  7 active torsions:
REMARK  status: ('A' for Active; 'I' for Inactive)
REMARK    1  A    between atoms: C_1  and  O_2
REMARK    2  A    between atoms: O_2  and  C_3
REMARK    3  A    between atoms: C_8  and  C_9
REMARK    4  A    between atoms: C_14  and  N_15
REMARK    5  A    between atoms: N_15  and  C_16
REMARK    6  A    between atoms: C_16  and  C_17
REMARK    7  A    between atoms: C_20  and  C_21
REMARK                            x       y       z     vdW  Elec       q    Type
REMARK                         _______ _______ _______ _____ _____    ______ ____
ROOT
ATOM      1  C   UNL     1       3.719   4.497  17.902  0.00  0.00    +0.000 A 
ATOM      2  C   UNL     1       4.340   3.771  16.885  0.00  0.00    +0.000 A 
ATOM      3  N   UNL     1       5.112   4.294  15.907  0.00  0.00    +0.000 NA
ATOM      4  C   UNL     1       5.245   5.619  15.934  0.00  0.00    +0.000 A 
ATOM      5  N   UNL     1       4.658   6.447  16.802  0.00  0.00    +0.000 NA
ATOM      6  C   UNL     1       3.920   5.889  17.788  0.00  0.00    +0.000 A 
ENDROOT
BRANCH   1  12
ATOM      7  C   UNL     1       3.449   3.053  20.026  0.00  0.00    +0.000 A 
ATOM      8  C   UNL     1       2.639   2.634  21.100  0.00  0.00    +0.000 A 
ATOM      9  C   UNL     1       1.274   2.898  21.117  0.00  0.00    +0.000 A 
ATOM     10  C   UNL     1       0.700   3.553  20.039  0.00  0.00    +0.000 A 
ATOM     11  C   UNL     1       1.502   3.985  18.979  0.00  0.00    +0.000 A 
ATOM     12  C   UNL     1       2.905   3.832  18.970  0.00  0.00    +0.000 A 
BRANCH   7  14
ATOM     13  C   UNL     1       5.120   1.545  20.719  0.00  0.00    +0.000 C 
ATOM     14  O   UNL     1       4.790   2.752  20.023  0.00  0.00    +0.000 OA
ENDBRANCH   7  14
ENDBRANCH   1  12
BRANCH   6  15
ATOM     15  N   UNL     1       3.341   6.768  18.712  0.00  0.00    +0.000 N 
ATOM     16  H   UNL     1       4.010   7.055  19.423  0.00  0.00    +0.000 HD
BRANCH  15  17
ATOM     17  C   UNL     1       2.483   7.855  18.256  0.00  0.00    +0.000 C 
BRANCH  17  18
ATOM     18  C   UNL     1       1.666   8.507  19.343  0.00  0.00    +0.000 A 
ATOM     19  C   UNL     1       1.682   7.994  20.635  0.00  0.00    +0.000 A 
ATOM     20  N   UNL     1       1.006   8.558  21.666  0.00  0.00    +0.000 NA
ATOM     21  C   UNL     1       0.292   9.666  21.365  0.00  0.00    +0.000 A 
ATOM     22  C   UNL     1      -0.513  10.296  22.457  0.00  0.00    +0.000 C 
ATOM     23  C   UNL     1       0.284  10.193  20.077  0.00  0.00    +0.000 A 
ATOM     24  N   UNL     1       0.958   9.632  19.044  0.00  0.00    +0.000 NA
ENDBRANCH  17  18
ENDBRANCH  15  17
ENDBRANCH   6  15
TORSDOF 5
ENDMDL
