MODEL 1
REMARK VINA RESULT:      -7.4      0.000      0.000
REMARK  Name = 
REMARK  14 active torsions:
REMARK  status: ('A' for Active; 'I' for Inactive)
REMARK    1  A    between atoms: C_1  and  C_2
REMARK    2  A    between atoms: C_2  and  O_3
REMARK    3  A    between atoms: O_3  and  C_4
REMARK    4  A    between atoms: C_4  and  C_6
REMARK    5  A    between atoms: C_6  and  C_7
REMARK    6  A    between atoms: C_6  and  N_18
REMARK    7  A    between atoms: C_7  and  C_8
REMARK    8  A    between atoms: N_10  and  C_11
REMARK    9  A    between atoms: C_19  and  C_21
REMARK   10  A    between atoms: C_21  and  N_22
REMARK   11  A    between atoms: C_21  and  C_23
REMARK   12  A    between atoms: C_23  and  C_24
REMARK   13  A    between atoms: C_23  and  C_25
REMARK   14  A    between atoms: C_25  and  C_26
REMARK                            x       y       z     vdW  Elec       q    Type
REMARK                         _______ _______ _______ _____ _____    ______ ____
ROOT
ATOM      1  C   UNL     1       2.050   5.852  19.885  0.00  0.00    +0.000 C 
ENDROOT
BRANCH   1   2
ATOM      2  N   UNL     1       3.505   5.646  19.906  0.00  0.00    +0.000 N 
ATOM      3  C   UNL     1       4.217   5.591  18.730  0.00  0.00    +0.000 C 
ATOM      4  O   UNL     1       3.694   5.728  17.629  0.00  0.00    +0.000 OA
ATOM      5  H   UNL     1       3.921   5.298  20.757  0.00  0.00    +0.000 HD
BRANCH   3   6
ATOM      6  C   UNL     1       5.726   5.296  18.898  0.00  0.00    +0.000 C 
BRANCH   6   7
ATOM      7  N   UNL     1       5.899   3.830  19.010  0.00  0.00    +0.000 NA
ATOM      8  H   UNL     1       6.523   3.653  19.801  0.00  0.00    +0.000 HD
ATOM      9  H   UNL     1       6.425   3.502  18.199  0.00  0.00    +0.000 HD
ENDBRANCH   6   7
BRANCH   6  10
ATOM     10  C   UNL     1       6.569   5.891  17.741  0.00  0.00    +0.000 C 
ATOM     11  C   UNL     1       7.703   6.814  18.216  0.00  0.00    +0.000 C 
BRANCH  10  12
ATOM     12  C   UNL     1       7.169   4.807  16.815  0.00  0.00    +0.000 C 
ATOM     13  C   UNL     1       6.536   4.748  15.431  0.00  0.00    +0.000 C 
ENDBRANCH  10  12
ENDBRANCH   6  10
ENDBRANCH   3   6
ENDBRANCH   1   2
BRANCH   1  14
ATOM     14  C   UNL     1       1.394   4.470  20.002  0.00  0.00    +0.000 C 
ATOM     15  O   UNL     1       1.323   3.824  21.042  0.00  0.00    +0.000 OA
BRANCH  14  16
ATOM     16  O   UNL     1       1.095   3.982  18.764  0.00  0.00    +0.000 OA
BRANCH  16  18
ATOM     17  C   UNL     1       2.551   2.290  17.860  0.00  0.00    +0.000 C 
ATOM     18  C   UNL     1       1.252   2.566  18.601  0.00  0.00    +0.000 C 
ENDBRANCH  16  18
ENDBRANCH  14  16
ENDBRANCH   1  14
BRANCH   1  19
ATOM     19  C   UNL     1       1.593   6.727  21.057  0.00  0.00    +0.000 C 
BRANCH  19  20
ATOM     20  C   UNL     1       1.295   8.151  20.681  0.00  0.00    +0.000 A 
ATOM     21  C   UNL     1       1.656   8.782  19.505  0.00  0.00    +0.000 A 
ATOM     22  N   UNL     1       1.083  10.025  19.490  0.00  0.00    +0.000 N 
ATOM     23  C   UNL     1       1.094  10.922  18.355  0.00  0.00    +0.000 C 
ATOM     24  C   UNL     1       0.430  10.267  20.679  0.00  0.00    +0.000 A 
ATOM     25  C   UNL     1      -0.277  11.395  21.130  0.00  0.00    +0.000 A 
ATOM     26  C   UNL     1      -0.866  11.340  22.396  0.00  0.00    +0.000 A 
ATOM     27  C   UNL     1      -0.753  10.202  23.187  0.00  0.00    +0.000 A 
ATOM     28  C   UNL     1      -0.052   9.082  22.726  0.00  0.00    +0.000 A 
ATOM     29  C   UNL     1       0.553   9.107  21.451  0.00  0.00    +0.000 A 
ENDBRANCH  19  20
ENDBRANCH   1  19
TORSDOF 10
ENDMDL
MODEL 2
REMARK VINA RESULT:      -6.8      3.277      6.177
REMARK  Name = 
REMARK  14 active torsions:
REMARK  status: ('A' for Active; 'I' for Inactive)
REMARK    1  A    between atoms: C_1  and  C_2
REMARK    2  A    between atoms: C_2  and  O_3
REMARK    3  A    between atoms: O_3  and  C_4
REMARK    4  A    between atoms: C_4  and  C_6
REMARK    5  A    between atoms: C_6  and  C_7
REMARK    6  A    between atoms: C_6  and  N_18
REMARK    7  A    between atoms: C_7  and  C_8
REMARK    8  A    between atoms: N_10  and  C_11
REMARK    9  A    between atoms: C_19  and  C_21
REMARK   10  A    between atoms: C_21  and  N_22
REMARK   11  A    between atoms: C_21  and  C_23
REMARK   12  A    between atoms: C_23  and  C_24
REMARK   13  A    between atoms: C_23  and  C_25
REMARK   14  A    between atoms: C_25  and  C_26
REMARK                            x       y       z     vdW  Elec       q    Type
REMARK                         _______ _______ _______ _____ _____    ______ ____
ROOT
ATOM      1  C   UNL     1       5.738   4.024  16.522  0.00  0.00    +0.000 C 
ENDROOT
BRANCH   1   2
ATOM      2  N   UNL     1       6.053   3.849  15.097  0.00  0.00    +0.000 N 
ATOM      3  C   UNL     1       6.173   4.944  14.271  0.00  0.00    +0.000 C 
ATOM      4  O   UNL     1       6.049   6.095  14.672  0.00  0.00    +0.000 OA
ATOM      5  H   UNL     1       5.928   2.932  14.693  0.00  0.00    +0.000 HD
BRANCH   3   6
ATOM      6  C   UNL     1       6.434   4.609  12.784  0.00  0.00    +0.000 C 
BRANCH   6   7
ATOM      7  N   UNL     1       7.883   4.765  12.524  0.00  0.00    +0.000 NA
ATOM      8  H   UNL     1       7.987   5.394  11.725  0.00  0.00    +0.000 HD
ATOM      9  H   UNL     1       8.251   3.874  12.188  0.00  0.00    +0.000 HD
ENDBRANCH   6   7
BRANCH   6  10
ATOM     10  C   UNL     1       5.929   3.191  12.409  0.00  0.00    +0.000 C 
ATOM     11  C   UNL     1       4.549   3.189  11.731  0.00  0.00    +0.000 C 
BRANCH  10  12
ATOM     12  C   UNL     1       6.922   2.417  11.511  0.00  0.00    +0.000 C 
ATOM     13  C   UNL     1       6.429   1.044  11.074  0.00  0.00    +0.000 C 
ENDBRANCH  10  12
ENDBRANCH   6  10
ENDBRANCH   3   6
ENDBRANCH   1   2
BRANCH   1  14
ATOM     14  C   UNL     1       6.990   4.600  17.195  0.00  0.00    +0.000 C 
ATOM     15  O   UNL     1       8.114   4.119  17.094  0.00  0.00    +0.000 OA
BRANCH  14  16
ATOM     16  O   UNL     1       6.644   5.583  18.076  0.00  0.00    +0.000 OA
BRANCH  16  18
ATOM     17  C   UNL     1       7.659   7.704  17.557  0.00  0.00    +0.000 C 
ATOM     18  C   UNL     1       7.700   6.477  18.454  0.00  0.00    +0.000 C 
ENDBRANCH  16  18
ENDBRANCH  14  16
ENDBRANCH   1  14
BRANCH   1  19
ATOM     19  C   UNL     1       4.568   4.992  16.720  0.00  0.00    +0.000 C 
BRANCH  19  20
ATOM     20  C   UNL     1       3.704   4.676  17.908  0.00  0.00    +0.000 A 
ATOM     21  C   UNL     1       3.470   3.423  18.442  0.00  0.00    +0.000 A 
ATOM     22  N   UNL     1       2.743   3.574  19.593  0.00  0.00    +0.000 N 
ATOM     23  C   UNL     1       2.443   2.507  20.522  0.00  0.00    +0.000 C 
ATOM     24  C   UNL     1       2.406   4.898  19.777  0.00  0.00    +0.000 A 
ATOM     25  C   UNL     1       1.660   5.527  20.788  0.00  0.00    +0.000 A 
ATOM     26  C   UNL     1       1.504   6.914  20.724  0.00  0.00    +0.000 A 
ATOM     27  C   UNL     1       2.069   7.649  19.688  0.00  0.00    +0.000 A 
ATOM     28  C   UNL     1       2.816   7.014  18.689  0.00  0.00    +0.000 A 
ATOM     29  C   UNL     1       2.992   5.613  18.728  0.00  0.00    +0.000 A 
ENDBRANCH  19  20
ENDBRANCH   1  19
TORSDOF 10
ENDMDL
MODEL 3
REMARK VINA RESULT:      -6.7      0.826      1.182
REMARK  Name = 
REMARK  14 active torsions:
REMARK  status: ('A' for Active; 'I' for Inactive)
REMARK    1  A    between atoms: C_1  and  C_2
REMARK    2  A    between atoms: C_2  and  O_3
REMARK    3  A    between atoms: O_3  and  C_4
REMARK    4  A    between atoms: C_4  and  C_6
REMARK    5  A    between atoms: C_6  and  C_7
REMARK    6  A    between atoms: C_6  and  N_18
REMARK    7  A    between atoms: C_7  and  C_8
REMARK    8  A    between atoms: N_10  and  C_11
REMARK    9  A    between atoms: C_19  and  C_21
REMARK   10  A    between atoms: C_21  and  N_22
REMARK   11  A    between atoms: C_21  and  C_23
REMARK   12  A    between atoms: C_23  and  C_24
REMARK   13  A    between atoms: C_23  and  C_25
REMARK   14  A    between atoms: C_25  and  C_26
REMARK                            x       y       z     vdW  Elec       q    Type
REMARK                         _______ _______ _______ _____ _____    ______ ____
ROOT
ATOM      1  C   UNL     1       2.255   6.080  19.608  0.00  0.00    +0.000 C 
ENDROOT
BRANCH   1   2
ATOM      2  N   UNL     1       3.708   5.871  19.674  0.00  0.00    +0.000 N 
ATOM      3  C   UNL     1       4.452   5.788  18.519  0.00  0.00    +0.000 C 
ATOM      4  O   UNL     1       3.961   5.902  17.402  0.00  0.00    +0.000 OA
ATOM      5  H   UNL     1       4.100   5.541  20.543  0.00  0.00    +0.000 HD
BRANCH   3   6
ATOM      6  C   UNL     1       5.955   5.494  18.735  0.00  0.00    +0.000 C 
BRANCH   6   7
ATOM      7  N   UNL     1       6.119   4.032  18.899  0.00  0.00    +0.000 NA
ATOM      8  H   UNL     1       5.185   3.622  18.972  0.00  0.00    +0.000 HD
ATOM      9  H   UNL     1       6.541   3.852  19.811  0.00  0.00    +0.000 HD
ENDBRANCH   6   7
BRANCH   6  10
ATOM     10  C   UNL     1       6.830   6.048  17.581  0.00  0.00    +0.000 C 
ATOM     11  C   UNL     1       7.935   7.007  18.052  0.00  0.00    +0.000 C 
BRANCH  10  12
ATOM     12  C   UNL     1       7.475   4.932  16.726  0.00  0.00    +0.000 C 
ATOM     13  C   UNL     1       6.822   4.731  15.365  0.00  0.00    +0.000 C 
ENDBRANCH  10  12
ENDBRANCH   6  10
ENDBRANCH   3   6
ENDBRANCH   1   2
BRANCH   1  14
ATOM     14  C   UNL     1       1.598   4.694  19.593  0.00  0.00    +0.000 C 
ATOM     15  O   UNL     1       1.336   4.064  18.575  0.00  0.00    +0.000 OA
BRANCH  14  16
ATOM     16  O   UNL     1       1.165   4.362  20.844  0.00  0.00    +0.000 OA
BRANCH  16  18
ATOM     17  C   UNL     1       1.838   2.109  21.365  0.00  0.00    +0.000 C 
ATOM     18  C   UNL     1       2.080   3.587  21.631  0.00  0.00    +0.000 C 
ENDBRANCH  16  18
ENDBRANCH  14  16
ENDBRANCH   1  14
BRANCH   1  19
ATOM     19  C   UNL     1       1.748   6.865  20.823  0.00  0.00    +0.000 C 
BRANCH  19  20
ATOM     20  C   UNL     1       1.347   8.280  20.515  0.00  0.00    +0.000 A 
ATOM     21  C   UNL     1       1.608   8.971  19.348  0.00  0.00    +0.000 A 
ATOM     22  N   UNL     1       0.962  10.177  19.409  0.00  0.00    +0.000 N 
ATOM     23  C   UNL     1       0.860  11.112  18.309  0.00  0.00    +0.000 C 
ATOM     24  C   UNL     1       0.360  10.338  20.638  0.00  0.00    +0.000 A 
ATOM     25  C   UNL     1      -0.388  11.404  21.165  0.00  0.00    +0.000 A 
ATOM     26  C   UNL     1      -0.905  11.270  22.457  0.00  0.00    +0.000 A 
ATOM     27  C   UNL     1      -0.682  10.114  23.198  0.00  0.00    +0.000 A 
ATOM     28  C   UNL     1       0.058   9.055  22.660  0.00  0.00    +0.000 A 
ATOM     29  C   UNL     1       0.592   9.162  21.358  0.00  0.00    +0.000 A 
ENDBRANCH  19  20
ENDBRANCH   1  19
TORSDOF 10
ENDMDL
MODEL 4
REMARK VINA RESULT:      -6.7      1.761      3.142
REMARK  Name = 
REMARK  14 active torsions:
REMARK  status: ('A' for Active; 'I' for Inactive)
REMARK    1  A    between atoms: C_1  and  C_2
REMARK    2  A    between atoms: C_2  and  O_3
REMARK    3  A    between atoms: O_3  and  C_4
REMARK    4  A    between atoms: C_4  and  C_6
REMARK    5  A    between atoms: C_6  and  C_7
REMARK    6  A    between atoms: C_6  and  N_18
REMARK    7  A    between atoms: C_7  and  C_8
REMARK    8  A    between atoms: N_10  and  C_11
REMARK    9  A    between atoms: C_19  and  C_21
REMARK   10  A    between atoms: C_21  and  N_22
REMARK   11  A    between atoms: C_21  and  C_23
REMARK   12  A    between atoms: C_23  and  C_24
REMARK   13  A    between atoms: C_23  and  C_25
REMARK   14  A    between atoms: C_25  and  C_26
REMARK                            x       y       z     vdW  Elec       q    Type
REMARK                         _______ _______ _______ _____ _____    ______ ____
ROOT
ATOM      1  C   UNL     1       2.724   5.471  18.138  0.00  0.00    +0.000 C 
ENDROOT
BRANCH   1   2
ATOM      2  N   UNL     1       3.922   4.863  17.542  0.00  0.00    +0.000 N 
ATOM      3  C   UNL     1       4.750   5.606  16.731  0.00  0.00    +0.000 C 
ATOM      4  O   UNL     1       4.551   6.791  16.485  0.00  0.00    +0.000 OA
ATOM      5  H   UNL     1       3.983   3.856  17.527  0.00  0.00    +0.000 HD
BRANCH   3   6
ATOM      6  C   UNL     1       5.930   4.820  16.115  0.00  0.00    +0.000 C 
BRANCH   6   7
ATOM      7  N   UNL     1       5.771   3.393  16.477  0.00  0.00    +0.000 NA
ATOM      8  H   UNL     1       6.388   2.850  15.868  0.00  0.00    +0.000 HD
ATOM      9  H   UNL     1       4.832   3.092  16.212  0.00  0.00    +0.000 HD
ENDBRANCH   6   7
BRANCH   6  10
ATOM     10  C   UNL     1       6.025   5.019  14.580  0.00  0.00    +0.000 C 
ATOM     11  C   UNL     1       7.468   5.134  14.062  0.00  0.00    +0.000 C 
BRANCH  10  12
ATOM     12  C   UNL     1       5.301   3.909  13.783  0.00  0.00    +0.000 C 
ATOM     13  C   UNL     1       6.060   3.427  12.554  0.00  0.00    +0.000 C 
ENDBRANCH  10  12
ENDBRANCH   6  10
ENDBRANCH   3   6
ENDBRANCH   1   2
BRANCH   1  14
ATOM     14  C   UNL     1       1.664   4.369  18.250  0.00  0.00    +0.000 C 
ATOM     15  O   UNL     1       1.059   3.891  17.296  0.00  0.00    +0.000 OA
BRANCH  14  16
ATOM     16  O   UNL     1       1.347   4.148  19.558  0.00  0.00    +0.000 OA
BRANCH  16  18
ATOM     17  C   UNL     1       1.397   2.697  21.480  0.00  0.00    +0.000 C 
ATOM     18  C   UNL     1       1.307   2.773  19.964  0.00  0.00    +0.000 C 
ENDBRANCH  16  18
ENDBRANCH  14  16
ENDBRANCH   1  14
BRANCH   1  19
ATOM     19  C   UNL     1       3.018   6.032  19.534  0.00  0.00    +0.000 C 
BRANCH  19  20
ATOM     20  C   UNL     1       2.086   7.129  19.964  0.00  0.00    +0.000 A 
ATOM     21  C   UNL     1       1.299   7.139  21.099  0.00  0.00    +0.000 A 
ATOM     22  N   UNL     1       0.702   8.368  21.199  0.00  0.00    +0.000 N 
ATOM     23  C   UNL     1      -0.066   8.819  22.339  0.00  0.00    +0.000 C 
ATOM     24  C   UNL     1       1.001   9.137  20.095  0.00  0.00    +0.000 A 
ATOM     25  C   UNL     1       0.607  10.440  19.745  0.00  0.00    +0.000 A 
ATOM     26  C   UNL     1       1.101  10.979  18.554  0.00  0.00    +0.000 A 
ATOM     27  C   UNL     1       1.955  10.245  17.738  0.00  0.00    +0.000 A 
ATOM     28  C   UNL     1       2.346   8.951  18.099  0.00  0.00    +0.000 A 
ATOM     29  C   UNL     1       1.865   8.380  19.298  0.00  0.00    +0.000 A 
ENDBRANCH  19  20
ENDBRANCH   1  19
TORSDOF 10
ENDMDL
MODEL 5
REMARK VINA RESULT:      -6.7      4.998      6.935
REMARK  Name = 
REMARK  14 active torsions:
REMARK  status: ('A' for Active; 'I' for Inactive)
REMARK    1  A    between atoms: C_1  and  C_2
REMARK    2  A    between atoms: C_2  and  O_3
REMARK    3  A    between atoms: O_3  and  C_4
REMARK    4  A    between atoms: C_4  and  C_6
REMARK    5  A    between atoms: C_6  and  C_7
REMARK    6  A    between atoms: C_6  and  N_18
REMARK    7  A    between atoms: C_7  and  C_8
REMARK    8  A    between atoms: N_10  and  C_11
REMARK    9  A    between atoms: C_19  and  C_21
REMARK   10  A    between atoms: C_21  and  N_22
REMARK   11  A    between atoms: C_21  and  C_23
REMARK   12  A    between atoms: C_23  and  C_24
REMARK   13  A    between atoms: C_23  and  C_25
REMARK   14  A    between atoms: C_25  and  C_26
REMARK                            x       y       z     vdW  Elec       q    Type
REMARK                         _______ _______ _______ _____ _____    ______ ____
ROOT
ATOM      1  C   UNL     1       6.319   5.848  17.076  0.00  0.00    +0.000 C 
ENDROOT
BRANCH   1   2
ATOM      2  N   UNL     1       6.336   5.827  15.607  0.00  0.00    +0.000 N 
ATOM      3  C   UNL     1       6.337   4.629  14.928  0.00  0.00    +0.000 C 
ATOM      4  O   UNL     1       6.304   3.544  15.496  0.00  0.00    +0.000 OA
ATOM      5  H   UNL     1       6.600   6.673  15.124  0.00  0.00    +0.000 HD
BRANCH   3   6
ATOM      6  C   UNL     1       6.430   4.757  13.390  0.00  0.00    +0.000 C 
BRANCH   6   7
ATOM      7  N   UNL     1       7.778   5.264  13.050  0.00  0.00    +0.000 NA
ATOM      8  H   UNL     1       8.433   4.888  13.740  0.00  0.00    +0.000 HD
ATOM      9  H   UNL     1       7.797   6.272  13.212  0.00  0.00    +0.000 HD
ENDBRANCH   6   7
BRANCH   6  10
ATOM     10  C   UNL     1       6.119   3.416  12.674  0.00  0.00    +0.000 C 
ATOM     11  C   UNL     1       4.746   3.391  11.983  0.00  0.00    +0.000 C 
BRANCH  10  12
ATOM     12  C   UNL     1       7.200   3.021  11.641  0.00  0.00    +0.000 C 
ATOM     13  C   UNL     1       7.025   1.627  11.056  0.00  0.00    +0.000 C 
ENDBRANCH  10  12
ENDBRANCH   6  10
ENDBRANCH   3   6
ENDBRANCH   1   2
BRANCH   1  14
ATOM     14  C   UNL     1       7.070   7.111  17.520  0.00  0.00    +0.000 C 
ATOM     15  O   UNL     1       7.154   8.135  16.851  0.00  0.00    +0.000 OA
BRANCH  14  16
ATOM     16  O   UNL     1       7.791   6.860  18.650  0.00  0.00    +0.000 OA
BRANCH  16  18
ATOM     17  C   UNL     1       8.424   5.280  20.354  0.00  0.00    +0.000 C 
ATOM     18  C   UNL     1       8.132   5.485  18.876  0.00  0.00    +0.000 C 
ENDBRANCH  16  18
ENDBRANCH  14  16
ENDBRANCH   1  14
BRANCH   1  19
ATOM     19  C   UNL     1       4.887   5.897  17.618  0.00  0.00    +0.000 C 
BRANCH  19  20
ATOM     20  C   UNL     1       4.444   4.631  18.296  0.00  0.00    +0.000 A 
ATOM     21  C   UNL     1       5.232   3.788  19.056  0.00  0.00    +0.000 A 
ATOM     22  N   UNL     1       4.428   2.826  19.605  0.00  0.00    +0.000 N 
ATOM     23  C   UNL     1       4.859   1.860  20.593  0.00  0.00    +0.000 C 
ATOM     24  C   UNL     1       3.137   2.958  19.143  0.00  0.00    +0.000 A 
ATOM     25  C   UNL     1       1.982   2.202  19.405  0.00  0.00    +0.000 A 
ATOM     26  C   UNL     1       0.785   2.598  18.802  0.00  0.00    +0.000 A 
ATOM     27  C   UNL     1       0.740   3.707  17.964  0.00  0.00    +0.000 A 
ATOM     28  C   UNL     1       1.895   4.457  17.715  0.00  0.00    +0.000 A 
ATOM     29  C   UNL     1       3.119   4.082  18.312  0.00  0.00    +0.000 A 
ENDBRANCH  19  20
ENDBRANCH   1  19
TORSDOF 10
ENDMDL
MODEL 6
REMARK VINA RESULT:      -6.7      2.991      6.042
REMARK  Name = 
REMARK  14 active torsions:
REMARK  status: ('A' for Active; 'I' for Inactive)
REMARK    1  A    between atoms: C_1  and  C_2
REMARK    2  A    between atoms: C_2  and  O_3
REMARK    3  A    between atoms: O_3  and  C_4
REMARK    4  A    between atoms: C_4  and  C_6
REMARK    5  A    between atoms: C_6  and  C_7
REMARK    6  A    between atoms: C_6  and  N_18
REMARK    7  A    between atoms: C_7  and  C_8
REMARK    8  A    between atoms: N_10  and  C_11
REMARK    9  A    between atoms: C_19  and  C_21
REMARK   10  A    between atoms: C_21  and  N_22
REMARK   11  A    between atoms: C_21  and  C_23
REMARK   12  A    between atoms: C_23  and  C_24
REMARK   13  A    between atoms: C_23  and  C_25
REMARK   14  A    between atoms: C_25  and  C_26
REMARK                            x       y       z     vdW  Elec       q    Type
REMARK                         _______ _______ _______ _____ _____    ______ ____
ROOT
ATOM      1  C   UNL     1       5.355   4.346  16.944  0.00  0.00    +0.000 C 
ENDROOT
BRANCH   1   2
ATOM      2  N   UNL     1       6.023   4.232  15.640  0.00  0.00    +0.000 N 
ATOM      3  C   UNL     1       5.975   5.272  14.740  0.00  0.00    +0.000 C 
ATOM      4  O   UNL     1       5.406   6.331  14.979  0.00  0.00    +0.000 OA
ATOM      5  H   UNL     1       6.288   3.311  15.323  0.00  0.00    +0.000 HD
BRANCH   3   6
ATOM      6  C   UNL     1       6.658   4.987  13.382  0.00  0.00    +0.000 C 
BRANCH   6   7
ATOM      7  N   UNL     1       8.117   5.164  13.554  0.00  0.00    +0.000 NA
ATOM      8  H   UNL     1       8.466   5.667  12.735  0.00  0.00    +0.000 HD
ATOM      9  H   UNL     1       8.566   4.249  13.494  0.00  0.00    +0.000 HD
ENDBRANCH   6   7
BRANCH   6  10
ATOM     10  C   UNL     1       6.307   3.578  12.839  0.00  0.00    +0.000 C 
ATOM     11  C   UNL     1       4.881   3.473  12.274  0.00  0.00    +0.000 C 
BRANCH  10  12
ATOM     12  C   UNL     1       7.302   3.083  11.762  0.00  0.00    +0.000 C 
ATOM     13  C   UNL     1       6.957   1.723  11.170  0.00  0.00    +0.000 C 
ENDBRANCH  10  12
ENDBRANCH   6  10
ENDBRANCH   3   6
ENDBRANCH   1   2
BRANCH   1  14
ATOM     14  C   UNL     1       6.436   4.682  17.979  0.00  0.00    +0.000 C 
ATOM     15  O   UNL     1       6.408   4.323  19.151  0.00  0.00    +0.000 OA
BRANCH  14  16
ATOM     16  O   UNL     1       7.311   5.597  17.470  0.00  0.00    +0.000 OA
BRANCH  16  18
ATOM     17  C   UNL     1       7.800   7.951  17.605  0.00  0.00    +0.000 C 
ATOM     18  C   UNL     1       7.712   6.639  18.370  0.00  0.00    +0.000 C 
ENDBRANCH  16  18
ENDBRANCH  14  16
ENDBRANCH   1  14
BRANCH   1  19
ATOM     19  C   UNL     1       4.301   5.458  16.937  0.00  0.00    +0.000 C 
BRANCH  19  20
ATOM     20  C   UNL     1       3.409   5.466  18.145  0.00  0.00    +0.000 A 
ATOM     21  C   UNL     1       3.202   6.526  19.006  0.00  0.00    +0.000 A 
ATOM     22  N   UNL     1       2.221   6.175  19.895  0.00  0.00    +0.000 N 
ATOM     23  C   UNL     1       1.613   7.079  20.847  0.00  0.00    +0.000 C 
ATOM     24  C   UNL     1       1.845   4.864  19.700  0.00  0.00    +0.000 A 
ATOM     25  C   UNL     1       0.903   4.066  20.372  0.00  0.00    +0.000 A 
ATOM     26  C   UNL     1       0.713   2.756  19.926  0.00  0.00    +0.000 A 
ATOM     27  C   UNL     1       1.438   2.256  18.849  0.00  0.00    +0.000 A 
ATOM     28  C   UNL     1       2.368   3.061  18.183  0.00  0.00    +0.000 A 
ATOM     29  C   UNL     1       2.580   4.390  18.610  0.00  0.00    +0.000 A 
ENDBRANCH  19  20
ENDBRANCH   1  19
TORSDOF 10
ENDMDL
MODEL 7
REMARK VINA RESULT:      -6.7      0.694      2.181
REMARK  Name = 
REMARK  14 active torsions:
REMARK  status: ('A' for Active; 'I' for Inactive)
REMARK    1  A    between atoms: C_1  and  C_2
REMARK    2  A    between atoms: C_2  and  O_3
REMARK    3  A    between atoms: O_3  and  C_4
REMARK    4  A    between atoms: C_4  and  C_6
REMARK    5  A    between atoms: C_6  and  C_7
REMARK    6  A    between atoms: C_6  and  N_18
REMARK    7  A    between atoms: C_7  and  C_8
REMARK    8  A    between atoms: N_10  and  C_11
REMARK    9  A    between atoms: C_19  and  C_21
REMARK   10  A    between atoms: C_21  and  N_22
REMARK   11  A    between atoms: C_21  and  C_23
REMARK   12  A    between atoms: C_23  and  C_24
REMARK   13  A    between atoms: C_23  and  C_25
REMARK   14  A    between atoms: C_25  and  C_26
REMARK                            x       y       z     vdW  Elec       q    Type
REMARK                         _______ _______ _______ _____ _____    ______ ____
ROOT
ATOM      1  C   UNL     1       2.069   5.718  20.011  0.00  0.00    +0.000 C 
ENDROOT
BRANCH   1   2
ATOM      2  N   UNL     1       3.522   5.503  19.954  0.00  0.00    +0.000 N 
ATOM      3  C   UNL     1       4.181   5.518  18.745  0.00  0.00    +0.000 C 
ATOM      4  O   UNL     1       3.611   5.727  17.680  0.00  0.00    +0.000 OA
ATOM      5  H   UNL     1       3.973   5.100  20.762  0.00  0.00    +0.000 HD
BRANCH   3   6
ATOM      6  C   UNL     1       5.693   5.205  18.827  0.00  0.00    +0.000 C 
BRANCH   6   7
ATOM      7  N   UNL     1       5.853   3.742  18.990  0.00  0.00    +0.000 NA
ATOM      8  H   UNL     1       5.201   3.440  19.718  0.00  0.00    +0.000 HD
ATOM      9  H   UNL     1       6.774   3.558  19.390  0.00  0.00    +0.000 HD
ENDBRANCH   6   7
BRANCH   6  10
ATOM     10  C   UNL     1       6.466   5.737  17.592  0.00  0.00    +0.000 C 
ATOM     11  C   UNL     1       7.535   6.786  17.940  0.00  0.00    +0.000 C 
BRANCH  10  12
ATOM     12  C   UNL     1       7.130   4.610  16.767  0.00  0.00    +0.000 C 
ATOM     13  C   UNL     1       6.405   4.275  15.471  0.00  0.00    +0.000 C 
ENDBRANCH  10  12
ENDBRANCH   6  10
ENDBRANCH   3   6
ENDBRANCH   1   2
BRANCH   1  14
ATOM     14  C   UNL     1       1.407   4.335  20.034  0.00  0.00    +0.000 C 
ATOM     15  O   UNL     1       1.320   3.626  21.031  0.00  0.00    +0.000 OA
BRANCH  14  16
ATOM     16  O   UNL     1       1.122   3.925  18.765  0.00  0.00    +0.000 OA
BRANCH  16  18
ATOM     17  C   UNL     1       2.636   2.224  17.983  0.00  0.00    +0.000 C 
ATOM     18  C   UNL     1       1.246   2.517  18.525  0.00  0.00    +0.000 C 
ENDBRANCH  16  18
ENDBRANCH  14  16
ENDBRANCH   1  14
BRANCH   1  19
ATOM     19  C   UNL     1       1.668   6.490  21.272  0.00  0.00    +0.000 C 
BRANCH  19  20
ATOM     20  C   UNL     1       1.107   7.858  21.002  0.00  0.00    +0.000 A 
ATOM     21  C   UNL     1       0.281   8.585  21.837  0.00  0.00    +0.000 A 
ATOM     22  N   UNL     1       0.103   9.828  21.292  0.00  0.00    +0.000 N 
ATOM     23  C   UNL     1      -0.564  10.929  21.953  0.00  0.00    +0.000 C 
ATOM     24  C   UNL     1       0.716   9.903  20.060  0.00  0.00    +0.000 A 
ATOM     25  C   UNL     1       0.788  10.953  19.129  0.00  0.00    +0.000 A 
ATOM     26  C   UNL     1       1.517  10.743  17.955  0.00  0.00    +0.000 A 
ATOM     27  C   UNL     1       2.151   9.528  17.716  0.00  0.00    +0.000 A 
ATOM     28  C   UNL     1       2.078   8.492  18.653  0.00  0.00    +0.000 A 
ATOM     29  C   UNL     1       1.350   8.675  19.849  0.00  0.00    +0.000 A 
ENDBRANCH  19  20
ENDBRANCH   1  19
TORSDOF 10
ENDMDL
MODEL 8
REMARK VINA RESULT:      -6.7      1.050      2.428
REMARK  Name = 
REMARK  14 active torsions:
REMARK  status: ('A' for Active; 'I' for Inactive)
REMARK    1  A    between atoms: C_1  and  C_2
REMARK    2  A    between atoms: C_2  and  O_3
REMARK    3  A    between atoms: O_3  and  C_4
REMARK    4  A    between atoms: C_4  and  C_6
REMARK    5  A    between atoms: C_6  and  C_7
REMARK    6  A    between atoms: C_6  and  N_18
REMARK    7  A    between atoms: C_7  and  C_8
REMARK    8  A    between atoms: N_10  and  C_11
REMARK    9  A    between atoms: C_19  and  C_21
REMARK   10  A    between atoms: C_21  and  N_22
REMARK   11  A    between atoms: C_21  and  C_23
REMARK   12  A    between atoms: C_23  and  C_24
REMARK   13  A    between atoms: C_23  and  C_25
REMARK   14  A    between atoms: C_25  and  C_26
REMARK                            x       y       z     vdW  Elec       q    Type
REMARK                         _______ _______ _______ _____ _____    ______ ____
ROOT
ATOM      1  C   UNL     1       2.153   5.883  19.599  0.00  0.00    +0.000 C 
ENDROOT
BRANCH   1   2
ATOM      2  N   UNL     1       3.566   5.511  19.760  0.00  0.00    +0.000 N 
ATOM      3  C   UNL     1       4.455   5.685  18.724  0.00  0.00    +0.000 C 
ATOM      4  O   UNL     1       4.131   6.168  17.645  0.00  0.00    +0.000 OA
ATOM      5  H   UNL     1       3.810   4.904  20.529  0.00  0.00    +0.000 HD
BRANCH   3   6
ATOM      6  C   UNL     1       5.889   5.183  19.008  0.00  0.00    +0.000 C 
BRANCH   6   7
ATOM      7  N   UNL     1       5.870   3.703  18.994  0.00  0.00    +0.000 NA
ATOM      8  H   UNL     1       4.959   3.402  19.347  0.00  0.00    +0.000 HD
ATOM      9  H   UNL     1       6.533   3.362  19.692  0.00  0.00    +0.000 HD
ENDBRANCH   6   7
BRANCH   6  10
ATOM     10  C   UNL     1       6.919   5.758  18.001  0.00  0.00    +0.000 C 
ATOM     11  C   UNL     1       8.058   6.547  18.668  0.00  0.00    +0.000 C 
BRANCH  10  12
ATOM     12  C   UNL     1       7.538   4.674  17.088  0.00  0.00    +0.000 C 
ATOM     13  C   UNL     1       6.994   4.670  15.666  0.00  0.00    +0.000 C 
ENDBRANCH  10  12
ENDBRANCH   6  10
ENDBRANCH   3   6
ENDBRANCH   1   2
BRANCH   1  14
ATOM     14  C   UNL     1       1.410   4.637  19.103  0.00  0.00    +0.000 C 
ATOM     15  O   UNL     1       1.220   4.370  17.921  0.00  0.00    +0.000 OA
BRANCH  14  16
ATOM     16  O   UNL     1       0.820   3.990  20.149  0.00  0.00    +0.000 OA
BRANCH  16  18
ATOM     17  C   UNL     1       1.570   2.554  21.931  0.00  0.00    +0.000 C 
ATOM     18  C   UNL     1       1.330   2.680  20.435  0.00  0.00    +0.000 C 
ENDBRANCH  16  18
ENDBRANCH  14  16
ENDBRANCH   1  14
BRANCH   1  19
ATOM     19  C   UNL     1       1.541   6.340  20.927  0.00  0.00    +0.000 C 
BRANCH  19  20
ATOM     20  C   UNL     1       1.044   7.758  20.918  0.00  0.00    +0.000 A 
ATOM     21  C   UNL     1       0.292   8.370  21.902  0.00  0.00    +0.000 A 
ATOM     22  N   UNL     1       0.159   9.695  21.582  0.00  0.00    +0.000 N 
ATOM     23  C   UNL     1      -0.421  10.697  22.450  0.00  0.00    +0.000 C 
ATOM     24  C   UNL     1       0.726   9.950  20.352  0.00  0.00    +0.000 A 
ATOM     25  C   UNL     1       0.817  11.139  19.608  0.00  0.00    +0.000 A 
ATOM     26  C   UNL     1       1.486  11.097  18.382  0.00  0.00    +0.000 A 
ATOM     27  C   UNL     1       2.044   9.913  17.912  0.00  0.00    +0.000 A 
ATOM     28  C   UNL     1       1.953   8.737  18.664  0.00  0.00    +0.000 A 
ATOM     29  C   UNL     1       1.284   8.747  19.908  0.00  0.00    +0.000 A 
ENDBRANCH  19  20
ENDBRANCH   1  19
TORSDOF 10
ENDMDL
MODEL 9
REMARK VINA RESULT:      -6.6      2.033      4.449
REMARK  Name = 
REMARK  14 active torsions:
REMARK  status: ('A' for Active; 'I' for Inactive)
REMARK    1  A    between atoms: C_1  and  C_2
REMARK    2  A    between atoms: C_2  and  O_3
REMARK    3  A    between atoms: O_3  and  C_4
REMARK    4  A    between atoms: C_4  and  C_6
REMARK    5  A    between atoms: C_6  and  C_7
REMARK    6  A    between atoms: C_6  and  N_18
REMARK    7  A    between atoms: C_7  and  C_8
REMARK    8  A    between atoms: N_10  and  C_11
REMARK    9  A    between atoms: C_19  and  C_21
REMARK   10  A    between atoms: C_21  and  N_22
REMARK   11  A    between atoms: C_21  and  C_23
REMARK   12  A    between atoms: C_23  and  C_24
REMARK   13  A    between atoms: C_23  and  C_25
REMARK   14  A    between atoms: C_25  and  C_26
REMARK                            x       y       z     vdW  Elec       q    Type
REMARK                         _______ _______ _______ _____ _____    ______ ____
ROOT
ATOM      1  C   UNL     1       4.406   6.774  17.713  0.00  0.00    +0.000 C 
ENDROOT
BRANCH   1   2
ATOM      2  N   UNL     1       4.024   5.374  17.946  0.00  0.00    +0.000 N 
ATOM      3  C   UNL     1       4.668   4.626  18.906  0.00  0.00    +0.000 C 
ATOM      4  O   UNL     1       5.557   5.081  19.616  0.00  0.00    +0.000 OA
ATOM      5  H   UNL     1       3.477   4.908  17.237  0.00  0.00    +0.000 HD
BRANCH   3   6
ATOM      6  C   UNL     1       4.214   3.151  18.992  0.00  0.00    +0.000 C 
BRANCH   6   7
ATOM      7  N   UNL     1       5.017   2.482  20.040  0.00  0.00    +0.000 NA
ATOM      8  H   UNL     1       4.873   2.994  20.913  0.00  0.00    +0.000 HD
ATOM      9  H   UNL     1       6.006   2.621  19.830  0.00  0.00    +0.000 HD
ENDBRANCH   6   7
BRANCH   6  10
ATOM     10  C   UNL     1       2.692   3.024  19.261  0.00  0.00    +0.000 C 
ATOM     11  C   UNL     1       1.940   2.227  18.182  0.00  0.00    +0.000 C 
BRANCH  10  12
ATOM     12  C   UNL     1       2.374   2.406  20.642  0.00  0.00    +0.000 C 
ATOM     13  C   UNL     1       1.994   3.424  21.709  0.00  0.00    +0.000 C 
ENDBRANCH  10  12
ENDBRANCH   6  10
ENDBRANCH   3   6
ENDBRANCH   1   2
BRANCH   1  14
ATOM     14  C   UNL     1       5.637   6.761  16.799  0.00  0.00    +0.000 C 
ATOM     15  O   UNL     1       6.583   7.534  16.902  0.00  0.00    +0.000 OA
BRANCH  14  16
ATOM     16  O   UNL     1       5.436   5.919  15.745  0.00  0.00    +0.000 OA
BRANCH  16  18
ATOM     17  C   UNL     1       6.209   4.252  14.188  0.00  0.00    +0.000 C 
ATOM     18  C   UNL     1       6.482   4.968  15.502  0.00  0.00    +0.000 C 
ENDBRANCH  16  18
ENDBRANCH  14  16
ENDBRANCH   1  14
BRANCH   1  19
ATOM     19  C   UNL     1       3.278   7.554  17.029  0.00  0.00    +0.000 C 
BRANCH  19  20
ATOM     20  C   UNL     1       2.529   8.479  17.946  0.00  0.00    +0.000 A 
ATOM     21  C   UNL     1       2.231   9.807  17.707  0.00  0.00    +0.000 A 
ATOM     22  N   UNL     1       1.425  10.256  18.719  0.00  0.00    +0.000 N 
ATOM     23  C   UNL     1       0.770  11.546  18.737  0.00  0.00    +0.000 C 
ATOM     24  C   UNL     1       1.264   9.277  19.675  0.00  0.00    +0.000 A 
ATOM     25  C   UNL     1       0.552   9.280  20.887  0.00  0.00    +0.000 A 
ATOM     26  C   UNL     1       0.549   8.110  21.651  0.00  0.00    +0.000 A 
ATOM     27  C   UNL     1       1.233   6.977  21.224  0.00  0.00    +0.000 A 
ATOM     28  C   UNL     1       1.934   6.983  20.013  0.00  0.00    +0.000 A 
ATOM     29  C   UNL     1       1.954   8.150  19.218  0.00  0.00    +0.000 A 
ENDBRANCH  19  20
ENDBRANCH   1  19
TORSDOF 10
ENDMDL
