MODEL 1
REMARK VINA RESULT:      -9.0      0.000      0.000
REMARK  Name = 
REMARK  6 active torsions:
REMARK  status: ('A' for Active; 'I' for Inactive)
REMARK    1  A    between atoms: C_1  and  C_2
REMARK    2  A    between atoms: C_6  and  C_7
REMARK    3  A    between atoms: N_9  and  C_10
REMARK    4  A    between atoms: C_14  and  N_15
REMARK    5  A    between atoms: C_16  and  C_18
REMARK    6  A    between atoms: C_21  and  C_22
REMARK                            x       y       z     vdW  Elec       q    Type
REMARK                         _______ _______ _______ _____ _____    ______ ____
ROOT
ATOM      1  C   UNL     1       4.113   3.951  17.956  0.00  0.00    +0.000 A 
ATOM      2  C   UNL     1       4.218   2.826  18.778  0.00  0.00    +0.000 A 
ATOM      3  C   UNL     1       3.666   2.820  20.054  0.00  0.00    +0.000 A 
ATOM      4  C   UNL     1       2.985   3.938  20.523  0.00  0.00    +0.000 A 
ATOM      5  C   UNL     1       2.852   5.079  19.729  0.00  0.00    +0.000 A 
ATOM      6  C   UNL     1       3.469   5.098  18.461  0.00  0.00    +0.000 A 
ENDROOT
BRANCH   1   9
ATOM      7  C   UNL     1       5.876   4.393  16.255  0.00  0.00    +0.000 C 
ATOM      8  O   UNL     1       6.744   4.806  17.020  0.00  0.00    +0.000 OA
ATOM      9  N   UNL     1       4.606   3.957  16.621  0.00  0.00    +0.000 N 
ATOM     10  H   UNL     1       4.074   3.439  15.932  0.00  0.00    +0.000 HD
BRANCH   7  16
ATOM     11  C   UNL     1       5.098   2.751  11.527  0.00  0.00    +0.000 C 
ATOM     12  C   UNL     1       5.894   3.527  12.536  0.00  0.00    +0.000 A 
ATOM     13  C   UNL     1       6.995   4.290  12.121  0.00  0.00    +0.000 A 
ATOM     14  C   UNL     1       7.720   5.043  13.042  0.00  0.00    +0.000 A 
ATOM     15  C   UNL     1       7.348   5.038  14.384  0.00  0.00    +0.000 A 
ATOM     16  C   UNL     1       6.254   4.275  14.820  0.00  0.00    +0.000 A 
ATOM     17  C   UNL     1       5.526   3.519  13.895  0.00  0.00    +0.000 A 
ENDBRANCH   7  16
ENDBRANCH   1   9
BRANCH   5  18
ATOM     18  N   UNL     1       2.084   6.203  20.138  0.00  0.00    +0.000 N 
ATOM     19  C   UNL     1       2.124   7.458  19.538  0.00  0.00    +0.000 C 
ATOM     20  O   UNL     1       2.810   7.781  18.573  0.00  0.00    +0.000 OA
ATOM     21  H   UNL     1       1.621   6.129  21.032  0.00  0.00    +0.000 HD
BRANCH  19  22
ATOM     22  C   UNL     1       1.313   8.537  20.172  0.00  0.00    +0.000 A 
ATOM     23  C   UNL     1       1.085   8.453  21.556  0.00  0.00    +0.000 A 
ATOM     24  C   UNL     1       0.378   9.453  22.227  0.00  0.00    +0.000 A 
ATOM     25  C   UNL     1      -0.110  10.565  21.527  0.00  0.00    +0.000 A 
ATOM     26  C   UNL     1       0.126  10.650  20.143  0.00  0.00    +0.000 A 
ATOM     27  C   UNL     1       0.834   9.648  19.467  0.00  0.00    +0.000 A 
BRANCH  25  28
ATOM     28  C   UNL     1      -0.861  11.664  22.242  0.00  0.00    +0.000 C 
ATOM     29  F   UNL     1      -1.993  12.061  21.597  0.00  0.00    +0.000 F 
ATOM     30  F   UNL     1      -1.253  11.297  23.493  0.00  0.00    +0.000 F 
ATOM     31  F   UNL     1      -0.109  12.787  22.400  0.00  0.00    +0.000 F 
ENDBRANCH  25  28
ENDBRANCH  19  22
ENDBRANCH   5  18
TORSDOF 5
ENDMDL
MODEL 2
REMARK VINA RESULT:      -9.0      1.222      1.712
REMARK  Name = 
REMARK  6 active torsions:
REMARK  status: ('A' for Active; 'I' for Inactive)
REMARK    1  A    between atoms: C_1  and  C_2
REMARK    2  A    between atoms: C_6  and  C_7
REMARK    3  A    between atoms: N_9  and  C_10
REMARK    4  A    between atoms: C_14  and  N_15
REMARK    5  A    between atoms: C_16  and  C_18
REMARK    6  A    between atoms: C_21  and  C_22
REMARK                            x       y       z     vdW  Elec       q    Type
REMARK                         _______ _______ _______ _____ _____    ______ ____
ROOT
ATOM      1  C   UNL     1       3.895   4.158  19.340  0.00  0.00    +0.000 A 
ATOM      2  C   UNL     1       3.632   2.940  19.971  0.00  0.00    +0.000 A 
ATOM      3  C   UNL     1       2.729   2.862  21.026  0.00  0.00    +0.000 A 
ATOM      4  C   UNL     1       2.061   4.003  21.455  0.00  0.00    +0.000 A 
ATOM      5  C   UNL     1       2.291   5.238  20.845  0.00  0.00    +0.000 A 
ATOM      6  C   UNL     1       3.255   5.318  19.818  0.00  0.00    +0.000 A 
ENDROOT
BRANCH   1   9
ATOM      7  C   UNL     1       4.383   3.942  16.908  0.00  0.00    +0.000 C 
ATOM      8  O   UNL     1       3.268   3.573  16.548  0.00  0.00    +0.000 OA
ATOM      9  N   UNL     1       4.759   4.251  18.212  0.00  0.00    +0.000 N 
ATOM     10  H   UNL     1       5.631   4.749  18.341  0.00  0.00    +0.000 HD
BRANCH   7  16
ATOM     11  C   UNL     1       6.086   3.383  12.171  0.00  0.00    +0.000 C 
ATOM     12  C   UNL     1       6.225   3.926  13.564  0.00  0.00    +0.000 A 
ATOM     13  C   UNL     1       7.295   4.776  13.880  0.00  0.00    +0.000 A 
ATOM     14  C   UNL     1       7.416   5.315  15.158  0.00  0.00    +0.000 A 
ATOM     15  C   UNL     1       6.467   5.006  16.129  0.00  0.00    +0.000 A 
ATOM     16  C   UNL     1       5.394   4.151  15.836  0.00  0.00    +0.000 A 
ATOM     17  C   UNL     1       5.273   3.610  14.551  0.00  0.00    +0.000 A 
ENDBRANCH   7  16
ENDBRANCH   1   9
BRANCH   5  18
ATOM     18  N   UNL     1       1.560   6.406  21.195  0.00  0.00    +0.000 N 
ATOM     19  C   UNL     1       1.579   7.603  20.485  0.00  0.00    +0.000 C 
ATOM     20  O   UNL     1       2.213   7.829  19.458  0.00  0.00    +0.000 OA
ATOM     21  H   UNL     1       1.148   6.418  22.117  0.00  0.00    +0.000 HD
BRANCH  19  22
ATOM     22  C   UNL     1       0.817   8.746  21.065  0.00  0.00    +0.000 A 
ATOM     23  C   UNL     1       0.240   9.665  20.173  0.00  0.00    +0.000 A 
ATOM     24  C   UNL     1      -0.530  10.732  20.643  0.00  0.00    +0.000 A 
ATOM     25  C   UNL     1      -0.745  10.897  22.017  0.00  0.00    +0.000 A 
ATOM     26  C   UNL     1      -0.172   9.971  22.907  0.00  0.00    +0.000 A 
ATOM     27  C   UNL     1       0.601   8.900  22.440  0.00  0.00    +0.000 A 
BRANCH  25  28
ATOM     28  C   UNL     1      -1.591  12.035  22.540  0.00  0.00    +0.000 C 
ATOM     29  F   UNL     1      -2.085  12.844  21.560  0.00  0.00    +0.000 F 
ATOM     30  F   UNL     1      -2.670  11.600  23.244  0.00  0.00    +0.000 F 
ATOM     31  F   UNL     1      -0.898  12.850  23.381  0.00  0.00    +0.000 F 
ENDBRANCH  25  28
ENDBRANCH  19  22
ENDBRANCH   5  18
TORSDOF 5
ENDMDL
MODEL 3
REMARK VINA RESULT:      -8.7      0.438      1.599
REMARK  Name = 
REMARK  6 active torsions:
REMARK  status: ('A' for Active; 'I' for Inactive)
REMARK    1  A    between atoms: C_1  and  C_2
REMARK    2  A    between atoms: C_6  and  C_7
REMARK    3  A    between atoms: N_9  and  C_10
REMARK    4  A    between atoms: C_14  and  N_15
REMARK    5  A    between atoms: C_16  and  C_18
REMARK    6  A    between atoms: C_21  and  C_22
REMARK                            x       y       z     vdW  Elec       q    Type
REMARK                         _______ _______ _______ _____ _____    ______ ____
ROOT
ATOM      1  C   UNL     1       3.974   4.144  18.021  0.00  0.00    +0.000 A 
ATOM      2  C   UNL     1       4.025   2.947  18.741  0.00  0.00    +0.000 A 
ATOM      3  C   UNL     1       3.452   2.849  20.004  0.00  0.00    +0.000 A 
ATOM      4  C   UNL     1       2.801   3.945  20.560  0.00  0.00    +0.000 A 
ATOM      5  C   UNL     1       2.721   5.155  19.868  0.00  0.00    +0.000 A 
ATOM      6  C   UNL     1       3.361   5.264  18.616  0.00  0.00    +0.000 A 
ENDROOT
BRANCH   1   9
ATOM      7  C   UNL     1       5.839   4.409  16.393  0.00  0.00    +0.000 C 
ATOM      8  O   UNL     1       6.760   4.460  17.204  0.00  0.00    +0.000 OA
ATOM      9  N   UNL     1       4.490   4.249  16.699  0.00  0.00    +0.000 N 
ATOM     10  H   UNL     1       3.866   4.002  15.941  0.00  0.00    +0.000 HD
BRANCH   7  16
ATOM     11  C   UNL     1       8.744   5.963  12.547  0.00  0.00    +0.000 C 
ATOM     12  C   UNL     1       7.609   5.146  13.091  0.00  0.00    +0.000 A 
ATOM     13  C   UNL     1       6.913   4.266  12.249  0.00  0.00    +0.000 A 
ATOM     14  C   UNL     1       5.881   3.476  12.749  0.00  0.00    +0.000 A 
ATOM     15  C   UNL     1       5.538   3.562  14.096  0.00  0.00    +0.000 A 
ATOM     16  C   UNL     1       6.215   4.442  14.954  0.00  0.00    +0.000 A 
ATOM     17  C   UNL     1       7.253   5.235  14.450  0.00  0.00    +0.000 A 
ENDBRANCH   7  16
ENDBRANCH   1   9
BRANCH   5  18
ATOM     18  N   UNL     1       1.986   6.266  20.364  0.00  0.00    +0.000 N 
ATOM     19  C   UNL     1       1.974   7.535  19.793  0.00  0.00    +0.000 C 
ATOM     20  O   UNL     1       2.581   7.884  18.785  0.00  0.00    +0.000 OA
ATOM     21  H   UNL     1       1.595   6.168  21.290  0.00  0.00    +0.000 HD
BRANCH  19  22
ATOM     22  C   UNL     1       1.214   8.595  20.516  0.00  0.00    +0.000 A 
ATOM     23  C   UNL     1       0.566   9.575  19.743  0.00  0.00    +0.000 A 
ATOM     24  C   UNL     1      -0.206  10.569  20.349  0.00  0.00    +0.000 A 
ATOM     25  C   UNL     1      -0.354  10.598  21.742  0.00  0.00    +0.000 A 
ATOM     26  C   UNL     1       0.289   9.612  22.512  0.00  0.00    +0.000 A 
ATOM     27  C   UNL     1       1.066   8.614  21.908  0.00  0.00    +0.000 A 
BRANCH  25  28
ATOM     28  C   UNL     1      -1.201  11.656  22.410  0.00  0.00    +0.000 C 
ATOM     29  F   UNL     1      -2.117  12.228  21.580  0.00  0.00    +0.000 F 
ATOM     30  F   UNL     1      -1.906  11.166  23.466  0.00  0.00    +0.000 F 
ATOM     31  F   UNL     1      -0.454  12.682  22.903  0.00  0.00    +0.000 F 
ENDBRANCH  25  28
ENDBRANCH  19  22
ENDBRANCH   5  18
TORSDOF 5
ENDMDL
MODEL 4
REMARK VINA RESULT:      -8.6      0.938      1.207
REMARK  Name = 
REMARK  6 active torsions:
REMARK  status: ('A' for Active; 'I' for Inactive)
REMARK    1  A    between atoms: C_1  and  C_2
REMARK    2  A    between atoms: C_6  and  C_7
REMARK    3  A    between atoms: N_9  and  C_10
REMARK    4  A    between atoms: C_14  and  N_15
REMARK    5  A    between atoms: C_16  and  C_18
REMARK    6  A    between atoms: C_21  and  C_22
REMARK                            x       y       z     vdW  Elec       q    Type
REMARK                         _______ _______ _______ _____ _____    ______ ____
ROOT
ATOM      1  C   UNL     1       3.516   4.204  18.772  0.00  0.00    +0.000 A 
ATOM      2  C   UNL     1       3.516   3.060  19.575  0.00  0.00    +0.000 A 
ATOM      3  C   UNL     1       2.852   3.046  20.797  0.00  0.00    +0.000 A 
ATOM      4  C   UNL     1       2.162   4.174  21.228  0.00  0.00    +0.000 A 
ATOM      5  C   UNL     1       2.132   5.333  20.450  0.00  0.00    +0.000 A 
ATOM      6  C   UNL     1       2.861   5.359  19.242  0.00  0.00    +0.000 A 
ENDROOT
BRANCH   1   9
ATOM      7  C   UNL     1       5.448   4.586  17.249  0.00  0.00    +0.000 C 
ATOM      8  O   UNL     1       6.267   4.919  18.103  0.00  0.00    +0.000 OA
ATOM      9  N   UNL     1       4.126   4.220  17.486  0.00  0.00    +0.000 N 
ATOM     10  H   UNL     1       3.628   3.760  16.735  0.00  0.00    +0.000 HD
BRANCH   7  16
ATOM     11  C   UNL     1       4.910   3.348  12.368  0.00  0.00    +0.000 C 
ATOM     12  C   UNL     1       5.708   3.934  13.497  0.00  0.00    +0.000 A 
ATOM     13  C   UNL     1       6.947   4.539  13.237  0.00  0.00    +0.000 A 
ATOM     14  C   UNL     1       7.680   5.119  14.269  0.00  0.00    +0.000 A 
ATOM     15  C   UNL     1       7.179   5.097  15.568  0.00  0.00    +0.000 A 
ATOM     16  C   UNL     1       5.945   4.490  15.850  0.00  0.00    +0.000 A 
ATOM     17  C   UNL     1       5.208   3.908  14.812  0.00  0.00    +0.000 A 
ENDBRANCH   7  16
ENDBRANCH   1   9
BRANCH   5  18
ATOM     18  N   UNL     1       1.362   6.472  20.813  0.00  0.00    +0.000 N 
ATOM     19  C   UNL     1       1.509   7.743  20.266  0.00  0.00    +0.000 C 
ATOM     20  O   UNL     1       2.308   8.071  19.394  0.00  0.00    +0.000 OA
ATOM     21  H   UNL     1       0.800   6.386  21.648  0.00  0.00    +0.000 HD
BRANCH  19  22
ATOM     22  C   UNL     1       0.669   8.830  20.847  0.00  0.00    +0.000 A 
ATOM     23  C   UNL     1       0.264   8.696  22.186  0.00  0.00    +0.000 A 
ATOM     24  C   UNL     1      -0.481   9.698  22.812  0.00  0.00    +0.000 A 
ATOM     25  C   UNL     1      -0.830  10.861  22.113  0.00  0.00    +0.000 A 
ATOM     26  C   UNL     1      -0.416  10.995  20.775  0.00  0.00    +0.000 A 
ATOM     27  C   UNL     1       0.330   9.992  20.144  0.00  0.00    +0.000 A 
BRANCH  25  28
ATOM     28  C   UNL     1      -1.620  11.962  22.782  0.00  0.00    +0.000 C 
ATOM     29  F   UNL     1      -2.500  11.511  23.719  0.00  0.00    +0.000 F 
ATOM     30  F   UNL     1      -0.821  12.860  23.420  0.00  0.00    +0.000 F 
ATOM     31  F   UNL     1      -2.358  12.682  21.894  0.00  0.00    +0.000 F 
ENDBRANCH  25  28
ENDBRANCH  19  22
ENDBRANCH   5  18
TORSDOF 5
ENDMDL
MODEL 5
REMARK VINA RESULT:      -8.6      1.045      1.537
REMARK  Name = 
REMARK  6 active torsions:
REMARK  status: ('A' for Active; 'I' for Inactive)
REMARK    1  A    between atoms: C_1  and  C_2
REMARK    2  A    between atoms: C_6  and  C_7
REMARK    3  A    between atoms: N_9  and  C_10
REMARK    4  A    between atoms: C_14  and  N_15
REMARK    5  A    between atoms: C_16  and  C_18
REMARK    6  A    between atoms: C_21  and  C_22
REMARK                            x       y       z     vdW  Elec       q    Type
REMARK                         _______ _______ _______ _____ _____    ______ ____
ROOT
ATOM      1  C   UNL     1       4.220   4.444  17.643  0.00  0.00    +0.000 A 
ATOM      2  C   UNL     1       4.398   3.483  18.642  0.00  0.00    +0.000 A 
ATOM      3  C   UNL     1       3.826   3.645  19.900  0.00  0.00    +0.000 A 
ATOM      4  C   UNL     1       3.050   4.767  20.172  0.00  0.00    +0.000 A 
ATOM      5  C   UNL     1       2.842   5.745  19.197  0.00  0.00    +0.000 A 
ATOM      6  C   UNL     1       3.478   5.603  17.946  0.00  0.00    +0.000 A 
ENDROOT
BRANCH   1   9
ATOM      7  C   UNL     1       5.885   4.882  15.846  0.00  0.00    +0.000 C 
ATOM      8  O   UNL     1       6.620   5.634  16.481  0.00  0.00    +0.000 OA
ATOM      9  N   UNL     1       4.734   4.266  16.328  0.00  0.00    +0.000 N 
ATOM     10  H   UNL     1       4.348   3.506  15.782  0.00  0.00    +0.000 HD
BRANCH   7  16
ATOM     11  C   UNL     1       5.342   2.426  11.450  0.00  0.00    +0.000 C 
ATOM     12  C   UNL     1       6.069   3.399  12.332  0.00  0.00    +0.000 A 
ATOM     13  C   UNL     1       7.151   4.132  11.823  0.00  0.00    +0.000 A 
ATOM     14  C   UNL     1       7.811   5.064  12.620  0.00  0.00    +0.000 A 
ATOM     15  C   UNL     1       7.392   5.269  13.932  0.00  0.00    +0.000 A 
ATOM     16  C   UNL     1       6.317   4.540  14.464  0.00  0.00    +0.000 A 
ATOM     17  C   UNL     1       5.654   3.604  13.662  0.00  0.00    +0.000 A 
ENDBRANCH   7  16
ENDBRANCH   1   9
BRANCH   5  18
ATOM     18  N   UNL     1       1.981   6.857  19.408  0.00  0.00    +0.000 N 
ATOM     19  C   UNL     1       2.108   8.095  18.786  0.00  0.00    +0.000 C 
ATOM     20  O   UNL     1       2.964   8.412  17.965  0.00  0.00    +0.000 OA
ATOM     21  H   UNL     1       1.352   6.793  20.196  0.00  0.00    +0.000 HD
BRANCH  19  22
ATOM     22  C   UNL     1       1.161   9.166  19.211  0.00  0.00    +0.000 A 
ATOM     23  C   UNL     1       0.478   9.870  18.205  0.00  0.00    +0.000 A 
ATOM     24  C   UNL     1      -0.461  10.851  18.530  0.00  0.00    +0.000 A 
ATOM     25  C   UNL     1      -0.743  11.143  19.870  0.00  0.00    +0.000 A 
ATOM     26  C   UNL     1      -0.063  10.432  20.876  0.00  0.00    +0.000 A 
ATOM     27  C   UNL     1       0.880   9.448  20.554  0.00  0.00    +0.000 A 
BRANCH  25  28
ATOM     28  C   UNL     1      -1.770  12.190  20.238  0.00  0.00    +0.000 C 
ATOM     29  F   UNL     1      -2.875  12.174  19.441  0.00  0.00    +0.000 F 
ATOM     30  F   UNL     1      -2.225  12.046  21.512  0.00  0.00    +0.000 F 
ATOM     31  F   UNL     1      -1.272  13.454  20.159  0.00  0.00    +0.000 F 
ENDBRANCH  25  28
ENDBRANCH  19  22
ENDBRANCH   5  18
TORSDOF 5
ENDMDL
MODEL 6
REMARK VINA RESULT:      -8.5      5.160      9.844
REMARK  Name = 
REMARK  6 active torsions:
REMARK  status: ('A' for Active; 'I' for Inactive)
REMARK    1  A    between atoms: C_1  and  C_2
REMARK    2  A    between atoms: C_6  and  C_7
REMARK    3  A    between atoms: N_9  and  C_10
REMARK    4  A    between atoms: C_14  and  N_15
REMARK    5  A    between atoms: C_16  and  C_18
REMARK    6  A    between atoms: C_21  and  C_22
REMARK                            x       y       z     vdW  Elec       q    Type
REMARK                         _______ _______ _______ _____ _____    ______ ____
ROOT
ATOM      1  C   UNL     1       2.151   5.110  20.714  0.00  0.00    +0.000 A 
ATOM      2  C   UNL     1       2.160   4.007  21.572  0.00  0.00    +0.000 A 
ATOM      3  C   UNL     1       2.754   2.810  21.189  0.00  0.00    +0.000 A 
ATOM      4  C   UNL     1       3.364   2.702  19.944  0.00  0.00    +0.000 A 
ATOM      5  C   UNL     1       3.383   3.785  19.062  0.00  0.00    +0.000 A 
ATOM      6  C   UNL     1       2.723   4.975  19.434  0.00  0.00    +0.000 A 
ENDROOT
BRANCH   1   9
ATOM      7  C   UNL     1       1.748   7.544  20.379  0.00  0.00    +0.000 C 
ATOM      8  O   UNL     1       2.319   7.658  19.297  0.00  0.00    +0.000 OA
ATOM      9  N   UNL     1       1.614   6.367  21.111  0.00  0.00    +0.000 N 
ATOM     10  H   UNL     1       0.939   6.362  21.865  0.00  0.00    +0.000 HD
BRANCH   7  16
ATOM     11  C   UNL     1      -0.440  12.074  19.799  0.00  0.00    +0.000 C 
ATOM     12  C   UNL     1      -0.008  10.922  20.659  0.00  0.00    +0.000 A 
ATOM     13  C   UNL     1      -0.342  10.902  22.021  0.00  0.00    +0.000 A 
ATOM     14  C   UNL     1       0.022   9.823  22.823  0.00  0.00    +0.000 A 
ATOM     15  C   UNL     1       0.722   8.756  22.266  0.00  0.00    +0.000 A 
ATOM     16  C   UNL     1       1.073   8.760  20.907  0.00  0.00    +0.000 A 
ATOM     17  C   UNL     1       0.707   9.845  20.102  0.00  0.00    +0.000 A 
ENDBRANCH   7  16
ENDBRANCH   1   9
BRANCH   5  18
ATOM     18  N   UNL     1       4.077   3.742  17.822  0.00  0.00    +0.000 N 
ATOM     19  C   UNL     1       5.145   4.564  17.476  0.00  0.00    +0.000 C 
ATOM     20  O   UNL     1       5.651   5.434  18.179  0.00  0.00    +0.000 OA
ATOM     21  H   UNL     1       3.645   3.204  17.084  0.00  0.00    +0.000 HD
BRANCH  19  22
ATOM     22  C   UNL     1       5.679   4.430  16.090  0.00  0.00    +0.000 A 
ATOM     23  C   UNL     1       4.831   3.881  15.114  0.00  0.00    +0.000 A 
ATOM     24  C   UNL     1       5.245   3.771  13.785  0.00  0.00    +0.000 A 
ATOM     25  C   UNL     1       6.516   4.218  13.402  0.00  0.00    +0.000 A 
ATOM     26  C   UNL     1       7.361   4.775  14.379  0.00  0.00    +0.000 A 
ATOM     27  C   UNL     1       6.949   4.885  15.714  0.00  0.00    +0.000 A 
BRANCH  25  28
ATOM     28  C   UNL     1       6.972   4.124  11.964  0.00  0.00    +0.000 C 
ATOM     29  F   UNL     1       5.949   4.135  11.064  0.00  0.00    +0.000 F 
ATOM     30  F   UNL     1       7.792   5.150  11.610  0.00  0.00    +0.000 F 
ATOM     31  F   UNL     1       7.672   2.983  11.717  0.00  0.00    +0.000 F 
ENDBRANCH  25  28
ENDBRANCH  19  22
ENDBRANCH   5  18
TORSDOF 5
ENDMDL
MODEL 7
REMARK VINA RESULT:      -8.5      0.520      1.541
REMARK  Name = 
REMARK  6 active torsions:
REMARK  status: ('A' for Active; 'I' for Inactive)
REMARK    1  A    between atoms: C_1  and  C_2
REMARK    2  A    between atoms: C_6  and  C_7
REMARK    3  A    between atoms: N_9  and  C_10
REMARK    4  A    between atoms: C_14  and  N_15
REMARK    5  A    between atoms: C_16  and  C_18
REMARK    6  A    between atoms: C_21  and  C_22
REMARK                            x       y       z     vdW  Elec       q    Type
REMARK                         _______ _______ _______ _____ _____    ______ ____
ROOT
ATOM      1  C   UNL     1       3.976   4.311  18.083  0.00  0.00    +0.000 A 
ATOM      2  C   UNL     1       4.099   3.157  18.862  0.00  0.00    +0.000 A 
ATOM      3  C   UNL     1       3.524   3.083  20.126  0.00  0.00    +0.000 A 
ATOM      4  C   UNL     1       2.801   4.161  20.625  0.00  0.00    +0.000 A 
ATOM      5  C   UNL     1       2.649   5.329  19.874  0.00  0.00    +0.000 A 
ATOM      6  C   UNL     1       3.289   5.417  18.620  0.00  0.00    +0.000 A 
ENDROOT
BRANCH   1   9
ATOM      7  C   UNL     1       5.848   4.465  16.449  0.00  0.00    +0.000 C 
ATOM      8  O   UNL     1       6.773   4.463  17.257  0.00  0.00    +0.000 OA
ATOM      9  N   UNL     1       4.493   4.384  16.759  0.00  0.00    +0.000 N 
ATOM     10  H   UNL     1       3.853   4.173  16.004  0.00  0.00    +0.000 HD
BRANCH   7  16
ATOM     11  C   UNL     1       8.744   5.955  12.571  0.00  0.00    +0.000 C 
ATOM     12  C   UNL     1       7.610   5.147  13.131  0.00  0.00    +0.000 A 
ATOM     13  C   UNL     1       6.913   4.253  12.306  0.00  0.00    +0.000 A 
ATOM     14  C   UNL     1       5.882   3.472  12.821  0.00  0.00    +0.000 A 
ATOM     15  C   UNL     1       5.541   3.580  14.168  0.00  0.00    +0.000 A 
ATOM     16  C   UNL     1       6.221   4.474  15.009  0.00  0.00    +0.000 A 
ATOM     17  C   UNL     1       7.257   5.259  14.490  0.00  0.00    +0.000 A 
ENDBRANCH   7  16
ENDBRANCH   1   9
BRANCH   5  18
ATOM     18  N   UNL     1       1.841   6.413  20.312  0.00  0.00    +0.000 N 
ATOM     19  C   UNL     1       1.853   7.691  19.762  0.00  0.00    +0.000 C 
ATOM     20  O   UNL     1       2.547   8.073  18.824  0.00  0.00    +0.000 OA
ATOM     21  H   UNL     1       1.364   6.290  21.194  0.00  0.00    +0.000 HD
BRANCH  19  22
ATOM     22  C   UNL     1       0.999   8.720  20.423  0.00  0.00    +0.000 A 
ATOM     23  C   UNL     1       0.850   8.646  21.818  0.00  0.00    +0.000 A 
ATOM     24  C   UNL     1       0.106   9.604  22.511  0.00  0.00    +0.000 A 
ATOM     25  C   UNL     1      -0.498  10.663  21.821  0.00  0.00    +0.000 A 
ATOM     26  C   UNL     1      -0.341  10.739  20.426  0.00  0.00    +0.000 A 
ATOM     27  C   UNL     1       0.403   9.779  19.728  0.00  0.00    +0.000 A 
BRANCH  25  28
ATOM     28  C   UNL     1      -1.290  11.718  22.559  0.00  0.00    +0.000 C 
ATOM     29  F   UNL     1      -0.525  12.732  23.051  0.00  0.00    +0.000 F 
ATOM     30  F   UNL     1      -2.230  12.307  21.771  0.00  0.00    +0.000 F 
ATOM     31  F   UNL     1      -1.963  11.208  23.627  0.00  0.00    +0.000 F 
ENDBRANCH  25  28
ENDBRANCH  19  22
ENDBRANCH   5  18
TORSDOF 5
ENDMDL
MODEL 8
REMARK VINA RESULT:      -8.5      5.442     10.930
REMARK  Name = 
REMARK  6 active torsions:
REMARK  status: ('A' for Active; 'I' for Inactive)
REMARK    1  A    between atoms: C_1  and  C_2
REMARK    2  A    between atoms: C_6  and  C_7
REMARK    3  A    between atoms: N_9  and  C_10
REMARK    4  A    between atoms: C_14  and  N_15
REMARK    5  A    between atoms: C_16  and  C_18
REMARK    6  A    between atoms: C_21  and  C_22
REMARK                            x       y       z     vdW  Elec       q    Type
REMARK                         _______ _______ _______ _____ _____    ______ ____
ROOT
ATOM      1  C   UNL     1      -0.972  11.803  19.051  0.00  0.00    +0.000 A 
ATOM      2  C   UNL     1      -0.109  12.881  18.837  0.00  0.00    +0.000 A 
ATOM      3  C   UNL     1       1.250  12.676  18.621  0.00  0.00    +0.000 A 
ATOM      4  C   UNL     1       1.764  11.384  18.599  0.00  0.00    +0.000 A 
ATOM      5  C   UNL     1       0.932  10.281  18.801  0.00  0.00    +0.000 A 
ATOM      6  C   UNL     1      -0.432  10.502  19.082  0.00  0.00    +0.000 A 
ENDROOT
BRANCH   1   9
ATOM      7  C   UNL     1      -3.307  11.769  18.189  0.00  0.00    +0.000 C 
ATOM      8  O   UNL     1      -3.057  11.385  17.049  0.00  0.00    +0.000 OA
ATOM      9  N   UNL     1      -2.376  11.981  19.202  0.00  0.00    +0.000 N 
ATOM     10  H   UNL     1      -2.728  12.082  20.146  0.00  0.00    +0.000 HD
BRANCH   7  16
ATOM     11  C   UNL     1      -7.058  12.741  21.451  0.00  0.00    +0.000 C 
ATOM     12  C   UNL     1      -6.564  12.436  20.067  0.00  0.00    +0.000 A 
ATOM     13  C   UNL     1      -7.464  12.420  18.991  0.00  0.00    +0.000 A 
ATOM     14  C   UNL     1      -7.014  12.174  17.696  0.00  0.00    +0.000 A 
ATOM     15  C   UNL     1      -5.660  11.942  17.469  0.00  0.00    +0.000 A 
ATOM     16  C   UNL     1      -4.744  11.945  18.533  0.00  0.00    +0.000 A 
ATOM     17  C   UNL     1      -5.197  12.193  19.834  0.00  0.00    +0.000 A 
ENDBRANCH   7  16
ENDBRANCH   1   9
BRANCH   5  18
ATOM     18  N   UNL     1       1.404   8.944  18.693  0.00  0.00    +0.000 N 
ATOM     19  C   UNL     1       1.701   8.113  19.768  0.00  0.00    +0.000 C 
ATOM     20  O   UNL     1       1.595   8.396  20.958  0.00  0.00    +0.000 OA
ATOM     21  H   UNL     1       1.714   8.650  17.777  0.00  0.00    +0.000 HD
BRANCH  19  22
ATOM     22  C   UNL     1       2.276   6.774  19.450  0.00  0.00    +0.000 A 
ATOM     23  C   UNL     1       2.067   5.737  20.376  0.00  0.00    +0.000 A 
ATOM     24  C   UNL     1       2.533   4.445  20.121  0.00  0.00    +0.000 A 
ATOM     25  C   UNL     1       3.210   4.161  18.929  0.00  0.00    +0.000 A 
ATOM     26  C   UNL     1       3.411   5.198  18.000  0.00  0.00    +0.000 A 
ATOM     27  C   UNL     1       2.947   6.495  18.253  0.00  0.00    +0.000 A 
BRANCH  25  28
ATOM     28  C   UNL     1       3.703   2.763  18.630  0.00  0.00    +0.000 C 
ATOM     29  F   UNL     1       4.215   2.620  17.376  0.00  0.00    +0.000 F 
ATOM     30  F   UNL     1       4.687   2.367  19.483  0.00  0.00    +0.000 F 
ATOM     31  F   UNL     1       2.717   1.832  18.739  0.00  0.00    +0.000 F 
ENDBRANCH  25  28
ENDBRANCH  19  22
ENDBRANCH   5  18
TORSDOF 5
ENDMDL
MODEL 9
REMARK VINA RESULT:      -8.5      1.013      1.388
REMARK  Name = 
REMARK  6 active torsions:
REMARK  status: ('A' for Active; 'I' for Inactive)
REMARK    1  A    between atoms: C_1  and  C_2
REMARK    2  A    between atoms: C_6  and  C_7
REMARK    3  A    between atoms: N_9  and  C_10
REMARK    4  A    between atoms: C_14  and  N_15
REMARK    5  A    between atoms: C_16  and  C_18
REMARK    6  A    between atoms: C_21  and  C_22
REMARK                            x       y       z     vdW  Elec       q    Type
REMARK                         _______ _______ _______ _____ _____    ______ ____
ROOT
ATOM      1  C   UNL     1       4.253   4.373  17.654  0.00  0.00    +0.000 A 
ATOM      2  C   UNL     1       4.147   3.256  18.487  0.00  0.00    +0.000 A 
ATOM      3  C   UNL     1       3.601   3.366  19.762  0.00  0.00    +0.000 A 
ATOM      4  C   UNL     1       3.136   4.595  20.217  0.00  0.00    +0.000 A 
ATOM      5  C   UNL     1       3.217   5.732  19.410  0.00  0.00    +0.000 A 
ATOM      6  C   UNL     1       3.830   5.624  18.144  0.00  0.00    +0.000 A 
ENDROOT
BRANCH   1   9
ATOM      7  C   UNL     1       6.036   4.605  15.932  0.00  0.00    +0.000 C 
ATOM      8  O   UNL     1       6.932   5.002  16.673  0.00  0.00    +0.000 OA
ATOM      9  N   UNL     1       4.741   4.273  16.321  0.00  0.00    +0.000 N 
ATOM     10  H   UNL     1       4.174   3.755  15.661  0.00  0.00    +0.000 HD
BRANCH   7  16
ATOM     11  C   UNL     1       5.322   2.477  11.392  0.00  0.00    +0.000 C 
ATOM     12  C   UNL     1       6.068   3.403  12.308  0.00  0.00    +0.000 A 
ATOM     13  C   UNL     1       7.099   4.208  11.801  0.00  0.00    +0.000 A 
ATOM     14  C   UNL     1       7.775   5.097  12.633  0.00  0.00    +0.000 A 
ATOM     15  C   UNL     1       7.424   5.187  13.978  0.00  0.00    +0.000 A 
ATOM     16  C   UNL     1       6.401   4.385  14.506  0.00  0.00    +0.000 A 
ATOM     17  C   UNL     1       5.722   3.492  13.669  0.00  0.00    +0.000 A 
ENDBRANCH   7  16
ENDBRANCH   1   9
BRANCH   5  18
ATOM     18  N   UNL     1       2.669   6.983  19.804  0.00  0.00    +0.000 N 
ATOM     19  C   UNL     1       1.555   7.145  20.622  0.00  0.00    +0.000 C 
ATOM     20  O   UNL     1       0.889   6.247  21.130  0.00  0.00    +0.000 OA
ATOM     21  H   UNL     1       3.004   7.796  19.307  0.00  0.00    +0.000 HD
BRANCH  19  22
ATOM     22  C   UNL     1       1.076   8.539  20.845  0.00  0.00    +0.000 A 
ATOM     23  C   UNL     1       1.117   9.425  19.754  0.00  0.00    +0.000 A 
ATOM     24  C   UNL     1       0.638  10.731  19.874  0.00  0.00    +0.000 A 
ATOM     25  C   UNL     1       0.099  11.177  21.087  0.00  0.00    +0.000 A 
ATOM     26  C   UNL     1       0.052  10.287  22.175  0.00  0.00    +0.000 A 
ATOM     27  C   UNL     1       0.532   8.976  22.059  0.00  0.00    +0.000 A 
BRANCH  25  28
ATOM     28  C   UNL     1      -0.441  12.582  21.228  0.00  0.00    +0.000 C 
ATOM     29  F   UNL     1      -1.756  12.699  20.891  0.00  0.00    +0.000 F 
ATOM     30  F   UNL     1      -0.338  13.054  22.500  0.00  0.00    +0.000 F 
ATOM     31  F   UNL     1       0.226  13.473  20.443  0.00  0.00    +0.000 F 
ENDBRANCH  25  28
ENDBRANCH  19  22
ENDBRANCH   5  18
TORSDOF 5
ENDMDL
