MODEL 1
REMARK VINA RESULT:      -7.9      0.000      0.000
REMARK  Name = 
REMARK  6 active torsions:
REMARK  status: ('A' for Active; 'I' for Inactive)
REMARK    1  A    between atoms: N_3  and  C_4
REMARK    2  A    between atoms: N_13  and  C_14
REMARK    3  A    between atoms: C_14  and  C_15
REMARK    4  A    between atoms: C_19  and  O_20
REMARK    5  A    between atoms: O_20  and  C_21
REMARK    6  A    between atoms: C_24  and  C_25
REMARK                            x       y       z     vdW  Elec       q    Type
REMARK                         _______ _______ _______ _____ _____    ______ ____
ROOT
ATOM      1  C   UNL     1       0.965   6.887  20.556  0.00  0.00    +0.000 C 
ENDROOT
BRANCH   1   8
ATOM      2  O   UNL     1      -0.726  11.673  23.131  0.00  0.00    +0.000 OA
ATOM      3  C   UNL     1      -0.783  11.393  21.935  0.00  0.00    +0.000 C 
ATOM      4  N   UNL     1      -1.357  12.207  20.983  0.00  0.00    +0.000 N 
ATOM      5  N   UNL     1      -0.256  10.202  21.462  0.00  0.00    +0.000 N 
ATOM      6  C   UNL     1      -0.186   9.734  20.071  0.00  0.00    +0.000 C 
ATOM      7  C   UNL     1       1.206   9.151  19.724  0.00  0.00    +0.000 C 
ATOM      8  N   UNL     1       1.725   8.145  20.684  0.00  0.00    +0.000 NA
ATOM      9  C   UNL     1       1.676   8.754  22.033  0.00  0.00    +0.000 C 
ATOM     10  C   UNL     1       0.287   9.262  22.450  0.00  0.00    +0.000 C 
ATOM     11  H   UNL     1      -1.649  11.767  20.130  0.00  0.00    +0.000 HD
BRANCH   4  12
ATOM     12  C   UNL     1      -1.828  13.523  21.192  0.00  0.00    +0.000 A 
ATOM     13  C   UNL     1      -3.065  13.839  21.743  0.00  0.00    +0.000 A 
ATOM     14  C   UNL     1      -3.460  15.172  21.851  0.00  0.00    +0.000 A 
ATOM     15  C   UNL     1      -2.587  16.155  21.423  0.00  0.00    +0.000 A 
ATOM     16  N   UNL     1      -1.356  15.898  20.928  0.00  0.00    +0.000 NA
ATOM     17  C   UNL     1      -1.009  14.594  20.828  0.00  0.00    +0.000 A 
ENDBRANCH   4  12
ENDBRANCH   1   8
BRANCH   1  18
ATOM     18  C   UNL     1       1.795   5.632  20.402  0.00  0.00    +0.000 A 
ATOM     19  C   UNL     1       1.257   4.359  20.626  0.00  0.00    +0.000 A 
ATOM     20  C   UNL     1       2.060   3.221  20.513  0.00  0.00    +0.000 A 
ATOM     21  C   UNL     1       3.393   3.338  20.112  0.00  0.00    +0.000 A 
ATOM     22  C   UNL     1       3.927   4.595  19.833  0.00  0.00    +0.000 A 
ATOM     23  C   UNL     1       3.150   5.734  20.047  0.00  0.00    +0.000 A 
BRANCH  22  24
ATOM     24  O   UNL     1       5.234   4.641  19.398  0.00  0.00    +0.000 OA
BRANCH  24  25
ATOM     25  C   UNL     1       5.497   4.519  18.049  0.00  0.00    +0.000 A 
ATOM     26  C   UNL     1       4.405   4.230  17.230  0.00  0.00    +0.000 A 
ATOM     27  C   UNL     1       4.579   4.081  15.849  0.00  0.00    +0.000 A 
ATOM     28  C   UNL     1       5.850   4.217  15.273  0.00  0.00    +0.000 A 
ATOM     29  C   UNL     1       6.939   4.529  16.100  0.00  0.00    +0.000 A 
ATOM     30  C   UNL     1       6.756   4.712  17.472  0.00  0.00    +0.000 A 
BRANCH  28  31
ATOM     31  C   UNL     1       6.063   4.057  13.786  0.00  0.00    +0.000 C 
ATOM     32  F   UNL     1       4.950   4.314  13.045  0.00  0.00    +0.000 F 
ATOM     33  F   UNL     1       7.028   4.891  13.309  0.00  0.00    +0.000 F 
ATOM     34  F   UNL     1       6.455   2.798  13.447  0.00  0.00    +0.000 F 
ENDBRANCH  28  31
ENDBRANCH  24  25
ENDBRANCH  22  24
ENDBRANCH   1  18
TORSDOF 6
ENDMDL
MODEL 2
REMARK VINA RESULT:      -7.7      4.749      6.564
REMARK  Name = 
REMARK  6 active torsions:
REMARK  status: ('A' for Active; 'I' for Inactive)
REMARK    1  A    between atoms: N_3  and  C_4
REMARK    2  A    between atoms: N_13  and  C_14
REMARK    3  A    between atoms: C_14  and  C_15
REMARK    4  A    between atoms: C_19  and  O_20
REMARK    5  A    between atoms: O_20  and  C_21
REMARK    6  A    between atoms: C_24  and  C_25
REMARK                            x       y       z     vdW  Elec       q    Type
REMARK                         _______ _______ _______ _____ _____    ______ ____
ROOT
ATOM      1  C   UNL     1      -0.689  11.721  19.735  0.00  0.00    +0.000 C 
ENDROOT
BRANCH   1   8
ATOM      2  O   UNL     1       2.645  15.939  17.865  0.00  0.00    +0.000 OA
ATOM      3  C   UNL     1       2.933  15.031  18.643  0.00  0.00    +0.000 C 
ATOM      4  N   UNL     1       4.194  14.837  19.163  0.00  0.00    +0.000 N 
ATOM      5  N   UNL     1       1.973  14.120  19.053  0.00  0.00    +0.000 N 
ATOM      6  C   UNL     1       2.124  13.016  20.011  0.00  0.00    +0.000 C 
ATOM      7  C   UNL     1       0.952  12.960  21.021  0.00  0.00    +0.000 C 
ATOM      8  N   UNL     1      -0.403  12.999  20.416  0.00  0.00    +0.000 NA
ATOM      9  C   UNL     1      -0.460  14.188  19.534  0.00  0.00    +0.000 C 
ATOM     10  C   UNL     1       0.636  14.232  18.458  0.00  0.00    +0.000 C 
ATOM     11  H   UNL     1       4.406  13.916  19.501  0.00  0.00    +0.000 HD
BRANCH   4  12
ATOM     12  C   UNL     1       5.297  15.708  19.011  0.00  0.00    +0.000 A 
ATOM     13  C   UNL     1       6.487  15.371  18.377  0.00  0.00    +0.000 A 
ATOM     14  C   UNL     1       7.538  16.285  18.333  0.00  0.00    +0.000 A 
ATOM     15  C   UNL     1       7.354  17.528  18.910  0.00  0.00    +0.000 A 
ATOM     16  N   UNL     1       6.199  17.919  19.492  0.00  0.00    +0.000 NA
ATOM     17  C   UNL     1       5.203  17.003  19.526  0.00  0.00    +0.000 A 
ENDBRANCH   4  12
ENDBRANCH   1   8
BRANCH   1  18
ATOM     18  C   UNL     1      -0.141  10.483  20.409  0.00  0.00    +0.000 A 
ATOM     19  C   UNL     1      -0.651  10.020  21.628  0.00  0.00    +0.000 A 
ATOM     20  C   UNL     1      -0.099   8.895  22.245  0.00  0.00    +0.000 A 
ATOM     21  C   UNL     1       0.927   8.182  21.619  0.00  0.00    +0.000 A 
ATOM     22  C   UNL     1       1.407   8.600  20.379  0.00  0.00    +0.000 A 
ATOM     23  C   UNL     1       0.922   9.782  19.818  0.00  0.00    +0.000 A 
BRANCH  22  24
ATOM     24  O   UNL     1       2.387   7.830  19.792  0.00  0.00    +0.000 OA
BRANCH  24  25
ATOM     25  C   UNL     1       2.148   6.487  19.579  0.00  0.00    +0.000 A 
ATOM     26  C   UNL     1       2.275   6.037  18.265  0.00  0.00    +0.000 A 
ATOM     27  C   UNL     1       2.044   4.693  17.954  0.00  0.00    +0.000 A 
ATOM     28  C   UNL     1       1.680   3.782  18.957  0.00  0.00    +0.000 A 
ATOM     29  C   UNL     1       1.577   4.238  20.280  0.00  0.00    +0.000 A 
ATOM     30  C   UNL     1       1.843   5.572  20.592  0.00  0.00    +0.000 A 
BRANCH  28  31
ATOM     31  C   UNL     1       1.422   2.327  18.645  0.00  0.00    +0.000 C 
ATOM     32  F   UNL     1       2.095   1.877  17.550  0.00  0.00    +0.000 F 
ATOM     33  F   UNL     1       1.786   1.506  19.669  0.00  0.00    +0.000 F 
ATOM     34  F   UNL     1       0.107   2.069  18.408  0.00  0.00    +0.000 F 
ENDBRANCH  28  31
ENDBRANCH  24  25
ENDBRANCH  22  24
ENDBRANCH   1  18
TORSDOF 6
ENDMDL
MODEL 3
REMARK VINA RESULT:      -7.7      7.805      9.162
REMARK  Name = 
REMARK  6 active torsions:
REMARK  status: ('A' for Active; 'I' for Inactive)
REMARK    1  A    between atoms: N_3  and  C_4
REMARK    2  A    between atoms: N_13  and  C_14
REMARK    3  A    between atoms: C_14  and  C_15
REMARK    4  A    between atoms: C_19  and  O_20
REMARK    5  A    between atoms: O_20  and  C_21
REMARK    6  A    between atoms: C_24  and  C_25
REMARK                            x       y       z     vdW  Elec       q    Type
REMARK                         _______ _______ _______ _____ _____    ______ ____
ROOT
ATOM      1  C   UNL     1       8.232   9.712  17.887  0.00  0.00    +0.000 C 
ENDROOT
BRANCH   1   8
ATOM      2  O   UNL     1       9.634  14.288  20.969  0.00  0.00    +0.000 OA
ATOM      3  C   UNL     1       9.804  14.102  19.765  0.00  0.00    +0.000 C 
ATOM      4  N   UNL     1      10.327  15.046  18.909  0.00  0.00    +0.000 N 
ATOM      5  N   UNL     1       9.466  12.890  19.183  0.00  0.00    +0.000 N 
ATOM      6  C   UNL     1       9.650  12.477  17.785  0.00  0.00    +0.000 C 
ATOM      7  C   UNL     1      10.243  11.051  17.675  0.00  0.00    +0.000 C 
ATOM      8  N   UNL     1       9.548  10.016  18.482  0.00  0.00    +0.000 NA
ATOM      9  C   UNL     1       9.490  10.508  19.877  0.00  0.00    +0.000 C 
ATOM     10  C   UNL     1       8.823  11.884  20.036  0.00  0.00    +0.000 C 
ATOM     11  H   UNL     1      10.121  14.933  17.934  0.00  0.00    +0.000 HD
BRANCH   4  12
ATOM     12  C   UNL     1      10.876  16.292  19.286  0.00  0.00    +0.000 A 
ATOM     13  C   UNL     1      11.490  17.180  18.409  0.00  0.00    +0.000 A 
ATOM     14  C   UNL     1      12.054  18.360  18.893  0.00  0.00    +0.000 A 
ATOM     15  C   UNL     1      11.963  18.627  20.246  0.00  0.00    +0.000 A 
ATOM     16  N   UNL     1      11.332  17.820  21.127  0.00  0.00    +0.000 NA
ATOM     17  C   UNL     1      10.805  16.679  20.626  0.00  0.00    +0.000 A 
ENDBRANCH   4  12
ENDBRANCH   1   8
BRANCH   1  18
ATOM     18  C   UNL     1       7.781   8.273  17.994  0.00  0.00    +0.000 A 
ATOM     19  C   UNL     1       8.414   7.364  18.851  0.00  0.00    +0.000 A 
ATOM     20  C   UNL     1       7.998   6.030  18.900  0.00  0.00    +0.000 A 
ATOM     21  C   UNL     1       6.905   5.606  18.141  0.00  0.00    +0.000 A 
ATOM     22  C   UNL     1       6.231   6.514  17.325  0.00  0.00    +0.000 A 
ATOM     23  C   UNL     1       6.715   7.817  17.203  0.00  0.00    +0.000 A 
BRANCH  22  24
ATOM     24  O   UNL     1       5.133   6.046  16.636  0.00  0.00    +0.000 OA
BRANCH  24  25
ATOM     25  C   UNL     1       4.145   5.373  17.326  0.00  0.00    +0.000 A 
ATOM     26  C   UNL     1       3.967   4.029  16.997  0.00  0.00    +0.000 A 
ATOM     27  C   UNL     1       2.983   3.270  17.640  0.00  0.00    +0.000 A 
ATOM     28  C   UNL     1       2.164   3.849  18.620  0.00  0.00    +0.000 A 
ATOM     29  C   UNL     1       2.364   5.195  18.961  0.00  0.00    +0.000 A 
ATOM     30  C   UNL     1       3.370   5.940  18.343  0.00  0.00    +0.000 A 
BRANCH  28  31
ATOM     31  C   UNL     1       1.092   3.051  19.324  0.00  0.00    +0.000 C 
ATOM     32  F   UNL     1       1.585   2.109  20.175  0.00  0.00    +0.000 F 
ATOM     33  F   UNL     1       0.272   3.837  20.075  0.00  0.00    +0.000 F 
ATOM     34  F   UNL     1       0.282   2.384  18.458  0.00  0.00    +0.000 F 
ENDBRANCH  28  31
ENDBRANCH  24  25
ENDBRANCH  22  24
ENDBRANCH   1  18
TORSDOF 6
ENDMDL
MODEL 4
REMARK VINA RESULT:      -7.6      1.559      2.209
REMARK  Name = 
REMARK  6 active torsions:
REMARK  status: ('A' for Active; 'I' for Inactive)
REMARK    1  A    between atoms: N_3  and  C_4
REMARK    2  A    between atoms: N_13  and  C_14
REMARK    3  A    between atoms: C_14  and  C_15
REMARK    4  A    between atoms: C_19  and  O_20
REMARK    5  A    between atoms: O_20  and  C_21
REMARK    6  A    between atoms: C_24  and  C_25
REMARK                            x       y       z     vdW  Elec       q    Type
REMARK                         _______ _______ _______ _____ _____    ______ ____
ROOT
ATOM      1  C   UNL     1       1.774   7.835  18.271  0.00  0.00    +0.000 C 
ENDROOT
BRANCH   1   8
ATOM      2  O   UNL     1      -1.307  11.055  21.812  0.00  0.00    +0.000 OA
ATOM      3  C   UNL     1      -1.201  11.156  20.591  0.00  0.00    +0.000 C 
ATOM      4  N   UNL     1      -1.899  12.071  19.834  0.00  0.00    +0.000 N 
ATOM      5  N   UNL     1      -0.344  10.327  19.884  0.00  0.00    +0.000 N 
ATOM      6  C   UNL     1      -0.052  10.345  18.444  0.00  0.00    +0.000 C 
ATOM      7  C   UNL     1       1.466  10.237  18.159  0.00  0.00    +0.000 C 
ATOM      8  N   UNL     1       2.162   9.130  18.862  0.00  0.00    +0.000 NA
ATOM      9  C   UNL     1       1.856   9.260  20.305  0.00  0.00    +0.000 C 
ATOM     10  C   UNL     1       0.355   9.278  20.635  0.00  0.00    +0.000 C 
ATOM     11  H   UNL     1      -2.002  11.863  18.857  0.00  0.00    +0.000 HD
BRANCH   4  12
ATOM     12  C   UNL     1      -2.716  13.110  20.334  0.00  0.00    +0.000 A 
ATOM     13  C   UNL     1      -2.254  14.370  20.700  0.00  0.00    +0.000 A 
ATOM     14  C   UNL     1      -3.135  15.305  21.240  0.00  0.00    +0.000 A 
ATOM     15  C   UNL     1      -4.466  14.957  21.375  0.00  0.00    +0.000 A 
ATOM     16  N   UNL     1      -4.970  13.765  20.987  0.00  0.00    +0.000 NA
ATOM     17  C   UNL     1      -4.086  12.876  20.476  0.00  0.00    +0.000 A 
ENDBRANCH   4  12
ENDBRANCH   1   8
BRANCH   1  18
ATOM     18  C   UNL     1       2.642   6.656  18.649  0.00  0.00    +0.000 A 
ATOM     19  C   UNL     1       2.213   5.688  19.565  0.00  0.00    +0.000 A 
ATOM     20  C   UNL     1       3.053   4.630  19.923  0.00  0.00    +0.000 A 
ATOM     21  C   UNL     1       4.306   4.493  19.321  0.00  0.00    +0.000 A 
ATOM     22  C   UNL     1       4.724   5.418  18.367  0.00  0.00    +0.000 A 
ATOM     23  C   UNL     1       3.923   6.528  18.090  0.00  0.00    +0.000 A 
BRANCH  22  24
ATOM     24  O   UNL     1       5.950   5.204  17.776  0.00  0.00    +0.000 OA
BRANCH  24  25
ATOM     25  C   UNL     1       5.998   4.799  16.457  0.00  0.00    +0.000 A 
ATOM     26  C   UNL     1       7.112   5.209  15.725  0.00  0.00    +0.000 A 
ATOM     27  C   UNL     1       7.241   4.852  14.378  0.00  0.00    +0.000 A 
ATOM     28  C   UNL     1       6.254   4.081  13.748  0.00  0.00    +0.000 A 
ATOM     29  C   UNL     1       5.147   3.654  14.497  0.00  0.00    +0.000 A 
ATOM     30  C   UNL     1       5.039   3.982  15.850  0.00  0.00    +0.000 A 
BRANCH  28  31
ATOM     31  C   UNL     1       6.369   3.687  12.294  0.00  0.00    +0.000 C 
ATOM     32  F   UNL     1       7.239   4.460  11.588  0.00  0.00    +0.000 F 
ATOM     33  F   UNL     1       6.801   2.404  12.140  0.00  0.00    +0.000 F 
ATOM     34  F   UNL     1       5.181   3.764  11.636  0.00  0.00    +0.000 F 
ENDBRANCH  28  31
ENDBRANCH  24  25
ENDBRANCH  22  24
ENDBRANCH   1  18
TORSDOF 6
ENDMDL
MODEL 5
REMARK VINA RESULT:      -7.6      1.014      1.388
REMARK  Name = 
REMARK  6 active torsions:
REMARK  status: ('A' for Active; 'I' for Inactive)
REMARK    1  A    between atoms: N_3  and  C_4
REMARK    2  A    between atoms: N_13  and  C_14
REMARK    3  A    between atoms: C_14  and  C_15
REMARK    4  A    between atoms: C_19  and  O_20
REMARK    5  A    between atoms: O_20  and  C_21
REMARK    6  A    between atoms: C_24  and  C_25
REMARK                            x       y       z     vdW  Elec       q    Type
REMARK                         _______ _______ _______ _____ _____    ______ ____
ROOT
ATOM      1  C   UNL     1       1.147   7.147  20.224  0.00  0.00    +0.000 C 
ENDROOT
BRANCH   1   8
ATOM      2  O   UNL     1      -1.094  11.314  23.387  0.00  0.00    +0.000 OA
ATOM      3  C   UNL     1      -1.138  11.180  22.166  0.00  0.00    +0.000 C 
ATOM      4  N   UNL     1      -1.829  12.026  21.326  0.00  0.00    +0.000 N 
ATOM      5  N   UNL     1      -0.472  10.136  21.544  0.00  0.00    +0.000 N 
ATOM      6  C   UNL     1      -0.369   9.859  20.105  0.00  0.00    +0.000 C 
ATOM      7  C   UNL     1       1.079   9.509  19.683  0.00  0.00    +0.000 C 
ATOM      8  N   UNL     1       1.742   8.467  20.507  0.00  0.00    +0.000 NA
ATOM      9  C   UNL     1       1.641   8.892  21.923  0.00  0.00    +0.000 C 
ATOM     10  C   UNL     1       0.206   9.159  22.404  0.00  0.00    +0.000 C 
ATOM     11  H   UNL     1      -2.079  11.661  20.425  0.00  0.00    +0.000 HD
BRANCH   4  12
ATOM     12  C   UNL     1      -2.461  13.233  21.701  0.00  0.00    +0.000 A 
ATOM     13  C   UNL     1      -1.839  14.477  21.717  0.00  0.00    +0.000 A 
ATOM     14  C   UNL     1      -2.537  15.598  22.163  0.00  0.00    +0.000 A 
ATOM     15  C   UNL     1      -3.852  15.443  22.558  0.00  0.00    +0.000 A 
ATOM     16  N   UNL     1      -4.513  14.266  22.512  0.00  0.00    +0.000 NA
ATOM     17  C   UNL     1      -3.804  13.195  22.084  0.00  0.00    +0.000 A 
ENDBRANCH   4  12
ENDBRANCH   1   8
BRANCH   1  18
ATOM     18  C   UNL     1       2.130   6.015  20.022  0.00  0.00    +0.000 A 
ATOM     19  C   UNL     1       1.806   4.691  20.340  0.00  0.00    +0.000 A 
ATOM     20  C   UNL     1       2.749   3.673  20.178  0.00  0.00    +0.000 A 
ATOM     21  C   UNL     1       4.004   3.957  19.635  0.00  0.00    +0.000 A 
ATOM     22  C   UNL     1       4.321   5.262  19.262  0.00  0.00    +0.000 A 
ATOM     23  C   UNL     1       3.413   6.290  19.522  0.00  0.00    +0.000 A 
BRANCH  22  24
ATOM     24  O   UNL     1       5.557   5.470  18.691  0.00  0.00    +0.000 OA
BRANCH  24  25
ATOM     25  C   UNL     1       5.766   5.082  17.383  0.00  0.00    +0.000 A 
ATOM     26  C   UNL     1       4.824   5.519  16.450  0.00  0.00    +0.000 A 
ATOM     27  C   UNL     1       4.951   5.167  15.102  0.00  0.00    +0.000 A 
ATOM     28  C   UNL     1       6.023   4.372  14.672  0.00  0.00    +0.000 A 
ATOM     29  C   UNL     1       6.978   3.955  15.611  0.00  0.00    +0.000 A 
ATOM     30  C   UNL     1       6.867   4.337  16.950  0.00  0.00    +0.000 A 
BRANCH  28  31
ATOM     31  C   UNL     1       6.179   3.976  13.222  0.00  0.00    +0.000 C 
ATOM     32  F   UNL     1       6.629   2.702  13.050  0.00  0.00    +0.000 F 
ATOM     33  F   UNL     1       5.004   4.051  12.537  0.00  0.00    +0.000 F 
ATOM     34  F   UNL     1       7.054   4.775  12.553  0.00  0.00    +0.000 F 
ENDBRANCH  28  31
ENDBRANCH  24  25
ENDBRANCH  22  24
ENDBRANCH   1  18
TORSDOF 6
ENDMDL
MODEL 6
REMARK VINA RESULT:      -7.6      2.933      3.513
REMARK  Name = 
REMARK  6 active torsions:
REMARK  status: ('A' for Active; 'I' for Inactive)
REMARK    1  A    between atoms: N_3  and  C_4
REMARK    2  A    between atoms: N_13  and  C_14
REMARK    3  A    between atoms: C_14  and  C_15
REMARK    4  A    between atoms: C_19  and  O_20
REMARK    5  A    between atoms: O_20  and  C_21
REMARK    6  A    between atoms: C_24  and  C_25
REMARK                            x       y       z     vdW  Elec       q    Type
REMARK                         _______ _______ _______ _____ _____    ______ ____
ROOT
ATOM      1  C   UNL     1       1.101   5.836  19.803  0.00  0.00    +0.000 C 
ENDROOT
BRANCH   1   8
ATOM      2  O   UNL     1       0.172  11.289  21.147  0.00  0.00    +0.000 OA
ATOM      3  C   UNL     1       0.610  10.830  20.094  0.00  0.00    +0.000 C 
ATOM      4  N   UNL     1       0.900  11.596  18.986  0.00  0.00    +0.000 N 
ATOM      5  N   UNL     1       0.845   9.471  19.957  0.00  0.00    +0.000 N 
ATOM      6  C   UNL     1       1.414   8.763  18.803  0.00  0.00    +0.000 C 
ATOM      7  C   UNL     1       2.492   7.736  19.226  0.00  0.00    +0.000 C 
ATOM      8  N   UNL     1       2.088   6.809  20.312  0.00  0.00    +0.000 NA
ATOM      9  C   UNL     1       1.606   7.635  21.442  0.00  0.00    +0.000 C 
ATOM     10  C   UNL     1       0.469   8.603  21.080  0.00  0.00    +0.000 C 
ATOM     11  H   UNL     1       0.927  11.119  18.103  0.00  0.00    +0.000 HD
BRANCH   4  12
ATOM     12  C   UNL     1       0.882  13.008  18.926  0.00  0.00    +0.000 A 
ATOM     13  C   UNL     1      -0.270  13.777  18.812  0.00  0.00    +0.000 A 
ATOM     14  C   UNL     1      -0.174  15.163  18.700  0.00  0.00    +0.000 A 
ATOM     15  C   UNL     1       1.081  15.742  18.729  0.00  0.00    +0.000 A 
ATOM     16  N   UNL     1       2.224  15.040  18.888  0.00  0.00    +0.000 NA
ATOM     17  C   UNL     1       2.096  13.696  18.984  0.00  0.00    +0.000 A 
ENDBRANCH   4  12
ENDBRANCH   1   8
BRANCH   1  18
ATOM     18  C   UNL     1       1.676   4.603  19.144  0.00  0.00    +0.000 A 
ATOM     19  C   UNL     1       0.964   3.399  19.084  0.00  0.00    +0.000 A 
ATOM     20  C   UNL     1       1.538   2.266  18.501  0.00  0.00    +0.000 A 
ATOM     21  C   UNL     1       2.804   2.341  17.916  0.00  0.00    +0.000 A 
ATOM     22  C   UNL     1       3.501   3.547  17.919  0.00  0.00    +0.000 A 
ATOM     23  C   UNL     1       2.966   4.647  18.592  0.00  0.00    +0.000 A 
BRANCH  22  24
ATOM     24  O   UNL     1       4.725   3.569  17.285  0.00  0.00    +0.000 OA
BRANCH  24  25
ATOM     25  C   UNL     1       5.491   4.715  17.346  0.00  0.00    +0.000 A 
ATOM     26  C   UNL     1       6.485   4.742  18.325  0.00  0.00    +0.000 A 
ATOM     27  C   UNL     1       7.306   5.867  18.465  0.00  0.00    +0.000 A 
ATOM     28  C   UNL     1       7.139   6.979  17.627  0.00  0.00    +0.000 A 
ATOM     29  C   UNL     1       6.153   6.935  16.631  0.00  0.00    +0.000 A 
ATOM     30  C   UNL     1       5.359   5.798  16.471  0.00  0.00    +0.000 A 
BRANCH  28  31
ATOM     31  C   UNL     1       8.011   8.206  17.763  0.00  0.00    +0.000 C 
ATOM     32  F   UNL     1       7.306   9.369  17.841  0.00  0.00    +0.000 F 
ATOM     33  F   UNL     1       8.788   8.167  18.880  0.00  0.00    +0.000 F 
ATOM     34  F   UNL     1       8.866   8.357  16.715  0.00  0.00    +0.000 F 
ENDBRANCH  28  31
ENDBRANCH  24  25
ENDBRANCH  22  24
ENDBRANCH   1  18
TORSDOF 6
ENDMDL
MODEL 7
REMARK VINA RESULT:      -7.6      6.004     11.884
REMARK  Name = 
REMARK  6 active torsions:
REMARK  status: ('A' for Active; 'I' for Inactive)
REMARK    1  A    between atoms: N_3  and  C_4
REMARK    2  A    between atoms: N_13  and  C_14
REMARK    3  A    between atoms: C_14  and  C_15
REMARK    4  A    between atoms: C_19  and  O_20
REMARK    5  A    between atoms: O_20  and  C_21
REMARK    6  A    between atoms: C_24  and  C_25
REMARK                            x       y       z     vdW  Elec       q    Type
REMARK                         _______ _______ _______ _____ _____    ______ ____
ROOT
ATOM      1  C   UNL     1       1.675  11.614  19.130  0.00  0.00    +0.000 C 
ENDROOT
BRANCH   1   8
ATOM      2  O   UNL     1       1.858   6.158  20.742  0.00  0.00    +0.000 OA
ATOM      3  C   UNL     1       2.162   6.639  19.652  0.00  0.00    +0.000 C 
ATOM      4  N   UNL     1       2.688   5.906  18.610  0.00  0.00    +0.000 N 
ATOM      5  N   UNL     1       1.988   7.991  19.401  0.00  0.00    +0.000 N 
ATOM      6  C   UNL     1       2.242   8.719  18.151  0.00  0.00    +0.000 C 
ATOM      7  C   UNL     1       1.083   9.680  17.793  0.00  0.00    +0.000 C 
ATOM      8  N   UNL     1       0.649  10.580  18.892  0.00  0.00    +0.000 NA
ATOM      9  C   UNL     1       0.351   9.732  20.068  0.00  0.00    +0.000 C 
ATOM     10  C   UNL     1       1.513   8.829  20.509  0.00  0.00    +0.000 C 
ATOM     11  H   UNL     1       3.201   6.416  17.914  0.00  0.00    +0.000 HD
BRANCH   4  12
ATOM     12  C   UNL     1       2.824   4.500  18.571  0.00  0.00    +0.000 A 
ATOM     13  C   UNL     1       3.897   3.796  19.106  0.00  0.00    +0.000 A 
ATOM     14  C   UNL     1       3.964   2.411  18.960  0.00  0.00    +0.000 A 
ATOM     15  C   UNL     1       2.934   1.767  18.300  0.00  0.00    +0.000 A 
ATOM     16  N   UNL     1       1.848   2.402  17.808  0.00  0.00    +0.000 NA
ATOM     17  C   UNL     1       1.820   3.747  17.958  0.00  0.00    +0.000 A 
ENDBRANCH   4  12
ENDBRANCH   1   8
BRANCH   1  18
ATOM     18  C   UNL     1       1.166  12.927  19.683  0.00  0.00    +0.000 A 
ATOM     19  C   UNL     1       1.106  14.084  18.897  0.00  0.00    +0.000 A 
ATOM     20  C   UNL     1       0.666  15.291  19.447  0.00  0.00    +0.000 A 
ATOM     21  C   UNL     1       0.222  15.340  20.770  0.00  0.00    +0.000 A 
ATOM     22  C   UNL     1       0.225  14.184  21.548  0.00  0.00    +0.000 A 
ATOM     23  C   UNL     1       0.760  13.006  21.025  0.00  0.00    +0.000 A 
BRANCH  22  24
ATOM     24  O   UNL     1      -0.268  14.287  22.831  0.00  0.00    +0.000 OA
BRANCH  24  25
ATOM     25  C   UNL     1      -1.570  13.904  23.082  0.00  0.00    +0.000 A 
ATOM     26  C   UNL     1      -2.524  14.923  23.089  0.00  0.00    +0.000 A 
ATOM     27  C   UNL     1      -3.868  14.629  23.342  0.00  0.00    +0.000 A 
ATOM     28  C   UNL     1      -4.273  13.310  23.594  0.00  0.00    +0.000 A 
ATOM     29  C   UNL     1      -3.312  12.289  23.563  0.00  0.00    +0.000 A 
ATOM     30  C   UNL     1      -1.978  12.581  23.275  0.00  0.00    +0.000 A 
BRANCH  28  31
ATOM     31  C   UNL     1      -5.718  12.969  23.874  0.00  0.00    +0.000 C 
ATOM     32  F   UNL     1      -6.466  14.040  24.258  0.00  0.00    +0.000 F 
ATOM     33  F   UNL     1      -6.347  12.448  22.784  0.00  0.00    +0.000 F 
ATOM     34  F   UNL     1      -5.855  12.044  24.862  0.00  0.00    +0.000 F 
ENDBRANCH  28  31
ENDBRANCH  24  25
ENDBRANCH  22  24
ENDBRANCH   1  18
TORSDOF 6
ENDMDL
MODEL 8
REMARK VINA RESULT:      -7.6      5.659     11.736
REMARK  Name = 
REMARK  6 active torsions:
REMARK  status: ('A' for Active; 'I' for Inactive)
REMARK    1  A    between atoms: N_3  and  C_4
REMARK    2  A    between atoms: N_13  and  C_14
REMARK    3  A    between atoms: C_14  and  C_15
REMARK    4  A    between atoms: C_19  and  O_20
REMARK    5  A    between atoms: O_20  and  C_21
REMARK    6  A    between atoms: C_24  and  C_25
REMARK                            x       y       z     vdW  Elec       q    Type
REMARK                         _______ _______ _______ _____ _____    ______ ____
ROOT
ATOM      1  C   UNL     1       1.343  11.508  19.216  0.00  0.00    +0.000 C 
ENDROOT
BRANCH   1   8
ATOM      2  O   UNL     1       1.860   6.049  20.745  0.00  0.00    +0.000 OA
ATOM      3  C   UNL     1       2.151   6.568  19.668  0.00  0.00    +0.000 C 
ATOM      4  N   UNL     1       2.743   5.889  18.626  0.00  0.00    +0.000 N 
ATOM      5  N   UNL     1       1.892   7.909  19.436  0.00  0.00    +0.000 N 
ATOM      6  C   UNL     1       2.119   8.673  18.202  0.00  0.00    +0.000 C 
ATOM      7  C   UNL     1       0.905   9.562  17.838  0.00  0.00    +0.000 C 
ATOM      8  N   UNL     1       0.393  10.412  18.942  0.00  0.00    +0.000 NA
ATOM      9  C   UNL     1       0.130   9.526  20.099  0.00  0.00    +0.000 C 
ATOM     10  C   UNL     1       1.342   8.694  20.548  0.00  0.00    +0.000 C 
ATOM     11  H   UNL     1       3.233   6.444  17.948  0.00  0.00    +0.000 HD
BRANCH   4  12
ATOM     12  C   UNL     1       2.973   4.496  18.567  0.00  0.00    +0.000 A 
ATOM     13  C   UNL     1       2.181   3.596  17.862  0.00  0.00    +0.000 A 
ATOM     14  C   UNL     1       2.459   2.231  17.918  0.00  0.00    +0.000 A 
ATOM     15  C   UNL     1       3.543   1.809  18.665  0.00  0.00    +0.000 A 
ATOM     16  N   UNL     1       4.369   2.649  19.325  0.00  0.00    +0.000 NA
ATOM     17  C   UNL     1       4.065   3.967  19.257  0.00  0.00    +0.000 A 
ENDBRANCH   4  12
ENDBRANCH   1   8
BRANCH   1  18
ATOM     18  C   UNL     1       0.725  12.817  19.654  0.00  0.00    +0.000 A 
ATOM     19  C   UNL     1       1.045  14.028  19.030  0.00  0.00    +0.000 A 
ATOM     20  C   UNL     1       0.486  15.227  19.482  0.00  0.00    +0.000 A 
ATOM     21  C   UNL     1      -0.448  15.219  20.521  0.00  0.00    +0.000 A 
ATOM     22  C   UNL     1      -0.817  14.014  21.114  0.00  0.00    +0.000 A 
ATOM     23  C   UNL     1      -0.180  12.834  20.728  0.00  0.00    +0.000 A 
BRANCH  22  24
ATOM     24  O   UNL     1      -1.777  14.067  22.103  0.00  0.00    +0.000 OA
BRANCH  24  25
ATOM     25  C   UNL     1      -3.041  13.581  21.837  0.00  0.00    +0.000 A 
ATOM     26  C   UNL     1      -3.927  13.543  22.914  0.00  0.00    +0.000 A 
ATOM     27  C   UNL     1      -5.228  13.058  22.739  0.00  0.00    +0.000 A 
ATOM     28  C   UNL     1      -5.657  12.604  21.483  0.00  0.00    +0.000 A 
ATOM     29  C   UNL     1      -4.767  12.667  20.401  0.00  0.00    +0.000 A 
ATOM     30  C   UNL     1      -3.481  13.184  20.570  0.00  0.00    +0.000 A 
BRANCH  28  31
ATOM     31  C   UNL     1      -7.055  12.073  21.272  0.00  0.00    +0.000 C 
ATOM     32  F   UNL     1      -7.089  10.849  20.676  0.00  0.00    +0.000 F 
ATOM     33  F   UNL     1      -7.738  11.936  22.442  0.00  0.00    +0.000 F 
ATOM     34  F   UNL     1      -7.812  12.890  20.489  0.00  0.00    +0.000 F 
ENDBRANCH  28  31
ENDBRANCH  24  25
ENDBRANCH  22  24
ENDBRANCH   1  18
TORSDOF 6
ENDMDL
MODEL 9
REMARK VINA RESULT:      -7.5      0.702      1.099
REMARK  Name = 
REMARK  6 active torsions:
REMARK  status: ('A' for Active; 'I' for Inactive)
REMARK    1  A    between atoms: N_3  and  C_4
REMARK    2  A    between atoms: N_13  and  C_14
REMARK    3  A    between atoms: C_14  and  C_15
REMARK    4  A    between atoms: C_19  and  O_20
REMARK    5  A    between atoms: O_20  and  C_21
REMARK    6  A    between atoms: C_24  and  C_25
REMARK                            x       y       z     vdW  Elec       q    Type
REMARK                         _______ _______ _______ _____ _____    ______ ____
ROOT
ATOM      1  C   UNL     1       1.204   7.211  20.010  0.00  0.00    +0.000 C 
ENDROOT
BRANCH   1   8
ATOM      2  O   UNL     1      -1.138  11.192  23.335  0.00  0.00    +0.000 OA
ATOM      3  C   UNL     1      -1.088  11.162  22.106  0.00  0.00    +0.000 C 
ATOM      4  N   UNL     1      -1.680  12.101  21.291  0.00  0.00    +0.000 N 
ATOM      5  N   UNL     1      -0.410  10.146  21.451  0.00  0.00    +0.000 N 
ATOM      6  C   UNL     1      -0.202   9.983  20.006  0.00  0.00    +0.000 C 
ATOM      7  C   UNL     1       1.262   9.610  19.669  0.00  0.00    +0.000 C 
ATOM      8  N   UNL     1       1.820   8.478  20.450  0.00  0.00    +0.000 NA
ATOM      9  C   UNL     1       1.621   8.788  21.884  0.00  0.00    +0.000 C 
ATOM     10  C   UNL     1       0.162   9.074  22.274  0.00  0.00    +0.000 C 
ATOM     11  H   UNL     1      -1.869  11.822  20.346  0.00  0.00    +0.000 HD
BRANCH   4  12
ATOM     12  C   UNL     1      -2.298  13.298  21.718  0.00  0.00    +0.000 A 
ATOM     13  C   UNL     1      -3.644  13.417  22.046  0.00  0.00    +0.000 A 
ATOM     14  C   UNL     1      -4.168  14.660  22.398  0.00  0.00    +0.000 A 
ATOM     15  C   UNL     1      -3.317  15.748  22.435  0.00  0.00    +0.000 A 
ATOM     16  N   UNL     1      -1.994  15.672  22.174  0.00  0.00    +0.000 NA
ATOM     17  C   UNL     1      -1.519  14.453  21.825  0.00  0.00    +0.000 A 
ENDBRANCH   4  12
ENDBRANCH   1   8
BRANCH   1  18
ATOM     18  C   UNL     1       2.120   6.007  19.996  0.00  0.00    +0.000 A 
ATOM     19  C   UNL     1       1.729   4.776  20.537  0.00  0.00    +0.000 A 
ATOM     20  C   UNL     1       2.612   3.693  20.543  0.00  0.00    +0.000 A 
ATOM     21  C   UNL     1       3.872   3.810  19.952  0.00  0.00    +0.000 A 
ATOM     22  C   UNL     1       4.254   5.013  19.361  0.00  0.00    +0.000 A 
ATOM     23  C   UNL     1       3.408   6.120  19.449  0.00  0.00    +0.000 A 
BRANCH  22  24
ATOM     24  O   UNL     1       5.491   5.052  18.755  0.00  0.00    +0.000 OA
BRANCH  24  25
ATOM     25  C   UNL     1       5.589   4.752  17.411  0.00  0.00    +0.000 A 
ATOM     26  C   UNL     1       6.874   4.762  16.868  0.00  0.00    +0.000 A 
ATOM     27  C   UNL     1       7.068   4.477  15.511  0.00  0.00    +0.000 A 
ATOM     28  C   UNL     1       5.977   4.181  14.682  0.00  0.00    +0.000 A 
ATOM     29  C   UNL     1       4.690   4.152  15.241  0.00  0.00    +0.000 A 
ATOM     30  C   UNL     1       4.504   4.401  16.602  0.00  0.00    +0.000 A 
BRANCH  28  31
ATOM     31  C   UNL     1       6.161   3.875  13.214  0.00  0.00    +0.000 C 
ATOM     32  F   UNL     1       5.019   4.001  12.484  0.00  0.00    +0.000 F 
ATOM     33  F   UNL     1       7.072   4.698  12.626  0.00  0.00    +0.000 F 
ATOM     34  F   UNL     1       6.606   2.607  12.997  0.00  0.00    +0.000 F 
ENDBRANCH  28  31
ENDBRANCH  24  25
ENDBRANCH  22  24
ENDBRANCH   1  18
TORSDOF 6
ENDMDL
