MODEL 1
REMARK VINA RESULT:      -7.6      0.000      0.000
REMARK  Name = 
REMARK  13 active torsions:
REMARK  status: ('A' for Active; 'I' for Inactive)
REMARK    1  A    between atoms: C_1  and  C_2
REMARK    2  A    between atoms: C_2  and  C_3
REMARK    3  A    between atoms: C_3  and  N_4
REMARK    4  A    between atoms: C_10  and  C_11
REMARK    5  A    between atoms: C_14  and  O_15
REMARK    6  A    between atoms: O_15  and  C_16
REMARK    7  A    between atoms: C_16  and  C_17
REMARK    8  A    between atoms: C_17  and  N_18
REMARK    9  A    between atoms: N_18  and  C_19
REMARK   10  A    between atoms: N_28  and  C_29
REMARK   11  A    between atoms: C_29  and  C_30
REMARK   12  A    between atoms: C_30  and  C_31
REMARK   13  A    between atoms: N_32  and  C_33
REMARK                            x       y       z     vdW  Elec       q    Type
REMARK                         _______ _______ _______ _____ _____    ______ ____
ROOT
ATOM      1  N   UNL     1       5.735   4.571  15.950  0.00  0.00    +0.000 N 
ATOM      2  C   UNL     1       4.466   4.395  16.523  0.00  0.00    +0.000 A 
ATOM      3  O   UNL     1       3.815   3.367  16.388  0.00  0.00    +0.000 OA
ATOM      4  C   UNL     1       4.016   5.522  17.279  0.00  0.00    +0.000 A 
ATOM      5  C   UNL     1       4.794   6.625  17.452  0.00  0.00    +0.000 A 
ATOM      6  N   UNL     1       4.191   7.554  18.227  0.00  0.00    +0.000 NA
ATOM      7  C   UNL     1       3.012   7.045  18.578  0.00  0.00    +0.000 A 
ATOM      8  N   UNL     1       2.847   5.797  17.970  0.00  0.00    +0.000 N 
ATOM      9  N   UNL     1       6.044   6.741  16.901  0.00  0.00    +0.000 N 
ATOM     10  C   UNL     1       6.866   7.918  17.107  0.00  0.00    +0.000 C 
ATOM     11  C   UNL     1       6.553   5.703  16.124  0.00  0.00    +0.000 A 
ATOM     12  O   UNL     1       7.675   5.774  15.615  0.00  0.00    +0.000 OA
ENDROOT
BRANCH   7  13
ATOM     13  C   UNL     1       2.073   7.808  19.428  0.00  0.00    +0.000 A 
ATOM     14  C   UNL     1       1.603   9.035  18.931  0.00  0.00    +0.000 A 
ATOM     15  C   UNL     1       0.699   9.825  19.650  0.00  0.00    +0.000 A 
ATOM     16  C   UNL     1       0.202   9.387  20.870  0.00  0.00    +0.000 A 
ATOM     17  C   UNL     1       0.710   8.206  21.420  0.00  0.00    +0.000 A 
ATOM     18  C   UNL     1       1.653   7.435  20.710  0.00  0.00    +0.000 A 
BRANCH  16  19
ATOM     19  O   UNL     1      -0.769  10.038  21.591  0.00  0.00    +0.000 OA
BRANCH  19  20
ATOM     20  C   UNL     1      -0.595  11.468  21.683  0.00  0.00    +0.000 C 
BRANCH  20  21
ATOM     21  C   UNL     1      -1.780  12.187  21.032  0.00  0.00    +0.000 C 
BRANCH  21  22
ATOM     22  N   UNL     1      -1.760  12.206  19.561  0.00  0.00    +0.000 N 
ATOM     23  C   UNL     1      -0.864  13.136  18.882  0.00  0.00    +0.000 C 
ATOM     24  C   UNL     1      -2.966  11.973  18.893  0.00  0.00    +0.000 A 
ATOM     25  C   UNL     1      -2.938  11.474  17.587  0.00  0.00    +0.000 A 
ATOM     26  C   UNL     1      -4.124  11.200  16.909  0.00  0.00    +0.000 A 
ATOM     27  C   UNL     1      -5.329  11.446  17.541  0.00  0.00    +0.000 A 
ATOM     28  C   UNL     1      -5.288  11.948  18.829  0.00  0.00    +0.000 A 
ATOM     29  N   UNL     1      -4.144  12.203  19.515  0.00  0.00    +0.000 NA
ENDBRANCH  21  22
ENDBRANCH  20  21
ENDBRANCH  19  20
ENDBRANCH  16  19
ENDBRANCH   7  13
BRANCH   1  30
ATOM     30  C   UNL     1       6.281   3.476  15.146  0.00  0.00    +0.000 C 
BRANCH  30  32
ATOM     31  C   UNL     1       5.074   3.700  12.938  0.00  0.00    +0.000 C 
ATOM     32  C   UNL     1       6.402   3.852  13.667  0.00  0.00    +0.000 C 
ENDBRANCH  30  32
ENDBRANCH   1  30
BRANCH   8  33
ATOM     33  C   UNL     1       1.706   4.902  18.062  0.00  0.00    +0.000 C 
BRANCH  33  34
ATOM     34  C   UNL     1       1.806   3.742  19.057  0.00  0.00    +0.000 C 
ATOM     35  C   UNL     1       0.807   3.817  20.200  0.00  0.00    +0.000 C 
ENDBRANCH  33  34
ENDBRANCH   8  33
TORSDOF 9
ENDMDL
MODEL 2
REMARK VINA RESULT:      -7.4      1.750      3.146
REMARK  Name = 
REMARK  13 active torsions:
REMARK  status: ('A' for Active; 'I' for Inactive)
REMARK    1  A    between atoms: C_1  and  C_2
REMARK    2  A    between atoms: C_2  and  C_3
REMARK    3  A    between atoms: C_3  and  N_4
REMARK    4  A    between atoms: C_10  and  C_11
REMARK    5  A    between atoms: C_14  and  O_15
REMARK    6  A    between atoms: O_15  and  C_16
REMARK    7  A    between atoms: C_16  and  C_17
REMARK    8  A    between atoms: C_17  and  N_18
REMARK    9  A    between atoms: N_18  and  C_19
REMARK   10  A    between atoms: N_28  and  C_29
REMARK   11  A    between atoms: C_29  and  C_30
REMARK   12  A    between atoms: C_30  and  C_31
REMARK   13  A    between atoms: N_32  and  C_33
REMARK                            x       y       z     vdW  Elec       q    Type
REMARK                         _______ _______ _______ _____ _____    ______ ____
ROOT
ATOM      1  N   UNL     1       4.193   4.411  17.631  0.00  0.00    +0.000 N 
ATOM      2  C   UNL     1       3.806   5.758  17.578  0.00  0.00    +0.000 A 
ATOM      3  O   UNL     1       4.091   6.492  16.639  0.00  0.00    +0.000 OA
ATOM      4  C   UNL     1       3.048   6.183  18.713  0.00  0.00    +0.000 A 
ATOM      5  C   UNL     1       2.706   5.322  19.709  0.00  0.00    +0.000 A 
ATOM      6  N   UNL     1       1.962   5.922  20.664  0.00  0.00    +0.000 NA
ATOM      7  C   UNL     1       1.803   7.188  20.280  0.00  0.00    +0.000 A 
ATOM      8  N   UNL     1       2.504   7.400  19.089  0.00  0.00    +0.000 N 
ATOM      9  N   UNL     1       3.077   4.002  19.704  0.00  0.00    +0.000 N 
ATOM     10  C   UNL     1       2.692   3.095  20.767  0.00  0.00    +0.000 C 
ATOM     11  C   UNL     1       3.843   3.507  18.651  0.00  0.00    +0.000 A 
ATOM     12  O   UNL     1       4.192   2.323  18.616  0.00  0.00    +0.000 OA
ENDROOT
BRANCH   7  13
ATOM     13  C   UNL     1       1.039   8.147  21.107  0.00  0.00    +0.000 A 
ATOM     14  C   UNL     1       1.691   9.331  21.489  0.00  0.00    +0.000 A 
ATOM     15  C   UNL     1       1.051  10.311  22.256  0.00  0.00    +0.000 A 
ATOM     16  C   UNL     1      -0.277  10.154  22.625  0.00  0.00    +0.000 A 
ATOM     17  C   UNL     1      -0.924   8.953  22.320  0.00  0.00    +0.000 A 
ATOM     18  C   UNL     1      -0.261   7.951  21.583  0.00  0.00    +0.000 A 
BRANCH  16  19
ATOM     19  O   UNL     1      -1.019  11.109  23.279  0.00  0.00    +0.000 OA
BRANCH  19  20
ATOM     20  C   UNL     1      -0.997  12.415  22.664  0.00  0.00    +0.000 C 
BRANCH  20  21
ATOM     21  C   UNL     1      -2.173  12.562  21.694  0.00  0.00    +0.000 C 
BRANCH  21  22
ATOM     22  N   UNL     1      -1.808  12.528  20.269  0.00  0.00    +0.000 N 
ATOM     23  C   UNL     1      -0.829  13.489  19.771  0.00  0.00    +0.000 C 
ATOM     24  C   UNL     1      -2.807  12.192  19.352  0.00  0.00    +0.000 A 
ATOM     25  C   UNL     1      -2.445  11.648  18.116  0.00  0.00    +0.000 A 
ATOM     26  C   UNL     1      -3.422  11.273  17.195  0.00  0.00    +0.000 A 
ATOM     27  C   UNL     1      -4.753  11.462  17.515  0.00  0.00    +0.000 A 
ATOM     28  C   UNL     1      -5.044  12.013  18.750  0.00  0.00    +0.000 A 
ATOM     29  N   UNL     1      -4.110  12.368  19.670  0.00  0.00    +0.000 NA
ENDBRANCH  21  22
ENDBRANCH  20  21
ENDBRANCH  19  20
ENDBRANCH  16  19
ENDBRANCH   7  13
BRANCH   1  30
ATOM     30  C   UNL     1       4.984   3.880  16.519  0.00  0.00    +0.000 C 
BRANCH  30  32
ATOM     31  C   UNL     1       6.991   4.706  15.226  0.00  0.00    +0.000 C 
ATOM     32  C   UNL     1       6.450   4.315  16.594  0.00  0.00    +0.000 C 
ENDBRANCH  30  32
ENDBRANCH   1  30
BRANCH   8  33
ATOM     33  C   UNL     1       2.619   8.633  18.329  0.00  0.00    +0.000 C 
BRANCH  33  34
ATOM     34  C   UNL     1       1.322   9.257  17.806  0.00  0.00    +0.000 C 
ATOM     35  C   UNL     1       1.113  10.701  18.229  0.00  0.00    +0.000 C 
ENDBRANCH  33  34
ENDBRANCH   8  33
TORSDOF 9
ENDMDL
MODEL 3
REMARK VINA RESULT:      -7.2      1.802      2.227
REMARK  Name = 
REMARK  13 active torsions:
REMARK  status: ('A' for Active; 'I' for Inactive)
REMARK    1  A    between atoms: C_1  and  C_2
REMARK    2  A    between atoms: C_2  and  C_3
REMARK    3  A    between atoms: C_3  and  N_4
REMARK    4  A    between atoms: C_10  and  C_11
REMARK    5  A    between atoms: C_14  and  O_15
REMARK    6  A    between atoms: O_15  and  C_16
REMARK    7  A    between atoms: C_16  and  C_17
REMARK    8  A    between atoms: C_17  and  N_18
REMARK    9  A    between atoms: N_18  and  C_19
REMARK   10  A    between atoms: N_28  and  C_29
REMARK   11  A    between atoms: C_29  and  C_30
REMARK   12  A    between atoms: C_30  and  C_31
REMARK   13  A    between atoms: N_32  and  C_33
REMARK                            x       y       z     vdW  Elec       q    Type
REMARK                         _______ _______ _______ _____ _____    ______ ____
ROOT
ATOM      1  N   UNL     1       5.755   4.693  16.098  0.00  0.00    +0.000 N 
ATOM      2  C   UNL     1       4.481   4.504  16.656  0.00  0.00    +0.000 A 
ATOM      3  O   UNL     1       3.865   3.450  16.558  0.00  0.00    +0.000 OA
ATOM      4  C   UNL     1       3.983   5.650  17.350  0.00  0.00    +0.000 A 
ATOM      5  C   UNL     1       4.723   6.784  17.485  0.00  0.00    +0.000 A 
ATOM      6  N   UNL     1       4.077   7.728  18.204  0.00  0.00    +0.000 NA
ATOM      7  C   UNL     1       2.907   7.199  18.558  0.00  0.00    +0.000 A 
ATOM      8  N   UNL     1       2.793   5.920  18.006  0.00  0.00    +0.000 N 
ATOM      9  N   UNL     1       5.979   6.914  16.951  0.00  0.00    +0.000 N 
ATOM     10  C   UNL     1       6.760   8.124  17.117  0.00  0.00    +0.000 C 
ATOM     11  C   UNL     1       6.534   5.857  16.233  0.00  0.00    +0.000 A 
ATOM     12  O   UNL     1       7.664   5.940  15.742  0.00  0.00    +0.000 OA
ENDROOT
BRANCH   7  13
ATOM     13  C   UNL     1       1.929   7.971  19.355  0.00  0.00    +0.000 A 
ATOM     14  C   UNL     1       1.381   9.122  18.765  0.00  0.00    +0.000 A 
ATOM     15  C   UNL     1       0.435   9.912  19.428  0.00  0.00    +0.000 A 
ATOM     16  C   UNL     1      -0.025   9.546  20.685  0.00  0.00    +0.000 A 
ATOM     17  C   UNL     1       0.558   8.447  21.323  0.00  0.00    +0.000 A 
ATOM     18  C   UNL     1       1.541   7.679  20.667  0.00  0.00    +0.000 A 
BRANCH  16  19
ATOM     19  O   UNL     1      -1.030  10.194  21.363  0.00  0.00    +0.000 OA
BRANCH  19  20
ATOM     20  C   UNL     1      -0.813  10.321  22.785  0.00  0.00    +0.000 C 
BRANCH  20  21
ATOM     21  C   UNL     1      -1.319  11.681  23.276  0.00  0.00    +0.000 C 
BRANCH  21  22
ATOM     22  N   UNL     1      -2.164  12.410  22.316  0.00  0.00    +0.000 N 
ATOM     23  C   UNL     1      -1.585  13.525  21.576  0.00  0.00    +0.000 C 
ATOM     24  C   UNL     1      -3.517  12.565  22.632  0.00  0.00    +0.000 A 
ATOM     25  C   UNL     1      -4.441  12.761  21.602  0.00  0.00    +0.000 A 
ATOM     26  C   UNL     1      -5.800  12.886  21.885  0.00  0.00    +0.000 A 
ATOM     27  C   UNL     1      -6.218  12.830  23.201  0.00  0.00    +0.000 A 
ATOM     28  C   UNL     1      -5.253  12.643  24.174  0.00  0.00    +0.000 A 
ATOM     29  N   UNL     1      -3.927  12.500  23.920  0.00  0.00    +0.000 NA
ENDBRANCH  21  22
ENDBRANCH  20  21
ENDBRANCH  19  20
ENDBRANCH  16  19
ENDBRANCH   7  13
BRANCH   1  30
ATOM     30  C   UNL     1       6.350   3.579  15.357  0.00  0.00    +0.000 C 
BRANCH  30  32
ATOM     31  C   UNL     1       5.181   3.576  13.116  0.00  0.00    +0.000 C 
ATOM     32  C   UNL     1       6.473   3.883  13.861  0.00  0.00    +0.000 C 
ENDBRANCH  30  32
ENDBRANCH   1  30
BRANCH   8  33
ATOM     33  C   UNL     1       1.678   4.994  18.120  0.00  0.00    +0.000 C 
BRANCH  33  34
ATOM     34  C   UNL     1       1.829   3.836  19.111  0.00  0.00    +0.000 C 
ATOM     35  C   UNL     1       0.639   3.652  20.037  0.00  0.00    +0.000 C 
ENDBRANCH  33  34
ENDBRANCH   8  33
TORSDOF 9
ENDMDL
MODEL 4
REMARK VINA RESULT:      -7.2      2.027      3.229
REMARK  Name = 
REMARK  13 active torsions:
REMARK  status: ('A' for Active; 'I' for Inactive)
REMARK    1  A    between atoms: C_1  and  C_2
REMARK    2  A    between atoms: C_2  and  C_3
REMARK    3  A    between atoms: C_3  and  N_4
REMARK    4  A    between atoms: C_10  and  C_11
REMARK    5  A    between atoms: C_14  and  O_15
REMARK    6  A    between atoms: O_15  and  C_16
REMARK    7  A    between atoms: C_16  and  C_17
REMARK    8  A    between atoms: C_17  and  N_18
REMARK    9  A    between atoms: N_18  and  C_19
REMARK   10  A    between atoms: N_28  and  C_29
REMARK   11  A    between atoms: C_29  and  C_30
REMARK   12  A    between atoms: C_30  and  C_31
REMARK   13  A    between atoms: N_32  and  C_33
REMARK                            x       y       z     vdW  Elec       q    Type
REMARK                         _______ _______ _______ _____ _____    ______ ____
ROOT
ATOM      1  N   UNL     1       5.741   4.638  15.885  0.00  0.00    +0.000 N 
ATOM      2  C   UNL     1       4.448   4.477  16.407  0.00  0.00    +0.000 A 
ATOM      3  O   UNL     1       3.777   3.472  16.212  0.00  0.00    +0.000 OA
ATOM      4  C   UNL     1       4.000   5.589  17.185  0.00  0.00    +0.000 A 
ATOM      5  C   UNL     1       4.799   6.664  17.424  0.00  0.00    +0.000 A 
ATOM      6  N   UNL     1       4.192   7.582  18.209  0.00  0.00    +0.000 NA
ATOM      7  C   UNL     1       2.988   7.093  18.500  0.00  0.00    +0.000 A 
ATOM      8  N   UNL     1       2.814   5.871  17.844  0.00  0.00    +0.000 N 
ATOM      9  N   UNL     1       6.071   6.766  16.922  0.00  0.00    +0.000 N 
ATOM     10  C   UNL     1       6.914   7.913  17.198  0.00  0.00    +0.000 C 
ATOM     11  C   UNL     1       6.580   5.742  16.127  0.00  0.00    +0.000 A 
ATOM     12  O   UNL     1       7.722   5.801  15.661  0.00  0.00    +0.000 OA
ENDROOT
BRANCH   7  13
ATOM     13  C   UNL     1       2.038   7.852  19.343  0.00  0.00    +0.000 A 
ATOM     14  C   UNL     1       1.473   9.014  18.793  0.00  0.00    +0.000 A 
ATOM     15  C   UNL     1       0.551   9.792  19.502  0.00  0.00    +0.000 A 
ATOM     16  C   UNL     1       0.133   9.404  20.767  0.00  0.00    +0.000 A 
ATOM     17  C   UNL     1       0.736   8.294  21.365  0.00  0.00    +0.000 A 
ATOM     18  C   UNL     1       1.695   7.537  20.663  0.00  0.00    +0.000 A 
BRANCH  16  19
ATOM     19  O   UNL     1      -0.847  10.041  21.489  0.00  0.00    +0.000 OA
BRANCH  19  20
ATOM     20  C   UNL     1      -0.358  10.925  22.521  0.00  0.00    +0.000 C 
BRANCH  20  21
ATOM     21  C   UNL     1      -0.447  12.381  22.053  0.00  0.00    +0.000 C 
BRANCH  21  22
ATOM     22  N   UNL     1      -1.770  13.005  22.221  0.00  0.00    +0.000 N 
ATOM     23  C   UNL     1      -2.522  13.387  21.031  0.00  0.00    +0.000 C 
ATOM     24  C   UNL     1      -1.953  13.851  23.318  0.00  0.00    +0.000 A 
ATOM     25  C   UNL     1      -3.242  14.049  23.821  0.00  0.00    +0.000 A 
ATOM     26  C   UNL     1      -3.451  14.861  24.934  0.00  0.00    +0.000 A 
ATOM     27  C   UNL     1      -2.365  15.483  25.522  0.00  0.00    +0.000 A 
ATOM     28  C   UNL     1      -1.117  15.254  24.971  0.00  0.00    +0.000 A 
ATOM     29  N   UNL     1      -0.889  14.451  23.899  0.00  0.00    +0.000 NA
ENDBRANCH  21  22
ENDBRANCH  20  21
ENDBRANCH  19  20
ENDBRANCH  16  19
ENDBRANCH   7  13
BRANCH   1  30
ATOM     30  C   UNL     1       6.288   3.558  15.064  0.00  0.00    +0.000 C 
BRANCH  30  32
ATOM     31  C   UNL     1       6.949   4.026  12.670  0.00  0.00    +0.000 C 
ATOM     32  C   UNL     1       5.814   3.642  13.610  0.00  0.00    +0.000 C 
ENDBRANCH  30  32
ENDBRANCH   1  30
BRANCH   8  33
ATOM     33  C   UNL     1       1.648   5.004  17.864  0.00  0.00    +0.000 C 
BRANCH  33  34
ATOM     34  C   UNL     1       1.513   4.042  19.048  0.00  0.00    +0.000 C 
ATOM     35  C   UNL     1       0.995   2.664  18.672  0.00  0.00    +0.000 C 
ENDBRANCH  33  34
ENDBRANCH   8  33
TORSDOF 9
ENDMDL
MODEL 5
REMARK VINA RESULT:      -7.1      3.062     10.199
REMARK  Name = 
REMARK  13 active torsions:
REMARK  status: ('A' for Active; 'I' for Inactive)
REMARK    1  A    between atoms: C_1  and  C_2
REMARK    2  A    between atoms: C_2  and  C_3
REMARK    3  A    between atoms: C_3  and  N_4
REMARK    4  A    between atoms: C_10  and  C_11
REMARK    5  A    between atoms: C_14  and  O_15
REMARK    6  A    between atoms: O_15  and  C_16
REMARK    7  A    between atoms: C_16  and  C_17
REMARK    8  A    between atoms: C_17  and  N_18
REMARK    9  A    between atoms: N_18  and  C_19
REMARK   10  A    between atoms: N_28  and  C_29
REMARK   11  A    between atoms: C_29  and  C_30
REMARK   12  A    between atoms: C_30  and  C_31
REMARK   13  A    between atoms: N_32  and  C_33
REMARK                            x       y       z     vdW  Elec       q    Type
REMARK                         _______ _______ _______ _____ _____    ______ ____
ROOT
ATOM      1  N   UNL     1       0.083  15.855  19.892  0.00  0.00    +0.000 N 
ATOM      2  C   UNL     1      -0.491  14.610  20.194  0.00  0.00    +0.000 A 
ATOM      3  O   UNL     1      -1.568  14.500  20.766  0.00  0.00    +0.000 OA
ATOM      4  C   UNL     1       0.294  13.496  19.764  0.00  0.00    +0.000 A 
ATOM      5  C   UNL     1       1.459  13.662  19.081  0.00  0.00    +0.000 A 
ATOM      6  N   UNL     1       2.020  12.480  18.743  0.00  0.00    +0.000 NA
ATOM      7  C   UNL     1       1.204  11.531  19.196  0.00  0.00    +0.000 A 
ATOM      8  N   UNL     1       0.138  12.124  19.878  0.00  0.00    +0.000 N 
ATOM      9  N   UNL     1       1.968  14.898  18.777  0.00  0.00    +0.000 N 
ATOM     10  C   UNL     1       3.204  15.057  18.036  0.00  0.00    +0.000 C 
ATOM     11  C   UNL     1       1.284  16.042  19.182  0.00  0.00    +0.000 A 
ATOM     12  O   UNL     1       1.713  17.170  18.923  0.00  0.00    +0.000 OA
ENDROOT
BRANCH   7  13
ATOM     13  C   UNL     1       1.519  10.098  19.007  0.00  0.00    +0.000 A 
ATOM     14  C   UNL     1       1.513   9.280  20.149  0.00  0.00    +0.000 A 
ATOM     15  C   UNL     1       1.780   7.908  20.076  0.00  0.00    +0.000 A 
ATOM     16  C   UNL     1       2.018   7.306  18.848  0.00  0.00    +0.000 A 
ATOM     17  C   UNL     1       2.103   8.110  17.708  0.00  0.00    +0.000 A 
ATOM     18  C   UNL     1       1.874   9.498  17.794  0.00  0.00    +0.000 A 
BRANCH  16  19
ATOM     19  O   UNL     1       2.178   5.954  18.666  0.00  0.00    +0.000 OA
BRANCH  19  20
ATOM     20  C   UNL     1       2.486   5.215  19.867  0.00  0.00    +0.000 C 
BRANCH  20  21
ATOM     21  C   UNL     1       3.664   4.268  19.618  0.00  0.00    +0.000 C 
BRANCH  21  22
ATOM     22  N   UNL     1       4.383   4.495  18.354  0.00  0.00    +0.000 N 
ATOM     23  C   UNL     1       4.309   3.479  17.311  0.00  0.00    +0.000 C 
ATOM     24  C   UNL     1       5.605   5.172  18.417  0.00  0.00    +0.000 A 
ATOM     25  C   UNL     1       6.064   5.857  17.288  0.00  0.00    +0.000 A 
ATOM     26  C   UNL     1       7.262   6.568  17.331  0.00  0.00    +0.000 A 
ATOM     27  C   UNL     1       7.997   6.572  18.502  0.00  0.00    +0.000 A 
ATOM     28  C   UNL     1       7.492   5.867  19.580  0.00  0.00    +0.000 A 
ATOM     29  N   UNL     1       6.318   5.184  19.566  0.00  0.00    +0.000 NA
ENDBRANCH  21  22
ENDBRANCH  20  21
ENDBRANCH  19  20
ENDBRANCH  16  19
ENDBRANCH   7  13
BRANCH   1  30
ATOM     30  C   UNL     1      -0.640  17.061  20.300  0.00  0.00    +0.000 C 
BRANCH  30  32
ATOM     31  C   UNL     1      -1.470  18.240  18.225  0.00  0.00    +0.000 C 
ATOM     32  C   UNL     1      -1.845  17.344  19.398  0.00  0.00    +0.000 C 
ENDBRANCH  30  32
ENDBRANCH   1  30
BRANCH   8  33
ATOM     33  C   UNL     1      -0.972  11.467  20.546  0.00  0.00    +0.000 C 
BRANCH  33  34
ATOM     34  C   UNL     1      -0.785  11.105  22.022  0.00  0.00    +0.000 C 
ATOM     35  C   UNL     1      -1.727  11.834  22.964  0.00  0.00    +0.000 C 
ENDBRANCH  33  34
ENDBRANCH   8  33
TORSDOF 9
ENDMDL
MODEL 6
REMARK VINA RESULT:      -7.1      2.919     10.993
REMARK  Name = 
REMARK  13 active torsions:
REMARK  status: ('A' for Active; 'I' for Inactive)
REMARK    1  A    between atoms: C_1  and  C_2
REMARK    2  A    between atoms: C_2  and  C_3
REMARK    3  A    between atoms: C_3  and  N_4
REMARK    4  A    between atoms: C_10  and  C_11
REMARK    5  A    between atoms: C_14  and  O_15
REMARK    6  A    between atoms: O_15  and  C_16
REMARK    7  A    between atoms: C_16  and  C_17
REMARK    8  A    between atoms: C_17  and  N_18
REMARK    9  A    between atoms: N_18  and  C_19
REMARK   10  A    between atoms: N_28  and  C_29
REMARK   11  A    between atoms: C_29  and  C_30
REMARK   12  A    between atoms: C_30  and  C_31
REMARK   13  A    between atoms: N_32  and  C_33
REMARK                            x       y       z     vdW  Elec       q    Type
REMARK                         _______ _______ _______ _____ _____    ______ ____
ROOT
ATOM      1  N   UNL     1      -1.923  15.153  21.071  0.00  0.00    +0.000 N 
ATOM      2  C   UNL     1      -0.964  14.736  20.135  0.00  0.00    +0.000 A 
ATOM      3  O   UNL     1      -0.455  15.500  19.324  0.00  0.00    +0.000 OA
ATOM      4  C   UNL     1      -0.638  13.347  20.227  0.00  0.00    +0.000 A 
ATOM      5  C   UNL     1      -1.185  12.545  21.179  0.00  0.00    +0.000 A 
ATOM      6  N   UNL     1      -0.714  11.280  21.107  0.00  0.00    +0.000 NA
ATOM      7  C   UNL     1       0.163  11.260  20.106  0.00  0.00    +0.000 A 
ATOM      8  N   UNL     1       0.206  12.520  19.503  0.00  0.00    +0.000 N 
ATOM      9  N   UNL     1      -2.095  13.002  22.097  0.00  0.00    +0.000 N 
ATOM     10  C   UNL     1      -2.657  12.135  23.115  0.00  0.00    +0.000 C 
ATOM     11  C   UNL     1      -2.494  14.336  22.065  0.00  0.00    +0.000 A 
ATOM     12  O   UNL     1      -3.309  14.780  22.879  0.00  0.00    +0.000 OA
ENDROOT
BRANCH   7  13
ATOM     13  C   UNL     1       0.872  10.016  19.735  0.00  0.00    +0.000 A 
ATOM     14  C   UNL     1       1.087   9.069  20.750  0.00  0.00    +0.000 A 
ATOM     15  C   UNL     1       1.732   7.853  20.500  0.00  0.00    +0.000 A 
ATOM     16  C   UNL     1       2.141   7.528  19.214  0.00  0.00    +0.000 A 
ATOM     17  C   UNL     1       2.006   8.484  18.203  0.00  0.00    +0.000 A 
ATOM     18  C   UNL     1       1.393   9.725  18.469  0.00  0.00    +0.000 A 
BRANCH  16  19
ATOM     19  O   UNL     1       2.679   6.317  18.853  0.00  0.00    +0.000 OA
BRANCH  19  20
ATOM     20  C   UNL     1       2.334   5.220  19.727  0.00  0.00    +0.000 C 
BRANCH  20  21
ATOM     21  C   UNL     1       3.445   4.165  19.713  0.00  0.00    +0.000 C 
BRANCH  21  22
ATOM     22  N   UNL     1       3.736   3.590  18.390  0.00  0.00    +0.000 N 
ATOM     23  C   UNL     1       3.282   2.234  18.099  0.00  0.00    +0.000 C 
ATOM     24  C   UNL     1       4.946   3.938  17.784  0.00  0.00    +0.000 A 
ATOM     25  C   UNL     1       5.056   3.871  16.392  0.00  0.00    +0.000 A 
ATOM     26  C   UNL     1       6.240   4.244  15.757  0.00  0.00    +0.000 A 
ATOM     27  C   UNL     1       7.309   4.665  16.527  0.00  0.00    +0.000 A 
ATOM     28  C   UNL     1       7.138   4.701  17.899  0.00  0.00    +0.000 A 
ATOM     29  N   UNL     1       5.987   4.360  18.536  0.00  0.00    +0.000 NA
ENDBRANCH  21  22
ENDBRANCH  20  21
ENDBRANCH  19  20
ENDBRANCH  16  19
ENDBRANCH   7  13
BRANCH   1  30
ATOM     30  C   UNL     1      -2.333  16.558  21.053  0.00  0.00    +0.000 C 
BRANCH  30  32
ATOM     31  C   UNL     1      -1.793  17.896  23.127  0.00  0.00    +0.000 C 
ATOM     32  C   UNL     1      -1.314  17.466  21.748  0.00  0.00    +0.000 C 
ENDBRANCH  30  32
ENDBRANCH   1  30
BRANCH   8  33
ATOM     33  C   UNL     1       1.008  12.941  18.367  0.00  0.00    +0.000 C 
BRANCH  33  34
ATOM     34  C   UNL     1       2.491  13.222  18.624  0.00  0.00    +0.000 C 
ATOM     35  C   UNL     1       2.869  14.691  18.539  0.00  0.00    +0.000 C 
ENDBRANCH  33  34
ENDBRANCH   8  33
TORSDOF 9
ENDMDL
MODEL 7
REMARK VINA RESULT:      -7.1      2.953     10.460
REMARK  Name = 
REMARK  13 active torsions:
REMARK  status: ('A' for Active; 'I' for Inactive)
REMARK    1  A    between atoms: C_1  and  C_2
REMARK    2  A    between atoms: C_2  and  C_3
REMARK    3  A    between atoms: C_3  and  N_4
REMARK    4  A    between atoms: C_10  and  C_11
REMARK    5  A    between atoms: C_14  and  O_15
REMARK    6  A    between atoms: O_15  and  C_16
REMARK    7  A    between atoms: C_16  and  C_17
REMARK    8  A    between atoms: C_17  and  N_18
REMARK    9  A    between atoms: N_18  and  C_19
REMARK   10  A    between atoms: N_28  and  C_29
REMARK   11  A    between atoms: C_29  and  C_30
REMARK   12  A    between atoms: C_30  and  C_31
REMARK   13  A    between atoms: N_32  and  C_33
REMARK                            x       y       z     vdW  Elec       q    Type
REMARK                         _______ _______ _______ _____ _____    ______ ____
ROOT
ATOM      1  N   UNL     1      -0.447  15.713  20.398  0.00  0.00    +0.000 N 
ATOM      2  C   UNL     1      -0.885  14.431  20.764  0.00  0.00    +0.000 A 
ATOM      3  O   UNL     1      -1.885  14.243  21.446  0.00  0.00    +0.000 OA
ATOM      4  C   UNL     1      -0.061  13.377  20.261  0.00  0.00    +0.000 A 
ATOM      5  C   UNL     1       1.010  13.626  19.460  0.00  0.00    +0.000 A 
ATOM      6  N   UNL     1       1.627  12.488  19.071  0.00  0.00    +0.000 NA
ATOM      7  C   UNL     1       0.941  11.483  19.611  0.00  0.00    +0.000 A 
ATOM      8  N   UNL     1      -0.094  11.999  20.397  0.00  0.00    +0.000 N 
ATOM      9  N   UNL     1       1.384  14.895  19.099  0.00  0.00    +0.000 N 
ATOM     10  C   UNL     1       2.520  15.141  18.233  0.00  0.00    +0.000 C 
ATOM     11  C   UNL     1       0.655  15.986  19.567  0.00  0.00    +0.000 A 
ATOM     12  O   UNL     1       0.963  17.141  19.259  0.00  0.00    +0.000 OA
ENDROOT
BRANCH   7  13
ATOM     13  C   UNL     1       1.349  10.077  19.398  0.00  0.00    +0.000 A 
ATOM     14  C   UNL     1       1.659   9.687  18.085  0.00  0.00    +0.000 A 
ATOM     15  C   UNL     1       2.072   8.386  17.780  0.00  0.00    +0.000 A 
ATOM     16  C   UNL     1       2.232   7.447  18.789  0.00  0.00    +0.000 A 
ATOM     17  C   UNL     1       1.860   7.789  20.093  0.00  0.00    +0.000 A 
ATOM     18  C   UNL     1       1.404   9.089  20.388  0.00  0.00    +0.000 A 
BRANCH  16  19
ATOM     19  O   UNL     1       2.738   6.183  18.601  0.00  0.00    +0.000 OA
BRANCH  19  20
ATOM     20  C   UNL     1       2.235   5.189  19.519  0.00  0.00    +0.000 C 
BRANCH  20  21
ATOM     21  C   UNL     1       3.215   4.017  19.617  0.00  0.00    +0.000 C 
BRANCH  21  22
ATOM     22  N   UNL     1       3.618   3.437  18.325  0.00  0.00    +0.000 N 
ATOM     23  C   UNL     1       3.227   2.066  18.018  0.00  0.00    +0.000 C 
ATOM     24  C   UNL     1       4.857   3.817  17.803  0.00  0.00    +0.000 A 
ATOM     25  C   UNL     1       5.070   3.739  16.423  0.00  0.00    +0.000 A 
ATOM     26  C   UNL     1       6.284   4.142  15.870  0.00  0.00    +0.000 A 
ATOM     27  C   UNL     1       7.281   4.604  16.709  0.00  0.00    +0.000 A 
ATOM     28  C   UNL     1       7.011   4.648  18.065  0.00  0.00    +0.000 A 
ATOM     29  N   UNL     1       5.829   4.279  18.623  0.00  0.00    +0.000 NA
ENDBRANCH  21  22
ENDBRANCH  20  21
ENDBRANCH  19  20
ENDBRANCH  16  19
ENDBRANCH   7  13
BRANCH   1  30
ATOM     30  C   UNL     1      -1.219  16.862  20.873  0.00  0.00    +0.000 C 
BRANCH  30  32
ATOM     31  C   UNL     1      -2.444  17.485  22.994  0.00  0.00    +0.000 C 
ATOM     32  C   UNL     1      -1.119  17.037  22.392  0.00  0.00    +0.000 C 
ENDBRANCH  30  32
ENDBRANCH   1  30
BRANCH   8  33
ATOM     33  C   UNL     1      -1.073  11.264  21.180  0.00  0.00    +0.000 C 
BRANCH  33  34
ATOM     34  C   UNL     1      -0.861  11.214  22.696  0.00  0.00    +0.000 C 
ATOM     35  C   UNL     1      -0.466   9.845  23.223  0.00  0.00    +0.000 C 
ENDBRANCH  33  34
ENDBRANCH   8  33
TORSDOF 9
ENDMDL
MODEL 8
REMARK VINA RESULT:      -7.1      3.228     11.035
REMARK  Name = 
REMARK  13 active torsions:
REMARK  status: ('A' for Active; 'I' for Inactive)
REMARK    1  A    between atoms: C_1  and  C_2
REMARK    2  A    between atoms: C_2  and  C_3
REMARK    3  A    between atoms: C_3  and  N_4
REMARK    4  A    between atoms: C_10  and  C_11
REMARK    5  A    between atoms: C_14  and  O_15
REMARK    6  A    between atoms: O_15  and  C_16
REMARK    7  A    between atoms: C_16  and  C_17
REMARK    8  A    between atoms: C_17  and  N_18
REMARK    9  A    between atoms: N_18  and  C_19
REMARK   10  A    between atoms: N_28  and  C_29
REMARK   11  A    between atoms: C_29  and  C_30
REMARK   12  A    between atoms: C_30  and  C_31
REMARK   13  A    between atoms: N_32  and  C_33
REMARK                            x       y       z     vdW  Elec       q    Type
REMARK                         _______ _______ _______ _____ _____    ______ ____
ROOT
ATOM      1  N   UNL     1      -1.159  15.171  22.678  0.00  0.00    +0.000 N 
ATOM      2  C   UNL     1      -0.057  14.775  21.905  0.00  0.00    +0.000 A 
ATOM      3  O   UNL     1       0.793  15.564  21.511  0.00  0.00    +0.000 OA
ATOM      4  C   UNL     1      -0.021  13.372  21.633  0.00  0.00    +0.000 A 
ATOM      5  C   UNL     1      -0.954  12.521  22.138  0.00  0.00    +0.000 A 
ATOM      6  N   UNL     1      -0.713  11.238  21.787  0.00  0.00    +0.000 NA
ATOM      7  C   UNL     1       0.402  11.249  21.058  0.00  0.00    +0.000 A 
ATOM      8  N   UNL     1       0.840  12.568  20.903  0.00  0.00    +0.000 N 
ATOM      9  N   UNL     1      -1.998  12.947  22.917  0.00  0.00    +0.000 N 
ATOM     10  C   UNL     1      -2.977  12.024  23.458  0.00  0.00    +0.000 C 
ATOM     11  C   UNL     1      -2.130  14.302  23.210  0.00  0.00    +0.000 A 
ATOM     12  O   UNL     1      -3.057  14.719  23.911  0.00  0.00    +0.000 OA
ENDROOT
BRANCH   7  13
ATOM     13  C   UNL     1       0.959  10.001  20.493  0.00  0.00    +0.000 A 
ATOM     14  C   UNL     1       1.170   8.930  21.378  0.00  0.00    +0.000 A 
ATOM     15  C   UNL     1       1.676   7.701  20.941  0.00  0.00    +0.000 A 
ATOM     16  C   UNL     1       1.943   7.492  19.596  0.00  0.00    +0.000 A 
ATOM     17  C   UNL     1       1.812   8.564  18.708  0.00  0.00    +0.000 A 
ATOM     18  C   UNL     1       1.341   9.813  19.161  0.00  0.00    +0.000 A 
BRANCH  16  19
ATOM     19  O   UNL     1       2.334   6.289  19.060  0.00  0.00    +0.000 OA
BRANCH  19  20
ATOM     20  C   UNL     1       2.566   5.244  20.029  0.00  0.00    +0.000 C 
BRANCH  20  21
ATOM     21  C   UNL     1       3.617   4.261  19.503  0.00  0.00    +0.000 C 
BRANCH  21  22
ATOM     22  N   UNL     1       4.287   4.677  18.261  0.00  0.00    +0.000 N 
ATOM     23  C   UNL     1       4.135   3.849  17.069  0.00  0.00    +0.000 C 
ATOM     24  C   UNL     1       5.530   5.305  18.374  0.00  0.00    +0.000 A 
ATOM     25  C   UNL     1       5.961   6.157  17.353  0.00  0.00    +0.000 A 
ATOM     26  C   UNL     1       7.182   6.822  17.454  0.00  0.00    +0.000 A 
ATOM     27  C   UNL     1       7.967   6.614  18.572  0.00  0.00    +0.000 A 
ATOM     28  C   UNL     1       7.488   5.753  19.543  0.00  0.00    +0.000 A 
ATOM     29  N   UNL     1       6.294   5.109  19.474  0.00  0.00    +0.000 NA
ENDBRANCH  21  22
ENDBRANCH  20  21
ENDBRANCH  19  20
ENDBRANCH  16  19
ENDBRANCH   7  13
BRANCH   1  30
ATOM     30  C   UNL     1      -1.292  16.592  23.002  0.00  0.00    +0.000 C 
BRANCH  30  32
ATOM     31  C   UNL     1      -3.332  17.994  22.491  0.00  0.00    +0.000 C 
ATOM     32  C   UNL     1      -2.068  17.359  21.927  0.00  0.00    +0.000 C 
ENDBRANCH  30  32
ENDBRANCH   1  30
BRANCH   8  33
ATOM     33  C   UNL     1       2.000  13.044  20.169  0.00  0.00    +0.000 C 
BRANCH  33  34
ATOM     34  C   UNL     1       1.775  13.500  18.726  0.00  0.00    +0.000 C 
ATOM     35  C   UNL     1       2.842  14.447  18.201  0.00  0.00    +0.000 C 
ENDBRANCH  33  34
ENDBRANCH   8  33
TORSDOF 9
ENDMDL
MODEL 9
REMARK VINA RESULT:      -7.1      2.292     10.727
REMARK  Name = 
REMARK  13 active torsions:
REMARK  status: ('A' for Active; 'I' for Inactive)
REMARK    1  A    between atoms: C_1  and  C_2
REMARK    2  A    between atoms: C_2  and  C_3
REMARK    3  A    between atoms: C_3  and  N_4
REMARK    4  A    between atoms: C_10  and  C_11
REMARK    5  A    between atoms: C_14  and  O_15
REMARK    6  A    between atoms: O_15  and  C_16
REMARK    7  A    between atoms: C_16  and  C_17
REMARK    8  A    between atoms: C_17  and  N_18
REMARK    9  A    between atoms: N_18  and  C_19
REMARK   10  A    between atoms: N_28  and  C_29
REMARK   11  A    between atoms: C_29  and  C_30
REMARK   12  A    between atoms: C_30  and  C_31
REMARK   13  A    between atoms: N_32  and  C_33
REMARK                            x       y       z     vdW  Elec       q    Type
REMARK                         _______ _______ _______ _____ _____    ______ ____
ROOT
ATOM      1  N   UNL     1      -3.603  13.179  20.195  0.00  0.00    +0.000 N 
ATOM      2  C   UNL     1      -2.315  12.926  20.692  0.00  0.00    +0.000 A 
ATOM      3  O   UNL     1      -1.823  13.568  21.612  0.00  0.00    +0.000 OA
ATOM      4  C   UNL     1      -1.645  11.852  20.029  0.00  0.00    +0.000 A 
ATOM      5  C   UNL     1      -2.249  11.127  19.048  0.00  0.00    +0.000 A 
ATOM      6  N   UNL     1      -1.451  10.140  18.584  0.00  0.00    +0.000 NA
ATOM      7  C   UNL     1      -0.318  10.210  19.281  0.00  0.00    +0.000 A 
ATOM      8  N   UNL     1      -0.384  11.293  20.162  0.00  0.00    +0.000 N 
ATOM      9  N   UNL     1      -3.523  11.388  18.616  0.00  0.00    +0.000 N 
ATOM     10  C   UNL     1      -4.157  10.596  17.579  0.00  0.00    +0.000 C 
ATOM     11  C   UNL     1      -4.242  12.436  19.185  0.00  0.00    +0.000 A 
ATOM     12  O   UNL     1      -5.393  12.696  18.820  0.00  0.00    +0.000 OA
ENDROOT
BRANCH   7  13
ATOM     13  C   UNL     1       0.796   9.272  19.023  0.00  0.00    +0.000 A 
ATOM     14  C   UNL     1       1.110   8.349  20.034  0.00  0.00    +0.000 A 
ATOM     15  C   UNL     1       2.134   7.409  19.883  0.00  0.00    +0.000 A 
ATOM     16  C   UNL     1       2.848   7.335  18.695  0.00  0.00    +0.000 A 
ATOM     17  C   UNL     1       2.605   8.290  17.703  0.00  0.00    +0.000 A 
ATOM     18  C   UNL     1       1.599   9.262  17.878  0.00  0.00    +0.000 A 
BRANCH  16  19
ATOM     19  O   UNL     1       3.791   6.376  18.414  0.00  0.00    +0.000 OA
BRANCH  19  20
ATOM     20  C   UNL     1       4.349   5.721  19.573  0.00  0.00    +0.000 C 
BRANCH  20  21
ATOM     21  C   UNL     1       4.794   4.301  19.214  0.00  0.00    +0.000 C 
BRANCH  21  22
ATOM     22  N   UNL     1       4.415   3.857  17.863  0.00  0.00    +0.000 N 
ATOM     23  C   UNL     1       3.694   2.597  17.714  0.00  0.00    +0.000 C 
ATOM     24  C   UNL     1       5.292   4.149  16.815  0.00  0.00    +0.000 A 
ATOM     25  C   UNL     1       4.795   4.233  15.511  0.00  0.00    +0.000 A 
ATOM     26  C   UNL     1       5.640   4.556  14.451  0.00  0.00    +0.000 A 
ATOM     27  C   UNL     1       6.981   4.774  14.706  0.00  0.00    +0.000 A 
ATOM     28  C   UNL     1       7.412   4.667  16.016  0.00  0.00    +0.000 A 
ATOM     29  N   UNL     1       6.602   4.372  17.067  0.00  0.00    +0.000 NA
ENDBRANCH  21  22
ENDBRANCH  20  21
ENDBRANCH  19  20
ENDBRANCH  16  19
ENDBRANCH   7  13
BRANCH   1  30
ATOM     30  C   UNL     1      -4.369  14.269  20.801  0.00  0.00    +0.000 C 
BRANCH  30  32
ATOM     31  C   UNL     1      -4.976  14.791  23.198  0.00  0.00    +0.000 C 
ATOM     32  C   UNL     1      -5.139  13.812  22.044  0.00  0.00    +0.000 C 
ENDBRANCH  30  32
ENDBRANCH   1  30
BRANCH   8  33
ATOM     33  C   UNL     1       0.633  11.748  21.095  0.00  0.00    +0.000 C 
BRANCH  33  34
ATOM     34  C   UNL     1       1.436  12.991  20.702  0.00  0.00    +0.000 C 
ATOM     35  C   UNL     1       2.141  12.876  19.362  0.00  0.00    +0.000 C 
ENDBRANCH  33  34
ENDBRANCH   8  33
TORSDOF 9
ENDMDL
