MODEL 1
REMARK VINA RESULT:      -8.6      0.000      0.000
REMARK  Name = 
REMARK  4 active torsions:
REMARK  status: ('A' for Active; 'I' for Inactive)
REMARK    1  A    between atoms: S_2  and  C_5
REMARK    2  A    between atoms: C_9  and  N_10
REMARK    3  A    between atoms: N_11  and  C_12
REMARK    4  A    between atoms: C_13  and  O_14
REMARK                            x       y       z     vdW  Elec       q    Type
REMARK                         _______ _______ _______ _____ _____    ______ ____
ROOT
ATOM      1  C   UNL     1       0.463  11.715  19.752  0.00  0.00    +0.000 A 
ATOM      2  C   UNL     1       1.096  11.264  18.589  0.00  0.00    +0.000 A 
ATOM      3  C   UNL     1       1.534   9.942  18.404  0.00  0.00    +0.000 A 
ATOM      4  O   UNL     1       2.192   9.664  17.342  0.00  0.00    +0.000 OA
ATOM      5  C   UNL     1       1.217   9.028  19.471  0.00  0.00    +0.000 A 
ATOM      6  C   UNL     1       0.572   9.483  20.681  0.00  0.00    +0.000 A 
ATOM      7  C   UNL     1       0.324   8.615  21.773  0.00  0.00    +0.000 A 
ATOM      8  C   UNL     1      -0.283   9.057  22.960  0.00  0.00    +0.000 A 
ATOM      9  C   UNL     1      -0.667  10.379  23.083  0.00  0.00    +0.000 A 
ATOM     10  C   UNL     1      -0.443  11.255  22.024  0.00  0.00    +0.000 A 
ATOM     11  C   UNL     1       0.188  10.842  20.822  0.00  0.00    +0.000 A 
ENDROOT
BRANCH   1  13
ATOM     12  O   UNL     1       0.407  14.062  18.558  0.00  0.00    +0.000 OA
ATOM     13  S   UNL     1       0.156  13.444  19.882  0.00  0.00    +0.000 S 
ATOM     14  O   UNL     1       0.921  14.028  20.954  0.00  0.00    +0.000 OA
ATOM     15  O   UNL     1      -1.293  13.712  19.953  0.00  0.00    +0.000 OA
ENDBRANCH   1  13
BRANCH   5  16
ATOM     16  N   UNL     1       1.616   7.647  19.456  0.00  0.00    +0.000 NA
ATOM     17  N   UNL     1       2.827   7.477  19.209  0.00  0.00    +0.000 NA
BRANCH  17  18
ATOM     18  C   UNL     1       3.234   6.118  19.073  0.00  0.00    +0.000 A 
ATOM     19  C   UNL     1       2.922   5.105  20.006  0.00  0.00    +0.000 A 
ATOM     20  C   UNL     1       3.290   3.777  19.801  0.00  0.00    +0.000 A 
ATOM     21  C   UNL     1       3.996   3.428  18.655  0.00  0.00    +0.000 A 
ATOM     22  C   UNL     1       4.367   4.403  17.717  0.00  0.00    +0.000 A 
ATOM     23  C   UNL     1       5.095   4.047  16.569  0.00  0.00    +0.000 A 
ATOM     24  C   UNL     1       5.486   5.012  15.640  0.00  0.00    +0.000 A 
ATOM     25  C   UNL     1       5.165   6.346  15.853  0.00  0.00    +0.000 A 
ATOM     26  C   UNL     1       4.434   6.715  16.984  0.00  0.00    +0.000 A 
ATOM     27  C   UNL     1       4.001   5.761  17.931  0.00  0.00    +0.000 A 
BRANCH  19  28
ATOM     28  O   UNL     1       2.253   5.375  21.172  0.00  0.00    +0.000 OA
ATOM     29  H   UNL     1       2.965   5.476  21.841  0.00  0.00    +0.000 HD
ENDBRANCH  19  28
ENDBRANCH  17  18
ENDBRANCH   5  16
TORSDOF 4
ENDMDL
MODEL 2
REMARK VINA RESULT:      -8.5      2.860      8.518
REMARK  Name = 
REMARK  4 active torsions:
REMARK  status: ('A' for Active; 'I' for Inactive)
REMARK    1  A    between atoms: S_2  and  C_5
REMARK    2  A    between atoms: C_9  and  N_10
REMARK    3  A    between atoms: N_11  and  C_12
REMARK    4  A    between atoms: C_13  and  O_14
REMARK                            x       y       z     vdW  Elec       q    Type
REMARK                         _______ _______ _______ _____ _____    ______ ____
ROOT
ATOM      1  C   UNL     1       3.157   3.995  18.979  0.00  0.00    +0.000 A 
ATOM      2  C   UNL     1       2.296   4.449  19.983  0.00  0.00    +0.000 A 
ATOM      3  C   UNL     1       1.976   5.803  20.181  0.00  0.00    +0.000 A 
ATOM      4  O   UNL     1       1.257   6.114  21.193  0.00  0.00    +0.000 OA
ATOM      5  C   UNL     1       2.535   6.719  19.222  0.00  0.00    +0.000 A 
ATOM      6  C   UNL     1       3.435   6.265  18.187  0.00  0.00    +0.000 A 
ATOM      7  C   UNL     1       4.056   7.162  17.283  0.00  0.00    +0.000 A 
ATOM      8  C   UNL     1       4.948   6.728  16.290  0.00  0.00    +0.000 A 
ATOM      9  C   UNL     1       5.236   5.382  16.166  0.00  0.00    +0.000 A 
ATOM     10  C   UNL     1       4.635   4.475  17.035  0.00  0.00    +0.000 A 
ATOM     11  C   UNL     1       3.748   4.886  18.063  0.00  0.00    +0.000 A 
ENDROOT
BRANCH   1  13
ATOM     12  O   UNL     1       2.391   1.510  19.397  0.00  0.00    +0.000 OA
ATOM     13  S   UNL     1       3.589   2.288  19.001  0.00  0.00    +0.000 S 
ATOM     14  O   UNL     1       4.740   2.054  19.835  0.00  0.00    +0.000 OA
ATOM     15  O   UNL     1       3.717   1.767  17.627  0.00  0.00    +0.000 OA
ENDBRANCH   1  13
BRANCH   5  16
ATOM     16  N   UNL     1       2.332   8.140  19.295  0.00  0.00    +0.000 NA
ATOM     17  N   UNL     1       1.188   8.465  19.674  0.00  0.00    +0.000 NA
BRANCH  17  18
ATOM     18  C   UNL     1       0.914   9.863  19.649  0.00  0.00    +0.000 A 
ATOM     19  C   UNL     1       1.268  10.717  18.581  0.00  0.00    +0.000 A 
ATOM     20  C   UNL     1       0.927  12.067  18.575  0.00  0.00    +0.000 A 
ATOM     21  C   UNL     1       0.228  12.605  19.649  0.00  0.00    +0.000 A 
ATOM     22  C   UNL     1      -0.113  11.810  20.754  0.00  0.00    +0.000 A 
ATOM     23  C   UNL     1      -0.805  12.363  21.844  0.00  0.00    +0.000 A 
ATOM     24  C   UNL     1      -1.130  11.585  22.956  0.00  0.00    +0.000 A 
ATOM     25  C   UNL     1      -0.757  10.249  22.997  0.00  0.00    +0.000 A 
ATOM     26  C   UNL     1      -0.077   9.682  21.917  0.00  0.00    +0.000 A 
ATOM     27  C   UNL     1       0.246  10.433  20.766  0.00  0.00    +0.000 A 
BRANCH  19  28
ATOM     28  O   UNL     1       1.982  10.267  17.500  0.00  0.00    +0.000 OA
ATOM     29  H   UNL     1       2.017  11.040  16.895  0.00  0.00    +0.000 HD
ENDBRANCH  19  28
ENDBRANCH  17  18
ENDBRANCH   5  16
TORSDOF 4
ENDMDL
MODEL 3
REMARK VINA RESULT:      -8.2      1.534      2.849
REMARK  Name = 
REMARK  4 active torsions:
REMARK  status: ('A' for Active; 'I' for Inactive)
REMARK    1  A    between atoms: S_2  and  C_5
REMARK    2  A    between atoms: C_9  and  N_10
REMARK    3  A    between atoms: N_11  and  C_12
REMARK    4  A    between atoms: C_13  and  O_14
REMARK                            x       y       z     vdW  Elec       q    Type
REMARK                         _______ _______ _______ _____ _____    ______ ____
ROOT
ATOM      1  C   UNL     1      -0.220  11.042  19.358  0.00  0.00    +0.000 A 
ATOM      2  C   UNL     1       0.464  10.591  18.224  0.00  0.00    +0.000 A 
ATOM      3  C   UNL     1       1.364   9.512  18.236  0.00  0.00    +0.000 A 
ATOM      4  O   UNL     1       2.011   9.249  17.163  0.00  0.00    +0.000 OA
ATOM      5  C   UNL     1       1.491   8.823  19.494  0.00  0.00    +0.000 A 
ATOM      6  C   UNL     1       0.798   9.285  20.675  0.00  0.00    +0.000 A 
ATOM      7  C   UNL     1       0.971   8.668  21.938  0.00  0.00    +0.000 A 
ATOM      8  C   UNL     1       0.317   9.126  23.093  0.00  0.00    +0.000 A 
ATOM      9  C   UNL     1      -0.537  10.209  23.014  0.00  0.00    +0.000 A 
ATOM     10  C   UNL     1      -0.734  10.832  21.784  0.00  0.00    +0.000 A 
ATOM     11  C   UNL     1      -0.070  10.406  20.605  0.00  0.00    +0.000 A 
ENDROOT
BRANCH   1  13
ATOM     12  O   UNL     1      -0.622  13.521  20.149  0.00  0.00    +0.000 OA
ATOM     13  S   UNL     1      -1.158  12.523  19.194  0.00  0.00    +0.000 S 
ATOM     14  O   UNL     1      -2.567  12.264  19.349  0.00  0.00    +0.000 OA
ATOM     15  O   UNL     1      -0.802  13.229  17.949  0.00  0.00    +0.000 OA
ENDBRANCH   1  13
BRANCH   5  16
ATOM     16  N   UNL     1       2.388   7.717  19.688  0.00  0.00    +0.000 NA
ATOM     17  N   UNL     1       2.527   7.001  18.675  0.00  0.00    +0.000 NA
BRANCH  17  18
ATOM     18  C   UNL     1       3.319   5.831  18.864  0.00  0.00    +0.000 A 
ATOM     19  C   UNL     1       4.641   5.688  18.387  0.00  0.00    +0.000 A 
ATOM     20  C   UNL     1       5.397   4.548  18.647  0.00  0.00    +0.000 A 
ATOM     21  C   UNL     1       4.844   3.509  19.387  0.00  0.00    +0.000 A 
ATOM     22  C   UNL     1       3.522   3.583  19.849  0.00  0.00    +0.000 A 
ATOM     23  C   UNL     1       2.963   2.523  20.582  0.00  0.00    +0.000 A 
ATOM     24  C   UNL     1       1.642   2.578  21.029  0.00  0.00    +0.000 A 
ATOM     25  C   UNL     1       0.861   3.688  20.739  0.00  0.00    +0.000 A 
ATOM     26  C   UNL     1       1.404   4.754  20.020  0.00  0.00    +0.000 A 
ATOM     27  C   UNL     1       2.744   4.742  19.573  0.00  0.00    +0.000 A 
BRANCH  19  28
ATOM     28  O   UNL     1       5.245   6.656  17.627  0.00  0.00    +0.000 OA
ATOM     29  H   UNL     1       5.122   7.482  18.145  0.00  0.00    +0.000 HD
ENDBRANCH  19  28
ENDBRANCH  17  18
ENDBRANCH   5  16
TORSDOF 4
ENDMDL
MODEL 4
REMARK VINA RESULT:      -8.2      1.702      3.804
REMARK  Name = 
REMARK  4 active torsions:
REMARK  status: ('A' for Active; 'I' for Inactive)
REMARK    1  A    between atoms: S_2  and  C_5
REMARK    2  A    between atoms: C_9  and  N_10
REMARK    3  A    between atoms: N_11  and  C_12
REMARK    4  A    between atoms: C_13  and  O_14
REMARK                            x       y       z     vdW  Elec       q    Type
REMARK                         _______ _______ _______ _____ _____    ______ ____
ROOT
ATOM      1  C   UNL     1       0.053  11.782  21.325  0.00  0.00    +0.000 A 
ATOM      2  C   UNL     1      -0.323  10.511  21.770  0.00  0.00    +0.000 A 
ATOM      3  C   UNL     1       0.053   9.319  21.127  0.00  0.00    +0.000 A 
ATOM      4  O   UNL     1      -0.432   8.217  21.562  0.00  0.00    +0.000 OA
ATOM      5  C   UNL     1       0.937   9.473  20.002  0.00  0.00    +0.000 A 
ATOM      6  C   UNL     1       1.325  10.780  19.526  0.00  0.00    +0.000 A 
ATOM      7  C   UNL     1       2.130  10.953  18.373  0.00  0.00    +0.000 A 
ATOM      8  C   UNL     1       2.491  12.223  17.894  0.00  0.00    +0.000 A 
ATOM      9  C   UNL     1       2.066  13.355  18.562  0.00  0.00    +0.000 A 
ATOM     10  C   UNL     1       1.280  13.217  19.703  0.00  0.00    +0.000 A 
ATOM     11  C   UNL     1       0.880  11.949  20.197  0.00  0.00    +0.000 A 
ENDROOT
BRANCH   1  13
ATOM     12  O   UNL     1      -1.177  12.715  23.459  0.00  0.00    +0.000 OA
ATOM     13  S   UNL     1      -0.667  13.166  22.142  0.00  0.00    +0.000 S 
ATOM     14  O   UNL     1      -1.662  13.798  21.314  0.00  0.00    +0.000 OA
ATOM     15  O   UNL     1       0.380  14.079  22.639  0.00  0.00    +0.000 OA
ENDBRANCH   1  13
BRANCH   5  16
ATOM     16  N   UNL     1       1.395   8.360  19.216  0.00  0.00    +0.000 NA
ATOM     17  N   UNL     1       2.048   7.519  19.868  0.00  0.00    +0.000 NA
BRANCH  17  18
ATOM     18  C   UNL     1       2.614   6.461  19.100  0.00  0.00    +0.000 A 
ATOM     19  C   UNL     1       3.449   6.661  17.978  0.00  0.00    +0.000 A 
ATOM     20  C   UNL     1       4.028   5.595  17.294  0.00  0.00    +0.000 A 
ATOM     21  C   UNL     1       3.777   4.293  17.709  0.00  0.00    +0.000 A 
ATOM     22  C   UNL     1       2.922   4.038  18.792  0.00  0.00    +0.000 A 
ATOM     23  C   UNL     1       2.659   2.718  19.197  0.00  0.00    +0.000 A 
ATOM     24  C   UNL     1       1.795   2.453  20.260  0.00  0.00    +0.000 A 
ATOM     25  C   UNL     1       1.174   3.503  20.924  0.00  0.00    +0.000 A 
ATOM     26  C   UNL     1       1.433   4.820  20.540  0.00  0.00    +0.000 A 
ATOM     27  C   UNL     1       2.320   5.125  19.485  0.00  0.00    +0.000 A 
BRANCH  19  28
ATOM     28  O   UNL     1       3.721   7.913  17.492  0.00  0.00    +0.000 OA
ATOM     29  H   UNL     1       3.033   8.062  16.807  0.00  0.00    +0.000 HD
ENDBRANCH  19  28
ENDBRANCH  17  18
ENDBRANCH   5  16
TORSDOF 4
ENDMDL
MODEL 5
REMARK VINA RESULT:      -8.1      3.281      7.712
REMARK  Name = 
REMARK  4 active torsions:
REMARK  status: ('A' for Active; 'I' for Inactive)
REMARK    1  A    between atoms: S_2  and  C_5
REMARK    2  A    between atoms: C_9  and  N_10
REMARK    3  A    between atoms: N_11  and  C_12
REMARK    4  A    between atoms: C_13  and  O_14
REMARK                            x       y       z     vdW  Elec       q    Type
REMARK                         _______ _______ _______ _____ _____    ______ ____
ROOT
ATOM      1  C   UNL     1       4.206   5.632  17.900  0.00  0.00    +0.000 A 
ATOM      2  C   UNL     1       3.987   6.926  17.417  0.00  0.00    +0.000 A 
ATOM      3  C   UNL     1       3.040   7.811  17.962  0.00  0.00    +0.000 A 
ATOM      4  O   UNL     1       2.853   8.934  17.378  0.00  0.00    +0.000 OA
ATOM      5  C   UNL     1       2.343   7.333  19.126  0.00  0.00    +0.000 A 
ATOM      6  C   UNL     1       2.552   5.994  19.629  0.00  0.00    +0.000 A 
ATOM      7  C   UNL     1       1.817   5.479  20.725  0.00  0.00    +0.000 A 
ATOM      8  C   UNL     1       2.000   4.172  21.204  0.00  0.00    +0.000 A 
ATOM      9  C   UNL     1       2.933   3.347  20.604  0.00  0.00    +0.000 A 
ATOM     10  C   UNL     1       3.677   3.827  19.529  0.00  0.00    +0.000 A 
ATOM     11  C   UNL     1       3.496   5.135  19.010  0.00  0.00    +0.000 A 
ENDROOT
BRANCH   1  13
ATOM     12  O   UNL     1       4.574   3.352  16.634  0.00  0.00    +0.000 OA
ATOM     13  S   UNL     1       5.294   4.602  16.975  0.00  0.00    +0.000 S 
ATOM     14  O   UNL     1       6.533   4.391  17.679  0.00  0.00    +0.000 OA
ATOM     15  O   UNL     1       5.455   5.117  15.601  0.00  0.00    +0.000 OA
ENDBRANCH   1  13
BRANCH   5  16
ATOM     16  N   UNL     1       1.323   8.098  19.791  0.00  0.00    +0.000 NA
ATOM     17  N   UNL     1       1.254   9.283  19.406  0.00  0.00    +0.000 NA
BRANCH  17  18
ATOM     18  C   UNL     1       0.333  10.101  20.121  0.00  0.00    +0.000 A 
ATOM     19  C   UNL     1       0.463  10.426  21.489  0.00  0.00    +0.000 A 
ATOM     20  C   UNL     1      -0.431  11.278  22.132  0.00  0.00    +0.000 A 
ATOM     21  C   UNL     1      -1.493  11.823  21.421  0.00  0.00    +0.000 A 
ATOM     22  C   UNL     1      -1.693  11.501  20.070  0.00  0.00    +0.000 A 
ATOM     23  C   UNL     1      -2.779  12.041  19.361  0.00  0.00    +0.000 A 
ATOM     24  C   UNL     1      -2.998  11.711  18.023  0.00  0.00    +0.000 A 
ATOM     25  C   UNL     1      -2.141  10.827  17.381  0.00  0.00    +0.000 A 
ATOM     26  C   UNL     1      -1.052  10.289  18.069  0.00  0.00    +0.000 A 
ATOM     27  C   UNL     1      -0.787  10.620  19.416  0.00  0.00    +0.000 A 
BRANCH  19  28
ATOM     28  O   UNL     1       1.469   9.906  22.264  0.00  0.00    +0.000 OA
ATOM     29  H   UNL     1       1.580   8.989  21.932  0.00  0.00    +0.000 HD
ENDBRANCH  19  28
ENDBRANCH  17  18
ENDBRANCH   5  16
TORSDOF 4
ENDMDL
MODEL 6
REMARK VINA RESULT:      -7.9      1.367      2.646
REMARK  Name = 
REMARK  4 active torsions:
REMARK  status: ('A' for Active; 'I' for Inactive)
REMARK    1  A    between atoms: S_2  and  C_5
REMARK    2  A    between atoms: C_9  and  N_10
REMARK    3  A    between atoms: N_11  and  C_12
REMARK    4  A    between atoms: C_13  and  O_14
REMARK                            x       y       z     vdW  Elec       q    Type
REMARK                         _______ _______ _______ _____ _____    ______ ____
ROOT
ATOM      1  C   UNL     1       0.863  11.847  20.113  0.00  0.00    +0.000 A 
ATOM      2  C   UNL     1       1.527  11.724  18.889  0.00  0.00    +0.000 A 
ATOM      3  C   UNL     1       1.863  10.490  18.306  0.00  0.00    +0.000 A 
ATOM      4  O   UNL     1       2.560  10.496  17.232  0.00  0.00    +0.000 OA
ATOM      5  C   UNL     1       1.406   9.324  19.015  0.00  0.00    +0.000 A 
ATOM      6  C   UNL     1       0.728   9.436  20.286  0.00  0.00    +0.000 A 
ATOM      7  C   UNL     1       0.341   8.299  21.036  0.00  0.00    +0.000 A 
ATOM      8  C   UNL     1      -0.298   8.402  22.282  0.00  0.00    +0.000 A 
ATOM      9  C   UNL     1      -0.578   9.650  22.807  0.00  0.00    +0.000 A 
ATOM     10  C   UNL     1      -0.216  10.787  22.090  0.00  0.00    +0.000 A 
ATOM     11  C   UNL     1       0.451  10.713  20.841  0.00  0.00    +0.000 A 
ENDROOT
BRANCH   1  13
ATOM     12  O   UNL     1       1.028  14.444  19.712  0.00  0.00    +0.000 OA
ATOM     13  S   UNL     1       0.695  13.469  20.777  0.00  0.00    +0.000 S 
ATOM     14  O   UNL     1       1.477  13.622  21.977  0.00  0.00    +0.000 OA
ATOM     15  O   UNL     1      -0.730  13.823  20.931  0.00  0.00    +0.000 OA
ENDBRANCH   1  13
BRANCH   5  16
ATOM     16  N   UNL     1       1.688   7.985  18.573  0.00  0.00    +0.000 NA
ATOM     17  N   UNL     1       2.720   7.497  19.077  0.00  0.00    +0.000 NA
BRANCH  17  18
ATOM     18  C   UNL     1       3.093   6.216  18.576  0.00  0.00    +0.000 A 
ATOM     19  C   UNL     1       3.952   6.020  17.473  0.00  0.00    +0.000 A 
ATOM     20  C   UNL     1       4.335   4.747  17.056  0.00  0.00    +0.000 A 
ATOM     21  C   UNL     1       3.857   3.630  17.730  0.00  0.00    +0.000 A 
ATOM     22  C   UNL     1       2.969   3.768  18.807  0.00  0.00    +0.000 A 
ATOM     23  C   UNL     1       2.475   2.634  19.474  0.00  0.00    +0.000 A 
ATOM     24  C   UNL     1       1.576   2.759  20.533  0.00  0.00    +0.000 A 
ATOM     25  C   UNL     1       1.149   4.019  20.931  0.00  0.00    +0.000 A 
ATOM     26  C   UNL     1       1.637   5.156  20.285  0.00  0.00    +0.000 A 
ATOM     27  C   UNL     1       2.567   5.067  19.226  0.00  0.00    +0.000 A 
BRANCH  19  28
ATOM     28  O   UNL     1       4.442   7.071  16.741  0.00  0.00    +0.000 OA
ATOM     29  H   UNL     1       5.408   6.899  16.688  0.00  0.00    +0.000 HD
ENDBRANCH  19  28
ENDBRANCH  17  18
ENDBRANCH   5  16
TORSDOF 4
ENDMDL
MODEL 7
REMARK VINA RESULT:      -7.9      3.041      7.679
REMARK  Name = 
REMARK  4 active torsions:
REMARK  status: ('A' for Active; 'I' for Inactive)
REMARK    1  A    between atoms: S_2  and  C_5
REMARK    2  A    between atoms: C_9  and  N_10
REMARK    3  A    between atoms: N_11  and  C_12
REMARK    4  A    between atoms: C_13  and  O_14
REMARK                            x       y       z     vdW  Elec       q    Type
REMARK                         _______ _______ _______ _____ _____    ______ ____
ROOT
ATOM      1  C   UNL     1       3.913   6.388  17.725  0.00  0.00    +0.000 A 
ATOM      2  C   UNL     1       3.579   7.682  17.314  0.00  0.00    +0.000 A 
ATOM      3  C   UNL     1       2.615   8.478  17.955  0.00  0.00    +0.000 A 
ATOM      4  O   UNL     1       2.317   9.608  17.432  0.00  0.00    +0.000 OA
ATOM      5  C   UNL     1       2.027   7.909  19.139  0.00  0.00    +0.000 A 
ATOM      6  C   UNL     1       2.355   6.569  19.569  0.00  0.00    +0.000 A 
ATOM      7  C   UNL     1       1.729   5.963  20.686  0.00  0.00    +0.000 A 
ATOM      8  C   UNL     1       2.028   4.653  21.095  0.00  0.00    +0.000 A 
ATOM      9  C   UNL     1       2.971   3.917  20.403  0.00  0.00    +0.000 A 
ATOM     10  C   UNL     1       3.609   4.489  19.305  0.00  0.00    +0.000 A 
ATOM     11  C   UNL     1       3.311   5.800  18.855  0.00  0.00    +0.000 A 
ENDROOT
BRANCH   1  13
ATOM     12  O   UNL     1       5.477   6.364  15.607  0.00  0.00    +0.000 OA
ATOM     13  S   UNL     1       5.002   5.470  16.690  0.00  0.00    +0.000 S 
ATOM     14  O   UNL     1       4.377   4.261  16.219  0.00  0.00    +0.000 OA
ATOM     15  O   UNL     1       6.302   5.263  17.358  0.00  0.00    +0.000 OA
ENDBRANCH   1  13
BRANCH   5  16
ATOM     16  N   UNL     1       1.006   8.577  19.898  0.00  0.00    +0.000 NA
ATOM     17  N   UNL     1       1.295   9.752  20.202  0.00  0.00    +0.000 NA
BRANCH  17  18
ATOM     18  C   UNL     1       0.356  10.408  21.051  0.00  0.00    +0.000 A 
ATOM     19  C   UNL     1      -0.122   9.866  22.264  0.00  0.00    +0.000 A 
ATOM     20  C   UNL     1      -0.995  10.570  23.091  0.00  0.00    +0.000 A 
ATOM     21  C   UNL     1      -1.423  11.838  22.718  0.00  0.00    +0.000 A 
ATOM     22  C   UNL     1      -1.010  12.406  21.503  0.00  0.00    +0.000 A 
ATOM     23  C   UNL     1      -1.460  13.681  21.122  0.00  0.00    +0.000 A 
ATOM     24  C   UNL     1      -1.072  14.246  19.907  0.00  0.00    +0.000 A 
ATOM     25  C   UNL     1      -0.238  13.538  19.052  0.00  0.00    +0.000 A 
ATOM     26  C   UNL     1       0.225  12.274  19.419  0.00  0.00    +0.000 A 
ATOM     27  C   UNL     1      -0.129  11.682  20.652  0.00  0.00    +0.000 A 
BRANCH  19  28
ATOM     28  O   UNL     1       0.233   8.611  22.687  0.00  0.00    +0.000 OA
ATOM     29  H   UNL     1      -0.396   8.414  23.415  0.00  0.00    +0.000 HD
ENDBRANCH  19  28
ENDBRANCH  17  18
ENDBRANCH   5  16
TORSDOF 4
ENDMDL
MODEL 8
REMARK VINA RESULT:      -7.8      2.131      3.831
REMARK  Name = 
REMARK  4 active torsions:
REMARK  status: ('A' for Active; 'I' for Inactive)
REMARK    1  A    between atoms: S_2  and  C_5
REMARK    2  A    between atoms: C_9  and  N_10
REMARK    3  A    between atoms: N_11  and  C_12
REMARK    4  A    between atoms: C_13  and  O_14
REMARK                            x       y       z     vdW  Elec       q    Type
REMARK                         _______ _______ _______ _____ _____    ______ ____
ROOT
ATOM      1  C   UNL     1      -1.042  11.621  21.504  0.00  0.00    +0.000 A 
ATOM      2  C   UNL     1       0.012  10.961  22.143  0.00  0.00    +0.000 A 
ATOM      3  C   UNL     1       0.807   9.982  21.523  0.00  0.00    +0.000 A 
ATOM      4  O   UNL     1       1.679   9.370  22.233  0.00  0.00    +0.000 OA
ATOM      5  C   UNL     1       0.525   9.743  20.132  0.00  0.00    +0.000 A 
ATOM      6  C   UNL     1      -0.567  10.411  19.462  0.00  0.00    +0.000 A 
ATOM      7  C   UNL     1      -0.908  10.131  18.117  0.00  0.00    +0.000 A 
ATOM      8  C   UNL     1      -1.983  10.761  17.468  0.00  0.00    +0.000 A 
ATOM      9  C   UNL     1      -2.739  11.698  18.146  0.00  0.00    +0.000 A 
ATOM     10  C   UNL     1      -2.423  12.001  19.468  0.00  0.00    +0.000 A 
ATOM     11  C   UNL     1      -1.359  11.364  20.156  0.00  0.00    +0.000 A 
ENDROOT
BRANCH   1  13
ATOM     12  O   UNL     1      -1.245  13.129  23.653  0.00  0.00    +0.000 OA
ATOM     13  S   UNL     1      -2.047  12.676  22.492  0.00  0.00    +0.000 S 
ATOM     14  O   UNL     1      -3.283  12.029  22.851  0.00  0.00    +0.000 OA
ATOM     15  O   UNL     1      -2.216  13.991  21.844  0.00  0.00    +0.000 OA
ENDBRANCH   1  13
BRANCH   5  16
ATOM     16  N   UNL     1       1.225   8.757  19.355  0.00  0.00    +0.000 NA
ATOM     17  N   UNL     1       1.694   7.822  20.036  0.00  0.00    +0.000 NA
BRANCH  17  18
ATOM     18  C   UNL     1       2.491   6.886  19.315  0.00  0.00    +0.000 A 
ATOM     19  C   UNL     1       3.247   7.213  18.168  0.00  0.00    +0.000 A 
ATOM     20  C   UNL     1       4.058   6.277  17.530  0.00  0.00    +0.000 A 
ATOM     21  C   UNL     1       4.127   4.979  18.021  0.00  0.00    +0.000 A 
ATOM     22  C   UNL     1       3.364   4.591  19.133  0.00  0.00    +0.000 A 
ATOM     23  C   UNL     1       3.425   3.272  19.614  0.00  0.00    +0.000 A 
ATOM     24  C   UNL     1       2.655   2.871  20.707  0.00  0.00    +0.000 A 
ATOM     25  C   UNL     1       1.808   3.781  21.325  0.00  0.00    +0.000 A 
ATOM     26  C   UNL     1       1.743   5.097  20.865  0.00  0.00    +0.000 A 
ATOM     27  C   UNL     1       2.526   5.543  19.777  0.00  0.00    +0.000 A 
BRANCH  19  28
ATOM     28  O   UNL     1       3.211   8.464  17.609  0.00  0.00    +0.000 OA
ATOM     29  H   UNL     1       3.648   8.353  16.737  0.00  0.00    +0.000 HD
ENDBRANCH  19  28
ENDBRANCH  17  18
ENDBRANCH   5  16
TORSDOF 4
ENDMDL
