MODEL 1
REMARK VINA RESULT:      -6.9      0.000      0.000
REMARK  Name = 
REMARK  4 active torsions:
REMARK  status: ('A' for Active; 'I' for Inactive)
REMARK    1  A    between atoms: C_1  and  C_2
REMARK    2  A    between atoms: C_6  and  C_7
REMARK    3  A    between atoms: C_9  and  C_10
REMARK    4  A    between atoms: C_13  and  O_14
REMARK                            x       y       z     vdW  Elec       q    Type
REMARK                         _______ _______ _______ _____ _____    ______ ____
ROOT
ATOM      1  C   UNL     1       1.874   7.996  20.320  0.00  0.00    +0.000 C 
ATOM      2  C   UNL     1       2.171   7.220  19.062  0.00  0.00    +0.000 C 
ATOM      3  O   UNL     1       2.445   7.790  18.007  0.00  0.00    +0.000 OA
ATOM      4  N   UNL     1       2.122   5.845  19.188  0.00  0.00    +0.000 N 
ATOM      5  N   UNL     1       1.745   5.206  20.346  0.00  0.00    +0.000 NA
ATOM      6  C   UNL     1       1.656   3.948  20.041  0.00  0.00    +0.000 C 
ATOM      7  C   UNL     1       1.282   2.894  21.030  0.00  0.00    +0.000 C 
ATOM      8  C   UNL     1       1.873   3.607  18.595  0.00  0.00    +0.000 C 
ATOM      9  C   UNL     1       2.474   4.919  18.111  0.00  0.00    +0.000 C 
ENDROOT
BRANCH   9  10
ATOM     10  C   UNL     1       3.974   4.789  17.884  0.00  0.00    +0.000 A 
ATOM     11  C   UNL     1       4.448   4.326  16.645  0.00  0.00    +0.000 A 
ATOM     12  C   UNL     1       5.821   4.193  16.407  0.00  0.00    +0.000 A 
ATOM     13  C   UNL     1       6.724   4.519  17.412  0.00  0.00    +0.000 A 
ATOM     14  C   UNL     1       6.280   4.965  18.649  0.00  0.00    +0.000 A 
ATOM     15  C   UNL     1       4.912   5.092  18.887  0.00  0.00    +0.000 A 
BRANCH  13  16
ATOM     16  O   UNL     1       8.070   4.414  17.223  0.00  0.00    +0.000 OA
ATOM     17  H   UNL     1       8.515   4.584  18.069  0.00  0.00    +0.000 HD
ENDBRANCH  13  16
ENDBRANCH   9  10
TORSDOF 2
ENDMDL
MODEL 2
REMARK VINA RESULT:      -6.8      0.170      1.219
REMARK  Name = 
REMARK  4 active torsions:
REMARK  status: ('A' for Active; 'I' for Inactive)
REMARK    1  A    between atoms: C_1  and  C_2
REMARK    2  A    between atoms: C_6  and  C_7
REMARK    3  A    between atoms: C_9  and  C_10
REMARK    4  A    between atoms: C_13  and  O_14
REMARK                            x       y       z     vdW  Elec       q    Type
REMARK                         _______ _______ _______ _____ _____    ______ ____
ROOT
ATOM      1  C   UNL     1       1.869   7.889  20.498  0.00  0.00    +0.000 C 
ATOM      2  C   UNL     1       2.123   7.119  19.226  0.00  0.00    +0.000 C 
ATOM      3  O   UNL     1       2.344   7.695  18.162  0.00  0.00    +0.000 OA
ATOM      4  N   UNL     1       2.100   5.744  19.352  0.00  0.00    +0.000 N 
ATOM      5  N   UNL     1       1.782   5.098  20.524  0.00  0.00    +0.000 NA
ATOM      6  C   UNL     1       1.698   3.839  20.220  0.00  0.00    +0.000 C 
ATOM      7  C   UNL     1       1.383   2.779  21.222  0.00  0.00    +0.000 C 
ATOM      8  C   UNL     1       1.859   3.503  18.766  0.00  0.00    +0.000 C 
ATOM      9  C   UNL     1       2.419   4.825  18.259  0.00  0.00    +0.000 C 
ENDROOT
BRANCH   9  10
ATOM     10  C   UNL     1       3.910   4.717  17.969  0.00  0.00    +0.000 A 
ATOM     11  C   UNL     1       4.836   5.064  18.968  0.00  0.00    +0.000 A 
ATOM     12  C   UNL     1       6.212   4.978  18.730  0.00  0.00    +0.000 A 
ATOM     13  C   UNL     1       6.667   4.550  17.489  0.00  0.00    +0.000 A 
ATOM     14  C   UNL     1       5.773   4.216  16.481  0.00  0.00    +0.000 A 
ATOM     15  C   UNL     1       4.401   4.307  16.717  0.00  0.00    +0.000 A 
BRANCH  13  16
ATOM     16  O   UNL     1       7.998   4.442  17.215  0.00  0.00    +0.000 OA
ATOM     17  H   UNL     1       8.370   3.734  17.765  0.00  0.00    +0.000 HD
ENDBRANCH  13  16
ENDBRANCH   9  10
TORSDOF 2
ENDMDL
MODEL 3
REMARK VINA RESULT:      -6.4      2.525      5.260
REMARK  Name = 
REMARK  4 active torsions:
REMARK  status: ('A' for Active; 'I' for Inactive)
REMARK    1  A    between atoms: C_1  and  C_2
REMARK    2  A    between atoms: C_6  and  C_7
REMARK    3  A    between atoms: C_9  and  C_10
REMARK    4  A    between atoms: C_13  and  O_14
REMARK                            x       y       z     vdW  Elec       q    Type
REMARK                         _______ _______ _______ _____ _____    ______ ____
ROOT
ATOM      1  C   UNL     1       2.176   2.708  18.942  0.00  0.00    +0.000 C 
ATOM      2  C   UNL     1       2.141   3.989  18.147  0.00  0.00    +0.000 C 
ATOM      3  O   UNL     1       1.170   4.286  17.452  0.00  0.00    +0.000 OA
ATOM      4  N   UNL     1       3.258   4.792  18.268  0.00  0.00    +0.000 N 
ATOM      5  N   UNL     1       4.373   4.430  18.985  0.00  0.00    +0.000 NA
ATOM      6  C   UNL     1       5.264   5.340  18.734  0.00  0.00    +0.000 C 
ATOM      7  C   UNL     1       6.631   5.330  19.334  0.00  0.00    +0.000 C 
ATOM      8  C   UNL     1       4.872   6.381  17.726  0.00  0.00    +0.000 C 
ATOM      9  C   UNL     1       3.374   6.116  17.655  0.00  0.00    +0.000 C 
ENDROOT
BRANCH   9  10
ATOM     10  C   UNL     1       2.587   7.197  18.385  0.00  0.00    +0.000 A 
ATOM     11  C   UNL     1       2.300   7.039  19.752  0.00  0.00    +0.000 A 
ATOM     12  C   UNL     1       1.577   8.013  20.449  0.00  0.00    +0.000 A 
ATOM     13  C   UNL     1       1.134   9.147  19.779  0.00  0.00    +0.000 A 
ATOM     14  C   UNL     1       1.393   9.319  18.427  0.00  0.00    +0.000 A 
ATOM     15  C   UNL     1       2.109   8.345  17.731  0.00  0.00    +0.000 A 
BRANCH  13  16
ATOM     16  O   UNL     1       0.435  10.127  20.419  0.00  0.00    +0.000 OA
ATOM     17  H   UNL     1       1.066  10.722  20.854  0.00  0.00    +0.000 HD
ENDBRANCH  13  16
ENDBRANCH   9  10
TORSDOF 2
ENDMDL
MODEL 4
REMARK VINA RESULT:      -6.4      2.295      3.588
REMARK  Name = 
REMARK  4 active torsions:
REMARK  status: ('A' for Active; 'I' for Inactive)
REMARK    1  A    between atoms: C_1  and  C_2
REMARK    2  A    between atoms: C_6  and  C_7
REMARK    3  A    between atoms: C_9  and  C_10
REMARK    4  A    between atoms: C_13  and  O_14
REMARK                            x       y       z     vdW  Elec       q    Type
REMARK                         _______ _______ _______ _____ _____    ______ ____
ROOT
ATOM      1  C   UNL     1       1.400   2.133  18.259  0.00  0.00    +0.000 C 
ATOM      2  C   UNL     1       2.876   2.385  18.437  0.00  0.00    +0.000 C 
ATOM      3  O   UNL     1       3.700   1.478  18.321  0.00  0.00    +0.000 OA
ATOM      4  N   UNL     1       3.224   3.691  18.723  0.00  0.00    +0.000 N 
ATOM      5  N   UNL     1       2.303   4.690  18.925  0.00  0.00    +0.000 NA
ATOM      6  C   UNL     1       2.982   5.719  19.333  0.00  0.00    +0.000 C 
ATOM      7  C   UNL     1       2.355   7.034  19.654  0.00  0.00    +0.000 C 
ATOM      8  C   UNL     1       4.451   5.491  19.546  0.00  0.00    +0.000 C 
ATOM      9  C   UNL     1       4.608   4.154  18.834  0.00  0.00    +0.000 C 
ENDROOT
BRANCH   9  10
ATOM     10  C   UNL     1       5.304   4.323  17.491  0.00  0.00    +0.000 A 
ATOM     11  C   UNL     1       6.683   4.595  17.456  0.00  0.00    +0.000 A 
ATOM     12  C   UNL     1       7.350   4.758  16.237  0.00  0.00    +0.000 A 
ATOM     13  C   UNL     1       6.639   4.653  15.048  0.00  0.00    +0.000 A 
ATOM     14  C   UNL     1       5.275   4.399  15.056  0.00  0.00    +0.000 A 
ATOM     15  C   UNL     1       4.609   4.242  16.272  0.00  0.00    +0.000 A 
BRANCH  13  16
ATOM     16  O   UNL     1       7.248   4.794  13.836  0.00  0.00    +0.000 OA
ATOM     17  H   UNL     1       7.348   3.915  13.437  0.00  0.00    +0.000 HD
ENDBRANCH  13  16
ENDBRANCH   9  10
TORSDOF 2
ENDMDL
MODEL 5
REMARK VINA RESULT:      -6.4      1.784      4.748
REMARK  Name = 
REMARK  4 active torsions:
REMARK  status: ('A' for Active; 'I' for Inactive)
REMARK    1  A    between atoms: C_1  and  C_2
REMARK    2  A    between atoms: C_6  and  C_7
REMARK    3  A    between atoms: C_9  and  C_10
REMARK    4  A    between atoms: C_13  and  O_14
REMARK                            x       y       z     vdW  Elec       q    Type
REMARK                         _______ _______ _______ _____ _____    ______ ____
ROOT
ATOM      1  C   UNL     1       5.668   4.052  17.934  0.00  0.00    +0.000 C 
ATOM      2  C   UNL     1       5.003   4.901  18.989  0.00  0.00    +0.000 C 
ATOM      3  O   UNL     1       5.622   5.777  19.591  0.00  0.00    +0.000 OA
ATOM      4  N   UNL     1       3.667   4.630  19.211  0.00  0.00    +0.000 N 
ATOM      5  N   UNL     1       2.991   3.605  18.593  0.00  0.00    +0.000 NA
ATOM      6  C   UNL     1       1.829   3.551  19.168  0.00  0.00    +0.000 C 
ATOM      7  C   UNL     1       0.771   2.574  18.778  0.00  0.00    +0.000 C 
ATOM      8  C   UNL     1       1.625   4.489  20.323  0.00  0.00    +0.000 C 
ATOM      9  C   UNL     1       2.823   5.406  20.121  0.00  0.00    +0.000 C 
ENDROOT
BRANCH   9  10
ATOM     10  C   UNL     1       2.397   6.755  19.555  0.00  0.00    +0.000 A 
ATOM     11  C   UNL     1       1.724   7.670  20.383  0.00  0.00    +0.000 A 
ATOM     12  C   UNL     1       1.318   8.916  19.892  0.00  0.00    +0.000 A 
ATOM     13  C   UNL     1       1.579   9.248  18.568  0.00  0.00    +0.000 A 
ATOM     14  C   UNL     1       2.229   8.356  17.727  0.00  0.00    +0.000 A 
ATOM     15  C   UNL     1       2.629   7.112  18.216  0.00  0.00    +0.000 A 
BRANCH  13  16
ATOM     16  O   UNL     1       1.210  10.453  18.048  0.00  0.00    +0.000 OA
ATOM     17  H   UNL     1       1.377  10.440  17.092  0.00  0.00    +0.000 HD
ENDBRANCH  13  16
ENDBRANCH   9  10
TORSDOF 2
ENDMDL
MODEL 6
REMARK VINA RESULT:      -6.3      2.464      4.543
REMARK  Name = 
REMARK  4 active torsions:
REMARK  status: ('A' for Active; 'I' for Inactive)
REMARK    1  A    between atoms: C_1  and  C_2
REMARK    2  A    between atoms: C_6  and  C_7
REMARK    3  A    between atoms: C_9  and  C_10
REMARK    4  A    between atoms: C_13  and  O_14
REMARK                            x       y       z     vdW  Elec       q    Type
REMARK                         _______ _______ _______ _____ _____    ______ ____
ROOT
ATOM      1  C   UNL     1       2.152   8.880  17.738  0.00  0.00    +0.000 C 
ATOM      2  C   UNL     1       2.417   7.804  18.761  0.00  0.00    +0.000 C 
ATOM      3  O   UNL     1       1.733   7.704  19.778  0.00  0.00    +0.000 OA
ATOM      4  N   UNL     1       3.460   6.949  18.464  0.00  0.00    +0.000 N 
ATOM      5  N   UNL     1       4.272   7.102  17.365  0.00  0.00    +0.000 NA
ATOM      6  C   UNL     1       5.226   6.232  17.508  0.00  0.00    +0.000 C 
ATOM      7  C   UNL     1       6.324   6.057  16.513  0.00  0.00    +0.000 C 
ATOM      8  C   UNL     1       5.213   5.450  18.790  0.00  0.00    +0.000 C 
ATOM      9  C   UNL     1       3.811   5.785  19.279  0.00  0.00    +0.000 C 
ENDROOT
BRANCH   9  10
ATOM     10  C   UNL     1       2.866   4.605  19.094  0.00  0.00    +0.000 A 
ATOM     11  C   UNL     1       1.875   4.356  20.060  0.00  0.00    +0.000 A 
ATOM     12  C   UNL     1       0.993   3.278  19.919  0.00  0.00    +0.000 A 
ATOM     13  C   UNL     1       1.105   2.442  18.815  0.00  0.00    +0.000 A 
ATOM     14  C   UNL     1       2.084   2.658  17.856  0.00  0.00    +0.000 A 
ATOM     15  C   UNL     1       2.966   3.730  17.999  0.00  0.00    +0.000 A 
BRANCH  13  16
ATOM     16  O   UNL     1       0.263   1.385  18.632  0.00  0.00    +0.000 OA
ATOM     17  H   UNL     1       0.377   1.053  17.727  0.00  0.00    +0.000 HD
ENDBRANCH  13  16
ENDBRANCH   9  10
TORSDOF 2
ENDMDL
MODEL 7
REMARK VINA RESULT:      -6.3      2.458      4.407
REMARK  Name = 
REMARK  4 active torsions:
REMARK  status: ('A' for Active; 'I' for Inactive)
REMARK    1  A    between atoms: C_1  and  C_2
REMARK    2  A    between atoms: C_6  and  C_7
REMARK    3  A    between atoms: C_9  and  C_10
REMARK    4  A    between atoms: C_13  and  O_14
REMARK                            x       y       z     vdW  Elec       q    Type
REMARK                         _______ _______ _______ _____ _____    ______ ____
ROOT
ATOM      1  C   UNL     1       2.166   8.870  17.733  0.00  0.00    +0.000 C 
ATOM      2  C   UNL     1       2.424   7.806  18.770  0.00  0.00    +0.000 C 
ATOM      3  O   UNL     1       1.738   7.723  19.788  0.00  0.00    +0.000 OA
ATOM      4  N   UNL     1       3.462   6.940  18.484  0.00  0.00    +0.000 N 
ATOM      5  N   UNL     1       4.275   7.074  17.385  0.00  0.00    +0.000 NA
ATOM      6  C   UNL     1       5.223   6.201  17.539  0.00  0.00    +0.000 C 
ATOM      7  C   UNL     1       6.321   6.006  16.547  0.00  0.00    +0.000 C 
ATOM      8  C   UNL     1       5.205   5.435  18.830  0.00  0.00    +0.000 C 
ATOM      9  C   UNL     1       3.805   5.785  19.314  0.00  0.00    +0.000 C 
ENDROOT
BRANCH   9  10
ATOM     10  C   UNL     1       2.852   4.608  19.144  0.00  0.00    +0.000 A 
ATOM     11  C   UNL     1       2.986   3.767  18.026  0.00  0.00    +0.000 A 
ATOM     12  C   UNL     1       2.125   2.679  17.841  0.00  0.00    +0.000 A 
ATOM     13  C   UNL     1       1.123   2.434  18.772  0.00  0.00    +0.000 A 
ATOM     14  C   UNL     1       0.962   3.259  19.876  0.00  0.00    +0.000 A 
ATOM     15  C   UNL     1       1.817   4.346  20.058  0.00  0.00    +0.000 A 
BRANCH  13  16
ATOM     16  O   UNL     1       0.267   1.381  18.638  0.00  0.00    +0.000 OA
ATOM     17  H   UNL     1       0.382   1.000  17.753  0.00  0.00    +0.000 HD
ENDBRANCH  13  16
ENDBRANCH   9  10
TORSDOF 2
ENDMDL
MODEL 8
REMARK VINA RESULT:      -6.3      2.501      5.153
REMARK  Name = 
REMARK  4 active torsions:
REMARK  status: ('A' for Active; 'I' for Inactive)
REMARK    1  A    between atoms: C_1  and  C_2
REMARK    2  A    between atoms: C_6  and  C_7
REMARK    3  A    between atoms: C_9  and  C_10
REMARK    4  A    between atoms: C_13  and  O_14
REMARK                            x       y       z     vdW  Elec       q    Type
REMARK                         _______ _______ _______ _____ _____    ______ ____
ROOT
ATOM      1  C   UNL     1       3.173   2.256  18.844  0.00  0.00    +0.000 C 
ATOM      2  C   UNL     1       2.905   3.514  18.057  0.00  0.00    +0.000 C 
ATOM      3  O   UNL     1       1.841   3.686  17.465  0.00  0.00    +0.000 OA
ATOM      4  N   UNL     1       3.926   4.446  18.065  0.00  0.00    +0.000 N 
ATOM      5  N   UNL     1       5.143   4.227  18.664  0.00  0.00    +0.000 NA
ATOM      6  C   UNL     1       5.889   5.233  18.323  0.00  0.00    +0.000 C 
ATOM      7  C   UNL     1       7.301   5.392  18.781  0.00  0.00    +0.000 C 
ATOM      8  C   UNL     1       5.275   6.209  17.361  0.00  0.00    +0.000 C 
ATOM      9  C   UNL     1       3.821   5.767  17.445  0.00  0.00    +0.000 C 
ENDROOT
BRANCH   9  10
ATOM     10  C   UNL     1       2.989   6.755  18.252  0.00  0.00    +0.000 A 
ATOM     11  C   UNL     1       2.610   7.977  17.669  0.00  0.00    +0.000 A 
ATOM     12  C   UNL     1       1.848   8.906  18.387  0.00  0.00    +0.000 A 
ATOM     13  C   UNL     1       1.468   8.618  19.692  0.00  0.00    +0.000 A 
ATOM     14  C   UNL     1       1.842   7.425  20.294  0.00  0.00    +0.000 A 
ATOM     15  C   UNL     1       2.606   6.501  19.580  0.00  0.00    +0.000 A 
BRANCH  13  16
ATOM     16  O   UNL     1       0.718   9.489  20.426  0.00  0.00    +0.000 OA
ATOM     17  H   UNL     1       1.240  10.293  20.578  0.00  0.00    +0.000 HD
ENDBRANCH  13  16
ENDBRANCH   9  10
TORSDOF 2
ENDMDL
MODEL 9
REMARK VINA RESULT:      -6.3      1.303      1.631
REMARK  Name = 
REMARK  4 active torsions:
REMARK  status: ('A' for Active; 'I' for Inactive)
REMARK    1  A    between atoms: C_1  and  C_2
REMARK    2  A    between atoms: C_6  and  C_7
REMARK    3  A    between atoms: C_9  and  C_10
REMARK    4  A    between atoms: C_13  and  O_14
REMARK                            x       y       z     vdW  Elec       q    Type
REMARK                         _______ _______ _______ _____ _____    ______ ____
ROOT
ATOM      1  C   UNL     1       1.417   8.329  21.324  0.00  0.00    +0.000 C 
ATOM      2  C   UNL     1       1.764   7.813  19.951  0.00  0.00    +0.000 C 
ATOM      3  O   UNL     1       1.908   8.576  18.996  0.00  0.00    +0.000 OA
ATOM      4  N   UNL     1       1.918   6.443  19.854  0.00  0.00    +0.000 N 
ATOM      5  N   UNL     1       1.687   5.582  20.900  0.00  0.00    +0.000 NA
ATOM      6  C   UNL     1       1.764   4.388  20.397  0.00  0.00    +0.000 C 
ATOM      7  C   UNL     1       1.588   3.149  21.210  0.00  0.00    +0.000 C 
ATOM      8  C   UNL     1       1.963   4.314  18.911  0.00  0.00    +0.000 C 
ATOM      9  C   UNL     1       2.349   5.761  18.634  0.00  0.00    +0.000 C 
ENDROOT
BRANCH   9  10
ATOM     10  C   UNL     1       3.841   5.890  18.358  0.00  0.00    +0.000 A 
ATOM     11  C   UNL     1       4.759   5.246  19.205  0.00  0.00    +0.000 A 
ATOM     12  C   UNL     1       6.137   5.349  18.978  0.00  0.00    +0.000 A 
ATOM     13  C   UNL     1       6.600   6.101  17.906  0.00  0.00    +0.000 A 
ATOM     14  C   UNL     1       5.714   6.758  17.064  0.00  0.00    +0.000 A 
ATOM     15  C   UNL     1       4.341   6.660  17.293  0.00  0.00    +0.000 A 
BRANCH  13  16
ATOM     16  O   UNL     1       7.932   6.222  17.641  0.00  0.00    +0.000 OA
ATOM     17  H   UNL     1       8.151   7.166  17.587  0.00  0.00    +0.000 HD
ENDBRANCH  13  16
ENDBRANCH   9  10
TORSDOF 2
ENDMDL
