MODEL 1
REMARK VINA RESULT:      -7.8      0.000      0.000
REMARK  Name = 
REMARK  4 active torsions:
REMARK  status: ('A' for Active; 'I' for Inactive)
REMARK    1  A    between atoms: N_6  and  C_7
REMARK    2  A    between atoms: C_9  and  C_10
REMARK    3  A    between atoms: C_10  and  O_11
REMARK    4  A    between atoms: C_12  and  O_13
REMARK                            x       y       z     vdW  Elec       q    Type
REMARK                         _______ _______ _______ _____ _____    ______ ____
ROOT
ATOM      1  C   UNL     1       3.354   4.681  18.913  0.00  0.00    +0.000 C 
ATOM      2  O   UNL     1       3.731   3.859  20.044  0.00  0.00    +0.000 OA
ATOM      3  C   UNL     1       2.803   2.748  20.102  0.00  0.00    +0.000 C 
ATOM      4  C   UNL     1       1.698   2.998  19.074  0.00  0.00    +0.000 C 
ATOM      5  C   UNL     1       2.424   3.836  18.041  0.00  0.00    +0.000 C 
ATOM      6  F   UNL     1       1.577   4.561  17.290  0.00  0.00    +0.000 F 
ATOM      7  F   UNL     1       3.117   3.014  17.209  0.00  0.00    +0.000 F 
ENDROOT
BRANCH   1  13
ATOM      8  O   UNL     1       7.768   6.770  16.423  0.00  0.00    +0.000 OA
ATOM      9  C   UNL     1       6.785   6.266  16.950  0.00  0.00    +0.000 A 
ATOM     10  N   UNL     1       5.573   6.904  17.013  0.00  0.00    +0.000 N 
ATOM     11  C   UNL     1       4.440   6.440  17.632  0.00  0.00    +0.000 A 
ATOM     12  O   UNL     1       3.414   7.114  17.639  0.00  0.00    +0.000 OA
ATOM     13  N   UNL     1       4.549   5.197  18.247  0.00  0.00    +0.000 N 
ATOM     14  C   UNL     1       5.718   4.456  18.171  0.00  0.00    +0.000 A 
ATOM     15  C   UNL     1       6.808   4.923  17.567  0.00  0.00    +0.000 A 
ATOM     16  F   UNL     1       7.954   4.225  17.498  0.00  0.00    +0.000 F 
ATOM     17  H   UNL     1       5.520   7.819  16.594  0.00  0.00    +0.000 HD
ENDBRANCH   1  13
BRANCH   4  18
ATOM     18  O   UNL     1       1.175   1.765  18.574  0.00  0.00    +0.000 OA
ATOM     19  H   UNL     1       1.928   1.173  18.382  0.00  0.00    +0.000 HD
ENDBRANCH   4  18
BRANCH   3  20
ATOM     20  C   UNL     1       2.259   2.650  21.527  0.00  0.00    +0.000 C 
BRANCH  20  21
ATOM     21  O   UNL     1       0.835   2.747  21.512  0.00  0.00    +0.000 OA
ATOM     22  H   UNL     1       0.553   2.558  20.598  0.00  0.00    +0.000 HD
ENDBRANCH  20  21
ENDBRANCH   3  20
TORSDOF 4
ENDMDL
MODEL 2
REMARK VINA RESULT:      -7.4      2.020      5.624
REMARK  Name = 
REMARK  4 active torsions:
REMARK  status: ('A' for Active; 'I' for Inactive)
REMARK    1  A    between atoms: N_6  and  C_7
REMARK    2  A    between atoms: C_9  and  C_10
REMARK    3  A    between atoms: C_10  and  O_11
REMARK    4  A    between atoms: C_12  and  O_13
REMARK                            x       y       z     vdW  Elec       q    Type
REMARK                         _______ _______ _______ _____ _____    ______ ____
ROOT
ATOM      1  C   UNL     1       5.521   3.976  18.186  0.00  0.00    +0.000 C 
ATOM      2  O   UNL     1       5.895   5.057  19.074  0.00  0.00    +0.000 OA
ATOM      3  C   UNL     1       6.800   5.923  18.346  0.00  0.00    +0.000 C 
ATOM      4  C   UNL     1       7.139   5.247  17.017  0.00  0.00    +0.000 C 
ATOM      5  C   UNL     1       5.896   4.415  16.769  0.00  0.00    +0.000 C 
ATOM      6  F   UNL     1       6.129   3.393  15.928  0.00  0.00    +0.000 F 
ATOM      7  F   UNL     1       4.938   5.202  16.211  0.00  0.00    +0.000 F 
ENDROOT
BRANCH   1  13
ATOM      8  O   UNL     1       0.294   2.587  19.082  0.00  0.00    +0.000 OA
ATOM      9  C   UNL     1       1.455   2.887  18.836  0.00  0.00    +0.000 A 
ATOM     10  N   UNL     1       2.519   2.288  19.459  0.00  0.00    +0.000 N 
ATOM     11  C   UNL     1       3.844   2.601  19.287  0.00  0.00    +0.000 A 
ATOM     12  O   UNL     1       4.712   2.005  19.920  0.00  0.00    +0.000 OA
ATOM     13  N   UNL     1       4.115   3.625  18.386  0.00  0.00    +0.000 N 
ATOM     14  C   UNL     1       3.102   4.235  17.664  0.00  0.00    +0.000 A 
ATOM     15  C   UNL     1       1.822   3.920  17.845  0.00  0.00    +0.000 A 
ATOM     16  F   UNL     1       0.826   4.513  17.164  0.00  0.00    +0.000 F 
ATOM     17  H   UNL     1       2.306   1.573  20.136  0.00  0.00    +0.000 HD
ENDBRANCH   1  13
BRANCH   4  18
ATOM     18  O   UNL     1       7.412   6.218  16.002  0.00  0.00    +0.000 OA
ATOM     19  H   UNL     1       7.962   6.922  16.398  0.00  0.00    +0.000 HD
ENDBRANCH   4  18
BRANCH   3  20
ATOM     20  C   UNL     1       8.038   6.160  19.209  0.00  0.00    +0.000 C 
BRANCH  20  21
ATOM     21  O   UNL     1       7.920   5.442  20.437  0.00  0.00    +0.000 OA
ATOM     22  H   UNL     1       8.455   5.926  21.094  0.00  0.00    +0.000 HD
ENDBRANCH  20  21
ENDBRANCH   3  20
TORSDOF 4
ENDMDL
MODEL 3
REMARK VINA RESULT:      -7.4      2.387      2.893
REMARK  Name = 
REMARK  4 active torsions:
REMARK  status: ('A' for Active; 'I' for Inactive)
REMARK    1  A    between atoms: N_6  and  C_7
REMARK    2  A    between atoms: C_9  and  C_10
REMARK    3  A    between atoms: C_10  and  O_11
REMARK    4  A    between atoms: C_12  and  O_13
REMARK                            x       y       z     vdW  Elec       q    Type
REMARK                         _______ _______ _______ _____ _____    ______ ____
ROOT
ATOM      1  C   UNL     1       4.695   3.883  18.401  0.00  0.00    +0.000 C 
ATOM      2  O   UNL     1       3.674   2.917  18.054  0.00  0.00    +0.000 OA
ATOM      3  C   UNL     1       2.483   3.252  18.809  0.00  0.00    +0.000 C 
ATOM      4  C   UNL     1       2.846   4.361  19.798  0.00  0.00    +0.000 C 
ATOM      5  C   UNL     1       3.984   5.056  19.079  0.00  0.00    +0.000 C 
ATOM      6  F   UNL     1       4.767   5.752  19.921  0.00  0.00    +0.000 F 
ATOM      7  F   UNL     1       3.470   5.929  18.172  0.00  0.00    +0.000 F 
ENDROOT
BRANCH   1  13
ATOM      8  O   UNL     1       7.808   5.134  14.066  0.00  0.00    +0.000 OA
ATOM      9  C   UNL     1       7.081   4.888  15.020  0.00  0.00    +0.000 A 
ATOM     10  N   UNL     1       7.521   4.956  16.317  0.00  0.00    +0.000 N 
ATOM     11  C   UNL     1       6.795   4.643  17.439  0.00  0.00    +0.000 A 
ATOM     12  O   UNL     1       7.305   4.724  18.553  0.00  0.00    +0.000 OA
ATOM     13  N   UNL     1       5.488   4.222  17.220  0.00  0.00    +0.000 N 
ATOM     14  C   UNL     1       4.946   4.190  15.945  0.00  0.00    +0.000 A 
ATOM     15  C   UNL     1       5.665   4.496  14.868  0.00  0.00    +0.000 A 
ATOM     16  F   UNL     1       5.159   4.456  13.624  0.00  0.00    +0.000 F 
ATOM     17  H   UNL     1       8.480   5.228  16.458  0.00  0.00    +0.000 HD
ENDBRANCH   1  13
BRANCH   4  18
ATOM     18  O   UNL     1       1.718   5.198  20.067  0.00  0.00    +0.000 OA
ATOM     19  H   UNL     1       1.562   5.194  21.032  0.00  0.00    +0.000 HD
ENDBRANCH   4  18
BRANCH   3  20
ATOM     20  C   UNL     1       1.985   1.989  19.509  0.00  0.00    +0.000 C 
BRANCH  20  21
ATOM     21  O   UNL     1       1.522   2.310  20.820  0.00  0.00    +0.000 OA
ATOM     22  H   UNL     1       0.979   3.115  20.734  0.00  0.00    +0.000 HD
ENDBRANCH  20  21
ENDBRANCH   3  20
TORSDOF 4
ENDMDL
MODEL 4
REMARK VINA RESULT:      -7.3      2.212      5.803
REMARK  Name = 
REMARK  4 active torsions:
REMARK  status: ('A' for Active; 'I' for Inactive)
REMARK    1  A    between atoms: N_6  and  C_7
REMARK    2  A    between atoms: C_9  and  C_10
REMARK    3  A    between atoms: C_10  and  O_11
REMARK    4  A    between atoms: C_12  and  O_13
REMARK                            x       y       z     vdW  Elec       q    Type
REMARK                         _______ _______ _______ _____ _____    ______ ____
ROOT
ATOM      1  C   UNL     1       5.148   4.116  18.751  0.00  0.00    +0.000 C 
ATOM      2  O   UNL     1       5.679   5.425  19.069  0.00  0.00    +0.000 OA
ATOM      3  C   UNL     1       5.989   6.084  17.816  0.00  0.00    +0.000 C 
ATOM      4  C   UNL     1       5.811   5.066  16.688  0.00  0.00    +0.000 C 
ATOM      5  C   UNL     1       4.762   4.141  17.271  0.00  0.00    +0.000 C 
ATOM      6  F   UNL     1       4.772   2.930  16.686  0.00  0.00    +0.000 F 
ATOM      7  F   UNL     1       3.531   4.685  17.076  0.00  0.00    +0.000 F 
ENDROOT
BRANCH   1  13
ATOM      8  O   UNL     1       1.213   2.718  22.303  0.00  0.00    +0.000 OA
ATOM      9  C   UNL     1       2.059   3.033  21.475  0.00  0.00    +0.000 A 
ATOM     10  N   UNL     1       3.159   2.257  21.215  0.00  0.00    +0.000 N 
ATOM     11  C   UNL     1       4.181   2.559  20.350  0.00  0.00    +0.000 A 
ATOM     12  O   UNL     1       5.129   1.791  20.214  0.00  0.00    +0.000 OA
ATOM     13  N   UNL     1       4.071   3.772  19.678  0.00  0.00    +0.000 N 
ATOM     14  C   UNL     1       2.957   4.583  19.834  0.00  0.00    +0.000 A 
ATOM     15  C   UNL     1       1.976   4.274  20.678  0.00  0.00    +0.000 A 
ATOM     16  F   UNL     1       0.897   5.056  20.852  0.00  0.00    +0.000 F 
ATOM     17  H   UNL     1       3.243   1.399  21.735  0.00  0.00    +0.000 HD
ENDBRANCH   1  13
BRANCH   4  18
ATOM     18  O   UNL     1       5.420   5.712  15.472  0.00  0.00    +0.000 OA
ATOM     19  H   UNL     1       4.676   6.312  15.675  0.00  0.00    +0.000 HD
ENDBRANCH   4  18
BRANCH   3  20
ATOM     20  C   UNL     1       7.417   6.620  17.894  0.00  0.00    +0.000 C 
BRANCH  20  21
ATOM     21  O   UNL     1       7.796   7.181  16.637  0.00  0.00    +0.000 OA
ATOM     22  H   UNL     1       7.795   8.149  16.753  0.00  0.00    +0.000 HD
ENDBRANCH  20  21
ENDBRANCH   3  20
TORSDOF 4
ENDMDL
MODEL 5
REMARK VINA RESULT:      -7.3      1.305      1.305
REMARK  Name = 
REMARK  4 active torsions:
REMARK  status: ('A' for Active; 'I' for Inactive)
REMARK    1  A    between atoms: N_6  and  C_7
REMARK    2  A    between atoms: C_9  and  C_10
REMARK    3  A    between atoms: C_10  and  O_11
REMARK    4  A    between atoms: C_12  and  O_13
REMARK                            x       y       z     vdW  Elec       q    Type
REMARK                         _______ _______ _______ _____ _____    ______ ____
ROOT
ATOM      1  C   UNL     1       3.025   4.866  18.364  0.00  0.00    +0.000 C 
ATOM      2  O   UNL     1       3.505   4.195  19.555  0.00  0.00    +0.000 OA
ATOM      3  C   UNL     1       2.458   3.299  20.000  0.00  0.00    +0.000 C 
ATOM      4  C   UNL     1       1.213   3.565  19.152  0.00  0.00    +0.000 C 
ATOM      5  C   UNL     1       1.823   4.067  17.859  0.00  0.00    +0.000 C 
ATOM      6  F   UNL     1       0.953   4.793  17.136  0.00  0.00    +0.000 F 
ATOM      7  F   UNL     1       2.202   3.002  17.103  0.00  0.00    +0.000 F 
ENDROOT
BRANCH   1  13
ATOM      8  O   UNL     1       7.147   5.653  14.836  0.00  0.00    +0.000 OA
ATOM      9  C   UNL     1       6.203   5.453  15.590  0.00  0.00    +0.000 A 
ATOM     10  N   UNL     1       5.520   6.473  16.202  0.00  0.00    +0.000 N 
ATOM     11  C   UNL     1       4.493   6.338  17.102  0.00  0.00    +0.000 A 
ATOM     12  O   UNL     1       3.969   7.330  17.602  0.00  0.00    +0.000 OA
ATOM     13  N   UNL     1       4.119   5.034  17.408  0.00  0.00    +0.000 N 
ATOM     14  C   UNL     1       4.712   3.949  16.781  0.00  0.00    +0.000 A 
ATOM     15  C   UNL     1       5.708   4.098  15.911  0.00  0.00    +0.000 A 
ATOM     16  F   UNL     1       6.304   3.057  15.307  0.00  0.00    +0.000 F 
ATOM     17  H   UNL     1       5.827   7.410  15.999  0.00  0.00    +0.000 HD
ENDBRANCH   1  13
BRANCH   4  18
ATOM     18  O   UNL     1       0.424   2.379  19.013  0.00  0.00    +0.000 OA
ATOM     19  H   UNL     1      -0.452   2.551  19.409  0.00  0.00    +0.000 HD
ENDBRANCH   4  18
BRANCH   3  20
ATOM     20  C   UNL     1       2.211   3.547  21.487  0.00  0.00    +0.000 C 
BRANCH  20  21
ATOM     21  O   UNL     1       1.418   2.493  22.032  0.00  0.00    +0.000 OA
ATOM     22  H   UNL     1       0.715   2.917  22.558  0.00  0.00    +0.000 HD
ENDBRANCH  20  21
ENDBRANCH   3  20
TORSDOF 4
ENDMDL
MODEL 6
REMARK VINA RESULT:      -7.2      2.270      5.605
REMARK  Name = 
REMARK  4 active torsions:
REMARK  status: ('A' for Active; 'I' for Inactive)
REMARK    1  A    between atoms: N_6  and  C_7
REMARK    2  A    between atoms: C_9  and  C_10
REMARK    3  A    between atoms: C_10  and  O_11
REMARK    4  A    between atoms: C_12  and  O_13
REMARK                            x       y       z     vdW  Elec       q    Type
REMARK                         _______ _______ _______ _____ _____    ______ ____
ROOT
ATOM      1  C   UNL     1       5.262   3.790  18.366  0.00  0.00    +0.000 C 
ATOM      2  O   UNL     1       5.806   4.753  19.302  0.00  0.00    +0.000 OA
ATOM      3  C   UNL     1       6.660   5.652  18.553  0.00  0.00    +0.000 C 
ATOM      4  C   UNL     1       6.791   5.107  17.130  0.00  0.00    +0.000 C 
ATOM      5  C   UNL     1       5.482   4.361  16.964  0.00  0.00    +0.000 C 
ATOM      6  F   UNL     1       5.550   3.425  16.001  0.00  0.00    +0.000 F 
ATOM      7  F   UNL     1       4.508   5.244  16.618  0.00  0.00    +0.000 F 
ENDROOT
BRANCH   1  13
ATOM      8  O   UNL     1       0.097   2.468  19.639  0.00  0.00    +0.000 OA
ATOM      9  C   UNL     1       1.234   2.802  19.333  0.00  0.00    +0.000 A 
ATOM     10  N   UNL     1       2.078   1.981  18.630  0.00  0.00    +0.000 N 
ATOM     11  C   UNL     1       3.381   2.250  18.294  0.00  0.00    +0.000 A 
ATOM     12  O   UNL     1       4.049   1.424  17.676  0.00  0.00    +0.000 OA
ATOM     13  N   UNL     1       3.876   3.481  18.712  0.00  0.00    +0.000 N 
ATOM     14  C   UNL     1       3.067   4.396  19.368  0.00  0.00    +0.000 A 
ATOM     15  C   UNL     1       1.805   4.118  19.686  0.00  0.00    +0.000 A 
ATOM     16  F   UNL     1       1.013   4.988  20.335  0.00  0.00    +0.000 F 
ATOM     17  H   UNL     1       1.718   1.078  18.365  0.00  0.00    +0.000 HD
ENDBRANCH   1  13
BRANCH   4  18
ATOM     18  O   UNL     1       6.990   6.168  16.191  0.00  0.00    +0.000 OA
ATOM     19  H   UNL     1       7.458   6.893  16.649  0.00  0.00    +0.000 HD
ENDBRANCH   4  18
BRANCH   3  20
ATOM     20  C   UNL     1       8.008   5.741  19.267  0.00  0.00    +0.000 C 
BRANCH  20  21
ATOM     21  O   UNL     1       7.852   5.405  20.645  0.00  0.00    +0.000 OA
ATOM     22  H   UNL     1       8.108   4.468  20.733  0.00  0.00    +0.000 HD
ENDBRANCH  20  21
ENDBRANCH   3  20
TORSDOF 4
ENDMDL
MODEL 7
REMARK VINA RESULT:      -7.2      1.772      2.014
REMARK  Name = 
REMARK  4 active torsions:
REMARK  status: ('A' for Active; 'I' for Inactive)
REMARK    1  A    between atoms: N_6  and  C_7
REMARK    2  A    between atoms: C_9  and  C_10
REMARK    3  A    between atoms: C_10  and  O_11
REMARK    4  A    between atoms: C_12  and  O_13
REMARK                            x       y       z     vdW  Elec       q    Type
REMARK                         _______ _______ _______ _____ _____    ______ ____
ROOT
ATOM      1  C   UNL     1       2.902   4.290  18.804  0.00  0.00    +0.000 C 
ATOM      2  O   UNL     1       3.104   3.433  19.954  0.00  0.00    +0.000 OA
ATOM      3  C   UNL     1       1.968   2.538  20.034  0.00  0.00    +0.000 C 
ATOM      4  C   UNL     1       0.937   2.987  18.997  0.00  0.00    +0.000 C 
ATOM      5  C   UNL     1       1.817   3.635  17.948  0.00  0.00    +0.000 C 
ATOM      6  F   UNL     1       1.135   4.502  17.178  0.00  0.00    +0.000 F 
ATOM      7  F   UNL     1       2.325   2.670  17.136  0.00  0.00    +0.000 F 
ENDROOT
BRANCH   1  13
ATOM      8  O   UNL     1       7.742   5.078  16.355  0.00  0.00    +0.000 OA
ATOM      9  C   UNL     1       6.657   4.950  16.906  0.00  0.00    +0.000 A 
ATOM     10  N   UNL     1       6.493   4.202  18.044  0.00  0.00    +0.000 N 
ATOM     11  C   UNL     1       5.309   3.957  18.693  0.00  0.00    +0.000 A 
ATOM     12  O   UNL     1       5.283   3.252  19.698  0.00  0.00    +0.000 OA
ATOM     13  N   UNL     1       4.176   4.536  18.130  0.00  0.00    +0.000 N 
ATOM     14  C   UNL     1       4.265   5.362  17.020  0.00  0.00    +0.000 A 
ATOM     15  C   UNL     1       5.422   5.587  16.403  0.00  0.00    +0.000 A 
ATOM     16  F   UNL     1       5.524   6.372  15.317  0.00  0.00    +0.000 F 
ATOM     17  H   UNL     1       7.316   3.759  18.419  0.00  0.00    +0.000 HD
ENDBRANCH   1  13
BRANCH   4  18
ATOM     18  O   UNL     1       0.170   1.876  18.522  0.00  0.00    +0.000 OA
ATOM     19  H   UNL     1       0.551   1.061  18.904  0.00  0.00    +0.000 HD
ENDBRANCH   4  18
BRANCH   3  20
ATOM     20  C   UNL     1       1.417   2.585  21.458  0.00  0.00    +0.000 C 
BRANCH  20  21
ATOM     21  O   UNL     1       2.396   3.135  22.341  0.00  0.00    +0.000 OA
ATOM     22  H   UNL     1       2.818   2.380  22.792  0.00  0.00    +0.000 HD
ENDBRANCH  20  21
ENDBRANCH   3  20
TORSDOF 4
ENDMDL
MODEL 8
REMARK VINA RESULT:      -7.1      2.398      5.594
REMARK  Name = 
REMARK  4 active torsions:
REMARK  status: ('A' for Active; 'I' for Inactive)
REMARK    1  A    between atoms: N_6  and  C_7
REMARK    2  A    between atoms: C_9  and  C_10
REMARK    3  A    between atoms: C_10  and  O_11
REMARK    4  A    between atoms: C_12  and  O_13
REMARK                            x       y       z     vdW  Elec       q    Type
REMARK                         _______ _______ _______ _____ _____    ______ ____
ROOT
ATOM      1  C   UNL     1       4.460   4.727  17.356  0.00  0.00    +0.000 C 
ATOM      2  O   UNL     1       5.251   3.757  16.628  0.00  0.00    +0.000 OA
ATOM      3  C   UNL     1       6.396   4.454  16.079  0.00  0.00    +0.000 C 
ATOM      4  C   UNL     1       6.204   5.951  16.327  0.00  0.00    +0.000 C 
ATOM      5  C   UNL     1       5.352   5.949  17.580  0.00  0.00    +0.000 C 
ATOM      6  F   UNL     1       4.672   7.098  17.734  0.00  0.00    +0.000 F 
ATOM      7  F   UNL     1       6.158   5.796  18.665  0.00  0.00    +0.000 F 
ENDROOT
BRANCH   1  13
ATOM      8  O   UNL     1       2.234   2.501  21.844  0.00  0.00    +0.000 OA
ATOM      9  C   UNL     1       2.769   3.010  20.868  0.00  0.00    +0.000 A 
ATOM     10  N   UNL     1       2.172   4.004  20.135  0.00  0.00    +0.000 N 
ATOM     11  C   UNL     1       2.672   4.589  18.999  0.00  0.00    +0.000 A 
ATOM     12  O   UNL     1       2.034   5.460  18.415  0.00  0.00    +0.000 OA
ATOM     13  N   UNL     1       3.906   4.119  18.565  0.00  0.00    +0.000 N 
ATOM     14  C   UNL     1       4.607   3.164  19.287  0.00  0.00    +0.000 A 
ATOM     15  C   UNL     1       4.107   2.607  20.386  0.00  0.00    +0.000 A 
ATOM     16  F   UNL     1       4.766   1.670  21.088  0.00  0.00    +0.000 F 
ATOM     17  H   UNL     1       1.262   4.309  20.441  0.00  0.00    +0.000 HD
ENDBRANCH   1  13
BRANCH   4  18
ATOM     18  O   UNL     1       7.464   6.614  16.469  0.00  0.00    +0.000 OA
ATOM     19  H   UNL     1       7.868   6.316  17.307  0.00  0.00    +0.000 HD
ENDBRANCH   4  18
BRANCH   3  20
ATOM     20  C   UNL     1       6.496   4.120  14.592  0.00  0.00    +0.000 C 
BRANCH  20  21
ATOM     21  O   UNL     1       7.211   5.149  13.908  0.00  0.00    +0.000 OA
ATOM     22  H   UNL     1       7.922   5.439  14.509  0.00  0.00    +0.000 HD
ENDBRANCH  20  21
ENDBRANCH   3  20
TORSDOF 4
ENDMDL
MODEL 9
REMARK VINA RESULT:      -7.1      2.081      2.427
REMARK  Name = 
REMARK  4 active torsions:
REMARK  status: ('A' for Active; 'I' for Inactive)
REMARK    1  A    between atoms: N_6  and  C_7
REMARK    2  A    between atoms: C_9  and  C_10
REMARK    3  A    between atoms: C_10  and  O_11
REMARK    4  A    between atoms: C_12  and  O_13
REMARK                            x       y       z     vdW  Elec       q    Type
REMARK                         _______ _______ _______ _____ _____    ______ ____
ROOT
ATOM      1  C   UNL     1       5.091   4.607  18.697  0.00  0.00    +0.000 C 
ATOM      2  O   UNL     1       4.971   3.199  19.013  0.00  0.00    +0.000 OA
ATOM      3  C   UNL     1       3.673   2.999  19.624  0.00  0.00    +0.000 C 
ATOM      4  C   UNL     1       3.043   4.372  19.860  0.00  0.00    +0.000 C 
ATOM      5  C   UNL     1       3.681   5.197  18.760  0.00  0.00    +0.000 C 
ATOM      6  F   UNL     1       3.654   6.513  19.031  0.00  0.00    +0.000 F 
ATOM      7  F   UNL     1       2.996   4.998  17.602  0.00  0.00    +0.000 F 
ENDROOT
BRANCH   1  13
ATOM      8  O   UNL     1       7.835   5.343  14.010  0.00  0.00    +0.000 OA
ATOM      9  C   UNL     1       7.182   5.183  15.032  0.00  0.00    +0.000 A 
ATOM     10  N   UNL     1       7.346   5.972  16.142  0.00  0.00    +0.000 N 
ATOM     11  C   UNL     1       6.701   5.829  17.344  0.00  0.00    +0.000 A 
ATOM     12  O   UNL     1       6.947   6.588  18.278  0.00  0.00    +0.000 OA
ATOM     13  N   UNL     1       5.792   4.780  17.425  0.00  0.00    +0.000 N 
ATOM     14  C   UNL     1       5.517   3.978  16.328  0.00  0.00    +0.000 A 
ATOM     15  C   UNL     1       6.154   4.131  15.169  0.00  0.00    +0.000 A 
ATOM     16  F   UNL     1       5.910   3.353  14.101  0.00  0.00    +0.000 F 
ATOM     17  H   UNL     1       8.034   6.705  16.080  0.00  0.00    +0.000 HD
ENDBRANCH   1  13
BRANCH   4  18
ATOM     18  O   UNL     1       1.616   4.300  19.794  0.00  0.00    +0.000 OA
ATOM     19  H   UNL     1       1.353   4.368  18.855  0.00  0.00    +0.000 HD
ENDBRANCH   4  18
BRANCH   3  20
ATOM     20  C   UNL     1       3.867   2.218  20.922  0.00  0.00    +0.000 C 
BRANCH  20  21
ATOM     21  O   UNL     1       2.854   2.576  21.862  0.00  0.00    +0.000 OA
ATOM     22  H   UNL     1       3.287   2.614  22.736  0.00  0.00    +0.000 HD
ENDBRANCH  20  21
ENDBRANCH   3  20
TORSDOF 4
ENDMDL
