MODEL 1
REMARK VINA RESULT:      -8.0      0.000      0.000
REMARK  Name = 
REMARK  12 active torsions:
REMARK  status: ('A' for Active; 'I' for Inactive)
REMARK    1  A    between atoms: C_1  and  C_2
REMARK    2  A    between atoms: C_2  and  C_3
REMARK    3  A    between atoms: C_2  and  C_4
REMARK    4  A    between atoms: C_4  and  N_5
REMARK    5  A    between atoms: N_5  and  C_6
REMARK    6  A    between atoms: N_5  and  S_10
REMARK    7  A    between atoms: C_6  and  C_7
REMARK    8  A    between atoms: C_7  and  C_8
REMARK    9  A    between atoms: C_7  and  C_9
REMARK   10  A    between atoms: S_10  and  C_13
REMARK   11  A    between atoms: C_16  and  C_17
REMARK   12  A    between atoms: C_22  and  C_23
REMARK                            x       y       z     vdW  Elec       q    Type
REMARK                         _______ _______ _______ _____ _____    ______ ____
ROOT
ATOM      1  C   UNL     1       3.561   5.045  18.902  0.00  0.00    +0.000 A 
ATOM      2  C   UNL     1       2.805   5.029  20.074  0.00  0.00    +0.000 A 
ATOM      3  C   UNL     1       2.080   6.171  20.441  0.00  0.00    +0.000 A 
ATOM      4  C   UNL     1       2.109   7.341  19.654  0.00  0.00    +0.000 A 
ATOM      5  C   UNL     1       2.880   7.341  18.485  0.00  0.00    +0.000 A 
ATOM      6  C   UNL     1       3.606   6.200  18.112  0.00  0.00    +0.000 A 
ENDROOT
BRANCH   4   7
ATOM      7  C   UNL     1       1.331   8.532  20.144  0.00  0.00    +0.000 C 
ATOM      8  O   UNL     1       1.305   8.728  21.356  0.00  0.00    +0.000 OA
ATOM      9  N   UNL     1       0.673   9.288  19.193  0.00  0.00    +0.000 N 
ATOM     10  C   UNL     1      -0.086  10.374  19.551  0.00  0.00    +0.000 A 
ATOM     11  N   UNL     1      -0.186  10.957  20.714  0.00  0.00    +0.000 NA
ATOM     12  C   UNL     1      -1.133  11.971  20.659  0.00  0.00    +0.000 A 
ATOM     13  C   UNL     1      -1.723  12.137  19.419  0.00  0.00    +0.000 A 
ATOM     14  S   UNL     1      -1.040  11.029  18.295  0.00  0.00    +0.000 S 
ATOM     15  H   UNL     1       0.625   9.026  18.224  0.00  0.00    +0.000 HD
BRANCH  12  16
ATOM     16  C   UNL     1      -1.459  12.768  21.839  0.00  0.00    +0.000 A 
ATOM     17  C   UNL     1      -0.592  13.778  22.253  0.00  0.00    +0.000 A 
ATOM     18  C   UNL     1      -0.911  14.520  23.386  0.00  0.00    +0.000 A 
ATOM     19  C   UNL     1      -2.081  14.232  24.076  0.00  0.00    +0.000 A 
ATOM     20  C   UNL     1      -2.890  13.213  23.597  0.00  0.00    +0.000 A 
ATOM     21  N   UNL     1      -2.612  12.477  22.497  0.00  0.00    +0.000 NA
ENDBRANCH  12  16
ENDBRANCH   4   7
BRANCH   1  22
ATOM     22  S   UNL     1       4.611   3.659  18.500  0.00  0.00    +0.000 S 
ATOM     23  O   UNL     1       3.766   2.673  17.850  0.00  0.00    +0.000 OA
ATOM     24  O   UNL     1       5.361   3.334  19.695  0.00  0.00    +0.000 OA
BRANCH  22  25
ATOM     25  N   UNL     1       5.718   4.265  17.344  0.00  0.00    +0.000 NA
BRANCH  25  26
ATOM     26  C   UNL     1       7.078   4.602  17.846  0.00  0.00    +0.000 C 
BRANCH  26  28
ATOM     27  C   UNL     1       8.075   5.849  19.844  0.00  0.00    +0.000 C 
ATOM     28  C   UNL     1       7.144   5.930  18.630  0.00  0.00    +0.000 C 
ATOM     29  C   UNL     1       7.597   7.059  17.696  0.00  0.00    +0.000 C 
ENDBRANCH  26  28
ENDBRANCH  25  26
BRANCH  25  30
ATOM     30  C   UNL     1       5.628   3.645  15.983  0.00  0.00    +0.000 C 
BRANCH  30  31
ATOM     31  C   UNL     1       5.333   4.568  14.779  0.00  0.00    +0.000 C 
ATOM     32  C   UNL     1       5.355   6.067  15.093  0.00  0.00    +0.000 C 
ATOM     33  C   UNL     1       6.388   4.275  13.697  0.00  0.00    +0.000 C 
ENDBRANCH  30  31
ENDBRANCH  25  30
ENDBRANCH  22  25
ENDBRANCH   1  22
TORSDOF 8
ENDMDL
MODEL 2
REMARK VINA RESULT:      -8.0      1.117      1.722
REMARK  Name = 
REMARK  12 active torsions:
REMARK  status: ('A' for Active; 'I' for Inactive)
REMARK    1  A    between atoms: C_1  and  C_2
REMARK    2  A    between atoms: C_2  and  C_3
REMARK    3  A    between atoms: C_2  and  C_4
REMARK    4  A    between atoms: C_4  and  N_5
REMARK    5  A    between atoms: N_5  and  C_6
REMARK    6  A    between atoms: N_5  and  S_10
REMARK    7  A    between atoms: C_6  and  C_7
REMARK    8  A    between atoms: C_7  and  C_8
REMARK    9  A    between atoms: C_7  and  C_9
REMARK   10  A    between atoms: S_10  and  C_13
REMARK   11  A    between atoms: C_16  and  C_17
REMARK   12  A    between atoms: C_22  and  C_23
REMARK                            x       y       z     vdW  Elec       q    Type
REMARK                         _______ _______ _______ _____ _____    ______ ____
ROOT
ATOM      1  C   UNL     1       3.547   5.582  18.633  0.00  0.00    +0.000 A 
ATOM      2  C   UNL     1       3.377   6.765  17.914  0.00  0.00    +0.000 A 
ATOM      3  C   UNL     1       2.580   7.787  18.449  0.00  0.00    +0.000 A 
ATOM      4  C   UNL     1       1.938   7.638  19.695  0.00  0.00    +0.000 A 
ATOM      5  C   UNL     1       2.114   6.440  20.399  0.00  0.00    +0.000 A 
ATOM      6  C   UNL     1       2.912   5.415  19.870  0.00  0.00    +0.000 A 
ENDROOT
BRANCH   4   7
ATOM      7  C   UNL     1       1.071   8.771  20.175  0.00  0.00    +0.000 C 
ATOM      8  O   UNL     1       0.263   8.523  21.067  0.00  0.00    +0.000 OA
ATOM      9  N   UNL     1       1.222   9.991  19.544  0.00  0.00    +0.000 N 
ATOM     10  C   UNL     1       0.451  11.071  19.894  0.00  0.00    +0.000 A 
ATOM     11  N   UNL     1      -0.366  11.202  20.903  0.00  0.00    +0.000 NA
ATOM     12  C   UNL     1      -1.010  12.430  20.837  0.00  0.00    +0.000 A 
ATOM     13  C   UNL     1      -0.638  13.216  19.761  0.00  0.00    +0.000 A 
ATOM     14  S   UNL     1       0.577  12.412  18.845  0.00  0.00    +0.000 S 
ATOM     15  H   UNL     1       1.811  10.120  18.741  0.00  0.00    +0.000 HD
BRANCH  12  16
ATOM     16  C   UNL     1      -2.003  12.820  21.836  0.00  0.00    +0.000 A 
ATOM     17  C   UNL     1      -2.311  11.951  22.880  0.00  0.00    +0.000 A 
ATOM     18  C   UNL     1      -3.268  12.332  23.816  0.00  0.00    +0.000 A 
ATOM     19  C   UNL     1      -3.892  13.565  23.682  0.00  0.00    +0.000 A 
ATOM     20  C   UNL     1      -3.526  14.372  22.616  0.00  0.00    +0.000 A 
ATOM     21  N   UNL     1      -2.597  14.034  21.693  0.00  0.00    +0.000 NA
ENDBRANCH  12  16
ENDBRANCH   4   7
BRANCH   1  22
ATOM     22  S   UNL     1       4.428   4.214  17.901  0.00  0.00    +0.000 S 
ATOM     23  O   UNL     1       3.482   3.522  17.044  0.00  0.00    +0.000 OA
ATOM     24  O   UNL     1       5.109   3.524  18.976  0.00  0.00    +0.000 OA
BRANCH  22  25
ATOM     25  N   UNL     1       5.622   4.936  16.912  0.00  0.00    +0.000 NA
BRANCH  25  26
ATOM     26  C   UNL     1       7.038   4.704  17.310  0.00  0.00    +0.000 C 
BRANCH  26  28
ATOM     27  C   UNL     1       7.047   7.250  17.543  0.00  0.00    +0.000 C 
ATOM     28  C   UNL     1       7.718   5.934  17.947  0.00  0.00    +0.000 C 
ATOM     29  C   UNL     1       7.717   5.791  19.474  0.00  0.00    +0.000 C 
ENDBRANCH  26  28
ENDBRANCH  25  26
BRANCH  25  30
ATOM     30  C   UNL     1       5.319   4.946  15.444  0.00  0.00    +0.000 C 
BRANCH  30  31
ATOM     31  C   UNL     1       6.279   4.190  14.497  0.00  0.00    +0.000 C 
ATOM     32  C   UNL     1       5.612   3.557  13.271  0.00  0.00    +0.000 C 
ATOM     33  C   UNL     1       7.345   5.191  14.017  0.00  0.00    +0.000 C 
ENDBRANCH  30  31
ENDBRANCH  25  30
ENDBRANCH  22  25
ENDBRANCH   1  22
TORSDOF 8
ENDMDL
MODEL 3
REMARK VINA RESULT:      -7.8      1.178      1.694
REMARK  Name = 
REMARK  12 active torsions:
REMARK  status: ('A' for Active; 'I' for Inactive)
REMARK    1  A    between atoms: C_1  and  C_2
REMARK    2  A    between atoms: C_2  and  C_3
REMARK    3  A    between atoms: C_2  and  C_4
REMARK    4  A    between atoms: C_4  and  N_5
REMARK    5  A    between atoms: N_5  and  C_6
REMARK    6  A    between atoms: N_5  and  S_10
REMARK    7  A    between atoms: C_6  and  C_7
REMARK    8  A    between atoms: C_7  and  C_8
REMARK    9  A    between atoms: C_7  and  C_9
REMARK   10  A    between atoms: S_10  and  C_13
REMARK   11  A    between atoms: C_16  and  C_17
REMARK   12  A    between atoms: C_22  and  C_23
REMARK                            x       y       z     vdW  Elec       q    Type
REMARK                         _______ _______ _______ _____ _____    ______ ____
ROOT
ATOM      1  C   UNL     1       2.761   5.774  19.001  0.00  0.00    +0.000 A 
ATOM      2  C   UNL     1       2.122   5.754  20.241  0.00  0.00    +0.000 A 
ATOM      3  C   UNL     1       1.505   6.920  20.716  0.00  0.00    +0.000 A 
ATOM      4  C   UNL     1       1.525   8.116  19.969  0.00  0.00    +0.000 A 
ATOM      5  C   UNL     1       2.179   8.119  18.730  0.00  0.00    +0.000 A 
ATOM      6  C   UNL     1       2.796   6.955  18.249  0.00  0.00    +0.000 A 
ENDROOT
BRANCH   4   7
ATOM      7  C   UNL     1       0.871   9.328  20.573  0.00  0.00    +0.000 C 
ATOM      8  O   UNL     1       0.534   9.258  21.752  0.00  0.00    +0.000 OA
ATOM      9  N   UNL     1       0.660  10.411  19.740  0.00  0.00    +0.000 N 
ATOM     10  C   UNL     1       0.041  11.547  20.196  0.00  0.00    +0.000 A 
ATOM     11  N   UNL     1      -0.280  11.872  21.418  0.00  0.00    +0.000 NA
ATOM     12  C   UNL     1      -0.970  13.076  21.426  0.00  0.00    +0.000 A 
ATOM     13  C   UNL     1      -1.141  13.647  20.177  0.00  0.00    +0.000 A 
ATOM     14  S   UNL     1      -0.378  12.673  18.982  0.00  0.00    +0.000 S 
ATOM     15  H   UNL     1       0.844  10.383  18.752  0.00  0.00    +0.000 HD
BRANCH  12  16
ATOM     16  C   UNL     1      -1.470  13.656  22.670  0.00  0.00    +0.000 A 
ATOM     17  C   UNL     1      -2.768  13.373  23.093  0.00  0.00    +0.000 A 
ATOM     18  C   UNL     1      -3.233  13.943  24.274  0.00  0.00    +0.000 A 
ATOM     19  C   UNL     1      -2.394  14.781  24.997  0.00  0.00    +0.000 A 
ATOM     20  C   UNL     1      -1.117  15.009  24.509  0.00  0.00    +0.000 A 
ATOM     21  N   UNL     1      -0.633  14.467  23.369  0.00  0.00    +0.000 NA
ENDBRANCH  12  16
ENDBRANCH   4   7
BRANCH   1  22
ATOM     22  S   UNL     1       3.684   4.349  18.450  0.00  0.00    +0.000 S 
ATOM     23  O   UNL     1       3.017   3.858  17.258  0.00  0.00    +0.000 OA
ATOM     24  O   UNL     1       3.879   3.498  19.605  0.00  0.00    +0.000 OA
BRANCH  22  25
ATOM     25  N   UNL     1       5.215   4.964  17.997  0.00  0.00    +0.000 NA
BRANCH  25  26
ATOM     26  C   UNL     1       6.053   5.523  19.093  0.00  0.00    +0.000 C 
BRANCH  26  28
ATOM     27  C   UNL     1       7.743   7.164  18.100  0.00  0.00    +0.000 C 
ATOM     28  C   UNL     1       7.522   5.769  18.693  0.00  0.00    +0.000 C 
ATOM     29  C   UNL     1       8.431   5.566  19.912  0.00  0.00    +0.000 C 
ENDBRANCH  26  28
ENDBRANCH  25  26
BRANCH  25  30
ATOM     30  C   UNL     1       5.922   4.194  16.923  0.00  0.00    +0.000 C 
BRANCH  30  31
ATOM     31  C   UNL     1       6.187   4.900  15.574  0.00  0.00    +0.000 C 
ATOM     32  C   UNL     1       5.961   4.031  14.333  0.00  0.00    +0.000 C 
ATOM     33  C   UNL     1       5.255   6.123  15.497  0.00  0.00    +0.000 C 
ENDBRANCH  30  31
ENDBRANCH  25  30
ENDBRANCH  22  25
ENDBRANCH   1  22
TORSDOF 8
ENDMDL
MODEL 4
REMARK VINA RESULT:      -7.7      1.850      2.348
REMARK  Name = 
REMARK  12 active torsions:
REMARK  status: ('A' for Active; 'I' for Inactive)
REMARK    1  A    between atoms: C_1  and  C_2
REMARK    2  A    between atoms: C_2  and  C_3
REMARK    3  A    between atoms: C_2  and  C_4
REMARK    4  A    between atoms: C_4  and  N_5
REMARK    5  A    between atoms: N_5  and  C_6
REMARK    6  A    between atoms: N_5  and  S_10
REMARK    7  A    between atoms: C_6  and  C_7
REMARK    8  A    between atoms: C_7  and  C_8
REMARK    9  A    between atoms: C_7  and  C_9
REMARK   10  A    between atoms: S_10  and  C_13
REMARK   11  A    between atoms: C_16  and  C_17
REMARK   12  A    between atoms: C_22  and  C_23
REMARK                            x       y       z     vdW  Elec       q    Type
REMARK                         _______ _______ _______ _____ _____    ______ ____
ROOT
ATOM      1  C   UNL     1       3.556   5.578  18.301  0.00  0.00    +0.000 A 
ATOM      2  C   UNL     1       3.645   6.666  17.432  0.00  0.00    +0.000 A 
ATOM      3  C   UNL     1       3.024   7.875  17.776  0.00  0.00    +0.000 A 
ATOM      4  C   UNL     1       2.301   8.010  18.979  0.00  0.00    +0.000 A 
ATOM      5  C   UNL     1       2.215   6.905  19.835  0.00  0.00    +0.000 A 
ATOM      6  C   UNL     1       2.837   5.693  19.497  0.00  0.00    +0.000 A 
ENDROOT
BRANCH   4   7
ATOM      7  C   UNL     1       1.635   9.331  19.250  0.00  0.00    +0.000 C 
ATOM      8  O   UNL     1       1.893  10.259  18.488  0.00  0.00    +0.000 OA
ATOM      9  N   UNL     1       0.817   9.408  20.361  0.00  0.00    +0.000 N 
ATOM     10  C   UNL     1       0.193  10.581  20.704  0.00  0.00    +0.000 A 
ATOM     11  N   UNL     1       0.110  11.694  20.026  0.00  0.00    +0.000 NA
ATOM     12  C   UNL     1      -0.540  12.663  20.779  0.00  0.00    +0.000 A 
ATOM     13  C   UNL     1      -0.953  12.236  22.028  0.00  0.00    +0.000 A 
ATOM     14  S   UNL     1      -0.557  10.575  22.238  0.00  0.00    +0.000 S 
ATOM     15  H   UNL     1       0.725   8.658  21.024  0.00  0.00    +0.000 HD
BRANCH  12  16
ATOM     16  C   UNL     1      -0.743  14.014  20.262  0.00  0.00    +0.000 A 
ATOM     17  C   UNL     1       0.007  14.458  19.175  0.00  0.00    +0.000 A 
ATOM     18  C   UNL     1      -0.189  15.753  18.703  0.00  0.00    +0.000 A 
ATOM     19  C   UNL     1      -1.122  16.567  19.331  0.00  0.00    +0.000 A 
ATOM     20  C   UNL     1      -1.828  16.048  20.404  0.00  0.00    +0.000 A 
ATOM     21  N   UNL     1      -1.666  14.794  20.884  0.00  0.00    +0.000 NA
ENDBRANCH  12  16
ENDBRANCH   4   7
BRANCH   1  22
ATOM     22  S   UNL     1       4.206   3.990  17.810  0.00  0.00    +0.000 S 
ATOM     23  O   UNL     1       3.232   3.405  16.906  0.00  0.00    +0.000 OA
ATOM     24  O   UNL     1       4.613   3.307  19.020  0.00  0.00    +0.000 OA
BRANCH  22  25
ATOM     25  N   UNL     1       5.621   4.349  16.918  0.00  0.00    +0.000 NA
BRANCH  25  26
ATOM     26  C   UNL     1       6.874   4.511  17.705  0.00  0.00    +0.000 C 
BRANCH  26  28
ATOM     27  C   UNL     1       8.007   5.856  19.561  0.00  0.00    +0.000 C 
ATOM     28  C   UNL     1       6.997   5.878  18.411  0.00  0.00    +0.000 C 
ATOM     29  C   UNL     1       7.388   6.953  17.389  0.00  0.00    +0.000 C 
ENDBRANCH  26  28
ENDBRANCH  25  26
BRANCH  25  30
ATOM     30  C   UNL     1       5.733   3.663  15.591  0.00  0.00    +0.000 C 
BRANCH  30  31
ATOM     31  C   UNL     1       5.895   4.539  14.328  0.00  0.00    +0.000 C 
ATOM     32  C   UNL     1       7.299   5.114  14.115  0.00  0.00    +0.000 C 
ATOM     33  C   UNL     1       5.525   3.674  13.110  0.00  0.00    +0.000 C 
ENDBRANCH  30  31
ENDBRANCH  25  30
ENDBRANCH  22  25
ENDBRANCH   1  22
TORSDOF 8
ENDMDL
MODEL 5
REMARK VINA RESULT:      -7.7      6.111      8.929
REMARK  Name = 
REMARK  12 active torsions:
REMARK  status: ('A' for Active; 'I' for Inactive)
REMARK    1  A    between atoms: C_1  and  C_2
REMARK    2  A    between atoms: C_2  and  C_3
REMARK    3  A    between atoms: C_2  and  C_4
REMARK    4  A    between atoms: C_4  and  N_5
REMARK    5  A    between atoms: N_5  and  C_6
REMARK    6  A    between atoms: N_5  and  S_10
REMARK    7  A    between atoms: C_6  and  C_7
REMARK    8  A    between atoms: C_7  and  C_8
REMARK    9  A    between atoms: C_7  and  C_9
REMARK   10  A    between atoms: S_10  and  C_13
REMARK   11  A    between atoms: C_16  and  C_17
REMARK   12  A    between atoms: C_22  and  C_23
REMARK                            x       y       z     vdW  Elec       q    Type
REMARK                         _______ _______ _______ _____ _____    ______ ____
ROOT
ATOM      1  C   UNL     1       6.864   6.328  17.897  0.00  0.00    +0.000 A 
ATOM      2  C   UNL     1       6.386   7.374  17.108  0.00  0.00    +0.000 A 
ATOM      3  C   UNL     1       7.002   8.631  17.183  0.00  0.00    +0.000 A 
ATOM      4  C   UNL     1       8.090   8.862  18.050  0.00  0.00    +0.000 A 
ATOM      5  C   UNL     1       8.551   7.803  18.841  0.00  0.00    +0.000 A 
ATOM      6  C   UNL     1       7.940   6.542  18.768  0.00  0.00    +0.000 A 
ENDROOT
BRANCH   4   7
ATOM      7  C   UNL     1       8.665  10.252  18.095  0.00  0.00    +0.000 C 
ATOM      8  O   UNL     1       8.084  11.123  17.452  0.00  0.00    +0.000 OA
ATOM      9  N   UNL     1       9.827  10.429  18.821  0.00  0.00    +0.000 N 
ATOM     10  C   UNL     1      10.440  11.655  18.891  0.00  0.00    +0.000 A 
ATOM     11  N   UNL     1      10.004  12.814  18.481  0.00  0.00    +0.000 NA
ATOM     12  C   UNL     1      10.979  13.784  18.670  0.00  0.00    +0.000 A 
ATOM     13  C   UNL     1      12.147  13.318  19.246  0.00  0.00    +0.000 A 
ATOM     14  S   UNL     1      11.994  11.641  19.599  0.00  0.00    +0.000 S 
ATOM     15  H   UNL     1      10.334   9.666  19.235  0.00  0.00    +0.000 HD
BRANCH  12  16
ATOM     16  C   UNL     1      10.757  15.171  18.268  0.00  0.00    +0.000 A 
ATOM     17  C   UNL     1      11.822  15.932  17.790  0.00  0.00    +0.000 A 
ATOM     18  C   UNL     1      11.596  17.256  17.424  0.00  0.00    +0.000 A 
ATOM     19  C   UNL     1      10.318  17.783  17.549  0.00  0.00    +0.000 A 
ATOM     20  C   UNL     1       9.313  16.959  18.031  0.00  0.00    +0.000 A 
ATOM     21  N   UNL     1       9.498  15.668  18.390  0.00  0.00    +0.000 NA
ENDBRANCH  12  16
ENDBRANCH   4   7
BRANCH   1  22
ATOM     22  S   UNL     1       5.999   4.768  17.930  0.00  0.00    +0.000 S 
ATOM     23  O   UNL     1       6.274   4.168  19.223  0.00  0.00    +0.000 OA
ATOM     24  O   UNL     1       6.320   4.078  16.699  0.00  0.00    +0.000 OA
BRANCH  22  25
ATOM     25  N   UNL     1       4.340   5.183  17.871  0.00  0.00    +0.000 NA
BRANCH  25  26
ATOM     26  C   UNL     1       3.421   4.154  17.312  0.00  0.00    +0.000 C 
BRANCH  26  28
ATOM     27  C   UNL     1       1.343   3.141  18.405  0.00  0.00    +0.000 C 
ATOM     28  C   UNL     1       2.874   3.167  18.364  0.00  0.00    +0.000 C 
ATOM     29  C   UNL     1       3.415   1.760  18.083  0.00  0.00    +0.000 C 
ENDBRANCH  26  28
ENDBRANCH  25  26
BRANCH  25  30
ATOM     30  C   UNL     1       3.838   5.986  19.033  0.00  0.00    +0.000 C 
BRANCH  30  31
ATOM     31  C   UNL     1       2.544   6.811  18.845  0.00  0.00    +0.000 C 
ATOM     32  C   UNL     1       1.970   7.415  20.130  0.00  0.00    +0.000 C 
ATOM     33  C   UNL     1       2.857   7.951  17.859  0.00  0.00    +0.000 C 
ENDBRANCH  30  31
ENDBRANCH  25  30
ENDBRANCH  22  25
ENDBRANCH   1  22
TORSDOF 8
ENDMDL
MODEL 6
REMARK VINA RESULT:      -7.7      0.912      1.560
REMARK  Name = 
REMARK  12 active torsions:
REMARK  status: ('A' for Active; 'I' for Inactive)
REMARK    1  A    between atoms: C_1  and  C_2
REMARK    2  A    between atoms: C_2  and  C_3
REMARK    3  A    between atoms: C_2  and  C_4
REMARK    4  A    between atoms: C_4  and  N_5
REMARK    5  A    between atoms: N_5  and  C_6
REMARK    6  A    between atoms: N_5  and  S_10
REMARK    7  A    between atoms: C_6  and  C_7
REMARK    8  A    between atoms: C_7  and  C_8
REMARK    9  A    between atoms: C_7  and  C_9
REMARK   10  A    between atoms: S_10  and  C_13
REMARK   11  A    between atoms: C_16  and  C_17
REMARK   12  A    between atoms: C_22  and  C_23
REMARK                            x       y       z     vdW  Elec       q    Type
REMARK                         _______ _______ _______ _____ _____    ______ ____
ROOT
ATOM      1  C   UNL     1       3.280   5.094  18.821  0.00  0.00    +0.000 A 
ATOM      2  C   UNL     1       3.219   6.291  18.107  0.00  0.00    +0.000 A 
ATOM      3  C   UNL     1       2.568   7.396  18.671  0.00  0.00    +0.000 A 
ATOM      4  C   UNL     1       1.963   7.320  19.942  0.00  0.00    +0.000 A 
ATOM      5  C   UNL     1       2.026   6.108  20.640  0.00  0.00    +0.000 A 
ATOM      6  C   UNL     1       2.678   4.998  20.082  0.00  0.00    +0.000 A 
ENDROOT
BRANCH   4   7
ATOM      7  C   UNL     1       1.253   8.544  20.453  0.00  0.00    +0.000 C 
ATOM      8  O   UNL     1       0.596   8.424  21.485  0.00  0.00    +0.000 OA
ATOM      9  N   UNL     1       1.360   9.696  19.698  0.00  0.00    +0.000 N 
ATOM     10  C   UNL     1       0.720  10.851  20.071  0.00  0.00    +0.000 A 
ATOM     11  N   UNL     1       0.094  11.119  21.185  0.00  0.00    +0.000 NA
ATOM     12  C   UNL     1      -0.484  12.379  21.115  0.00  0.00    +0.000 A 
ATOM     13  C   UNL     1      -0.259  13.048  19.925  0.00  0.00    +0.000 A 
ATOM     14  S   UNL     1       0.738  12.092  18.899  0.00  0.00    +0.000 S 
ATOM     15  H   UNL     1       1.811   9.720  18.801  0.00  0.00    +0.000 HD
BRANCH  12  16
ATOM     16  C   UNL     1      -1.270  12.915  22.224  0.00  0.00    +0.000 A 
ATOM     17  C   UNL     1      -2.497  12.338  22.544  0.00  0.00    +0.000 A 
ATOM     18  C   UNL     1      -3.240  12.869  23.595  0.00  0.00    +0.000 A 
ATOM     19  C   UNL     1      -2.740  13.960  24.293  0.00  0.00    +0.000 A 
ATOM     20  C   UNL     1      -1.509  14.473  23.913  0.00  0.00    +0.000 A 
ATOM     21  N   UNL     1      -0.761  13.978  22.900  0.00  0.00    +0.000 NA
ENDBRANCH  12  16
ENDBRANCH   4   7
BRANCH   1  22
ATOM     22  S   UNL     1       3.966   3.634  18.057  0.00  0.00    +0.000 S 
ATOM     23  O   UNL     1       3.023   3.218  17.034  0.00  0.00    +0.000 OA
ATOM     24  O   UNL     1       4.356   2.740  19.127  0.00  0.00    +0.000 OA
BRANCH  22  25
ATOM     25  N   UNL     1       5.395   4.171  17.286  0.00  0.00    +0.000 NA
BRANCH  25  26
ATOM     26  C   UNL     1       6.596   4.325  18.152  0.00  0.00    +0.000 C 
BRANCH  26  28
ATOM     27  C   UNL     1       7.838   5.831  19.803  0.00  0.00    +0.000 C 
ATOM     28  C   UNL     1       6.817   5.764  18.664  0.00  0.00    +0.000 C 
ATOM     29  C   UNL     1       7.266   6.661  17.503  0.00  0.00    +0.000 C 
ENDBRANCH  26  28
ENDBRANCH  25  26
BRANCH  25  30
ATOM     30  C   UNL     1       5.617   3.637  15.903  0.00  0.00    +0.000 C 
BRANCH  30  31
ATOM     31  C   UNL     1       6.126   4.613  14.817  0.00  0.00    +0.000 C 
ATOM     32  C   UNL     1       6.103   4.060  13.389  0.00  0.00    +0.000 C 
ATOM     33  C   UNL     1       5.246   5.874  14.874  0.00  0.00    +0.000 C 
ENDBRANCH  30  31
ENDBRANCH  25  30
ENDBRANCH  22  25
ENDBRANCH   1  22
TORSDOF 8
ENDMDL
MODEL 7
REMARK VINA RESULT:      -7.6      1.484      1.722
REMARK  Name = 
REMARK  12 active torsions:
REMARK  status: ('A' for Active; 'I' for Inactive)
REMARK    1  A    between atoms: C_1  and  C_2
REMARK    2  A    between atoms: C_2  and  C_3
REMARK    3  A    between atoms: C_2  and  C_4
REMARK    4  A    between atoms: C_4  and  N_5
REMARK    5  A    between atoms: N_5  and  C_6
REMARK    6  A    between atoms: N_5  and  S_10
REMARK    7  A    between atoms: C_6  and  C_7
REMARK    8  A    between atoms: C_7  and  C_8
REMARK    9  A    between atoms: C_7  and  C_9
REMARK   10  A    between atoms: S_10  and  C_13
REMARK   11  A    between atoms: C_16  and  C_17
REMARK   12  A    between atoms: C_22  and  C_23
REMARK                            x       y       z     vdW  Elec       q    Type
REMARK                         _______ _______ _______ _____ _____    ______ ____
ROOT
ATOM      1  C   UNL     1       3.492   5.114  18.651  0.00  0.00    +0.000 A 
ATOM      2  C   UNL     1       2.896   5.224  19.907  0.00  0.00    +0.000 A 
ATOM      3  C   UNL     1       2.253   6.419  20.261  0.00  0.00    +0.000 A 
ATOM      4  C   UNL     1       2.207   7.516  19.377  0.00  0.00    +0.000 A 
ATOM      5  C   UNL     1       2.819   7.390  18.123  0.00  0.00    +0.000 A 
ATOM      6  C   UNL     1       3.461   6.196  17.762  0.00  0.00    +0.000 A 
ENDROOT
BRANCH   4   7
ATOM      7  C   UNL     1       1.530   8.772  19.854  0.00  0.00    +0.000 C 
ATOM      8  O   UNL     1       1.749   9.804  19.226  0.00  0.00    +0.000 OA
ATOM      9  N   UNL     1       0.748   8.673  20.990  0.00  0.00    +0.000 N 
ATOM     10  C   UNL     1       0.119   9.773  21.516  0.00  0.00    +0.000 A 
ATOM     11  N   UNL     1      -0.003  10.969  21.008  0.00  0.00    +0.000 NA
ATOM     12  C   UNL     1      -0.643  11.807  21.910  0.00  0.00    +0.000 A 
ATOM     13  C   UNL     1      -1.008  11.199  23.098  0.00  0.00    +0.000 A 
ATOM     14  S   UNL     1      -0.580   9.533  23.055  0.00  0.00    +0.000 S 
ATOM     15  H   UNL     1       0.690   7.835  21.541  0.00  0.00    +0.000 HD
BRANCH  12  16
ATOM     16  C   UNL     1      -0.883  13.214  21.600  0.00  0.00    +0.000 A 
ATOM     17  C   UNL     1      -0.430  14.202  22.472  0.00  0.00    +0.000 A 
ATOM     18  C   UNL     1      -0.678  15.538  22.168  0.00  0.00    +0.000 A 
ATOM     19  C   UNL     1      -1.373  15.849  21.007  0.00  0.00    +0.000 A 
ATOM     20  C   UNL     1      -1.787  14.807  20.192  0.00  0.00    +0.000 A 
ATOM     21  N   UNL     1      -1.558  13.501  20.456  0.00  0.00    +0.000 NA
ENDBRANCH  12  16
ENDBRANCH   4   7
BRANCH   1  22
ATOM     22  S   UNL     1       4.446   3.663  18.242  0.00  0.00    +0.000 S 
ATOM     23  O   UNL     1       3.566   2.786  17.489  0.00  0.00    +0.000 OA
ATOM     24  O   UNL     1       5.085   3.217  19.462  0.00  0.00    +0.000 OA
BRANCH  22  25
ATOM     25  N   UNL     1       5.674   4.224  17.191  0.00  0.00    +0.000 NA
BRANCH  25  26
ATOM     26  C   UNL     1       6.991   4.526  17.816  0.00  0.00    +0.000 C 
BRANCH  26  28
ATOM     27  C   UNL     1       7.989   5.862  19.754  0.00  0.00    +0.000 C 
ATOM     28  C   UNL     1       7.036   5.880  18.555  0.00  0.00    +0.000 C 
ATOM     29  C   UNL     1       7.442   6.989  17.577  0.00  0.00    +0.000 C 
ENDBRANCH  26  28
ENDBRANCH  25  26
BRANCH  25  30
ATOM     30  C   UNL     1       5.693   3.592  15.832  0.00  0.00    +0.000 C 
BRANCH  30  31
ATOM     31  C   UNL     1       5.397   4.487  14.607  0.00  0.00    +0.000 C 
ATOM     32  C   UNL     1       5.417   5.994  14.887  0.00  0.00    +0.000 C 
ATOM     33  C   UNL     1       6.453   4.171  13.532  0.00  0.00    +0.000 C 
ENDBRANCH  30  31
ENDBRANCH  25  30
ENDBRANCH  22  25
ENDBRANCH   1  22
TORSDOF 8
ENDMDL
MODEL 8
REMARK VINA RESULT:      -7.6      2.422      3.011
REMARK  Name = 
REMARK  12 active torsions:
REMARK  status: ('A' for Active; 'I' for Inactive)
REMARK    1  A    between atoms: C_1  and  C_2
REMARK    2  A    between atoms: C_2  and  C_3
REMARK    3  A    between atoms: C_2  and  C_4
REMARK    4  A    between atoms: C_4  and  N_5
REMARK    5  A    between atoms: N_5  and  C_6
REMARK    6  A    between atoms: N_5  and  S_10
REMARK    7  A    between atoms: C_6  and  C_7
REMARK    8  A    between atoms: C_7  and  C_8
REMARK    9  A    between atoms: C_7  and  C_9
REMARK   10  A    between atoms: S_10  and  C_13
REMARK   11  A    between atoms: C_16  and  C_17
REMARK   12  A    between atoms: C_22  and  C_23
REMARK                            x       y       z     vdW  Elec       q    Type
REMARK                         _______ _______ _______ _____ _____    ______ ____
ROOT
ATOM      1  C   UNL     1       2.692   6.606  18.888  0.00  0.00    +0.000 A 
ATOM      2  C   UNL     1       2.696   7.543  17.854  0.00  0.00    +0.000 A 
ATOM      3  C   UNL     1       2.133   8.809  18.071  0.00  0.00    +0.000 A 
ATOM      4  C   UNL     1       1.553   9.150  19.309  0.00  0.00    +0.000 A 
ATOM      5  C   UNL     1       1.550   8.194  20.333  0.00  0.00    +0.000 A 
ATOM      6  C   UNL     1       2.114   6.926  20.122  0.00  0.00    +0.000 A 
ENDROOT
BRANCH   4   7
ATOM      7  C   UNL     1       0.938  10.517  19.441  0.00  0.00    +0.000 C 
ATOM      8  O   UNL     1       1.263  11.363  18.611  0.00  0.00    +0.000 OA
ATOM      9  N   UNL     1       0.089  10.726  20.511  0.00  0.00    +0.000 N 
ATOM     10  C   UNL     1      -0.492  11.950  20.728  0.00  0.00    +0.000 A 
ATOM     11  N   UNL     1      -0.503  13.001  19.955  0.00  0.00    +0.000 NA
ATOM     12  C   UNL     1      -1.133  14.059  20.596  0.00  0.00    +0.000 A 
ATOM     13  C   UNL     1      -1.605  13.761  21.862  0.00  0.00    +0.000 A 
ATOM     14  S   UNL     1      -1.291  12.110  22.229  0.00  0.00    +0.000 S 
ATOM     15  H   UNL     1      -0.058  10.042  21.232  0.00  0.00    +0.000 HD
BRANCH  12  16
ATOM     16  C   UNL     1      -1.258  15.367  19.959  0.00  0.00    +0.000 A 
ATOM     17  C   UNL     1      -0.422  15.699  18.894  0.00  0.00    +0.000 A 
ATOM     18  C   UNL     1      -0.545  16.955  18.305  0.00  0.00    +0.000 A 
ATOM     19  C   UNL     1      -1.493  17.842  18.797  0.00  0.00    +0.000 A 
ATOM     20  C   UNL     1      -2.286  17.433  19.857  0.00  0.00    +0.000 A 
ATOM     21  N   UNL     1      -2.196  16.219  20.448  0.00  0.00    +0.000 NA
ENDBRANCH  12  16
ENDBRANCH   4   7
BRANCH   1  22
ATOM     22  S   UNL     1       3.262   4.943  18.584  0.00  0.00    +0.000 S 
ATOM     23  O   UNL     1       2.476   4.431  17.475  0.00  0.00    +0.000 OA
ATOM     24  O   UNL     1       3.287   4.264  19.863  0.00  0.00    +0.000 OA
BRANCH  22  25
ATOM     25  N   UNL     1       4.881   5.120  18.062  0.00  0.00    +0.000 NA
BRANCH  25  26
ATOM     26  C   UNL     1       5.884   5.439  19.114  0.00  0.00    +0.000 C 
BRANCH  26  28
ATOM     27  C   UNL     1       7.467   7.033  17.894  0.00  0.00    +0.000 C 
ATOM     28  C   UNL     1       7.309   5.668  18.570  0.00  0.00    +0.000 C 
ATOM     29  C   UNL     1       8.326   5.528  19.710  0.00  0.00    +0.000 C 
ENDBRANCH  26  28
ENDBRANCH  25  26
BRANCH  25  30
ATOM     30  C   UNL     1       5.310   4.182  16.974  0.00  0.00    +0.000 C 
BRANCH  30  31
ATOM     31  C   UNL     1       5.397   4.730  15.531  0.00  0.00    +0.000 C 
ATOM     32  C   UNL     1       5.115   6.229  15.390  0.00  0.00    +0.000 C 
ATOM     33  C   UNL     1       6.815   4.442  15.008  0.00  0.00    +0.000 C 
ENDBRANCH  30  31
ENDBRANCH  25  30
ENDBRANCH  22  25
ENDBRANCH   1  22
TORSDOF 8
ENDMDL
MODEL 9
REMARK VINA RESULT:      -7.6      1.645      2.535
REMARK  Name = 
REMARK  12 active torsions:
REMARK  status: ('A' for Active; 'I' for Inactive)
REMARK    1  A    between atoms: C_1  and  C_2
REMARK    2  A    between atoms: C_2  and  C_3
REMARK    3  A    between atoms: C_2  and  C_4
REMARK    4  A    between atoms: C_4  and  N_5
REMARK    5  A    between atoms: N_5  and  C_6
REMARK    6  A    between atoms: N_5  and  S_10
REMARK    7  A    between atoms: C_6  and  C_7
REMARK    8  A    between atoms: C_7  and  C_8
REMARK    9  A    between atoms: C_7  and  C_9
REMARK   10  A    between atoms: S_10  and  C_13
REMARK   11  A    between atoms: C_16  and  C_17
REMARK   12  A    between atoms: C_22  and  C_23
REMARK                            x       y       z     vdW  Elec       q    Type
REMARK                         _______ _______ _______ _____ _____    ______ ____
ROOT
ATOM      1  C   UNL     1       3.956   5.858  18.764  0.00  0.00    +0.000 A 
ATOM      2  C   UNL     1       3.174   5.799  19.917  0.00  0.00    +0.000 A 
ATOM      3  C   UNL     1       2.230   6.806  20.162  0.00  0.00    +0.000 A 
ATOM      4  C   UNL     1       2.064   7.886  19.270  0.00  0.00    +0.000 A 
ATOM      5  C   UNL     1       2.864   7.933  18.121  0.00  0.00    +0.000 A 
ATOM      6  C   UNL     1       3.808   6.926  17.870  0.00  0.00    +0.000 A 
ENDROOT
BRANCH   4   7
ATOM      7  C   UNL     1       1.055   8.942  19.631  0.00  0.00    +0.000 C 
ATOM      8  O   UNL     1       0.967   9.255  20.816  0.00  0.00    +0.000 OA
ATOM      9  N   UNL     1       0.276   9.445  18.607  0.00  0.00    +0.000 N 
ATOM     10  C   UNL     1      -0.692  10.388  18.848  0.00  0.00    +0.000 A 
ATOM     11  N   UNL     1      -0.927  11.059  19.943  0.00  0.00    +0.000 NA
ATOM     12  C   UNL     1      -2.056  11.851  19.782  0.00  0.00    +0.000 A 
ATOM     13  C   UNL     1      -2.645  11.762  18.534  0.00  0.00    +0.000 A 
ATOM     14  S   UNL     1      -1.734  10.701  17.533  0.00  0.00    +0.000 S 
ATOM     15  H   UNL     1       0.299   9.077  17.672  0.00  0.00    +0.000 HD
BRANCH  12  16
ATOM     16  C   UNL     1      -2.557  12.686  20.871  0.00  0.00    +0.000 A 
ATOM     17  C   UNL     1      -2.089  12.486  22.168  0.00  0.00    +0.000 A 
ATOM     18  C   UNL     1      -2.586  13.282  23.196  0.00  0.00    +0.000 A 
ATOM     19  C   UNL     1      -3.536  14.250  22.902  0.00  0.00    +0.000 A 
ATOM     20  C   UNL     1      -3.947  14.387  21.586  0.00  0.00    +0.000 A 
ATOM     21  N   UNL     1      -3.481  13.634  20.563  0.00  0.00    +0.000 NA
ENDBRANCH  12  16
ENDBRANCH   4   7
BRANCH   1  22
ATOM     22  S   UNL     1       5.266   4.673  18.513  0.00  0.00    +0.000 S 
ATOM     23  O   UNL     1       5.323   3.858  19.713  0.00  0.00    +0.000 OA
ATOM     24  O   UNL     1       6.423   5.411  18.050  0.00  0.00    +0.000 OA
BRANCH  22  25
ATOM     25  N   UNL     1       4.730   3.690  17.219  0.00  0.00    +0.000 NA
BRANCH  25  26
ATOM     26  C   UNL     1       3.271   3.726  16.924  0.00  0.00    +0.000 C 
BRANCH  26  28
ATOM     27  C   UNL     1       3.385   1.557  18.273  0.00  0.00    +0.000 C 
ATOM     28  C   UNL     1       2.486   2.533  17.509  0.00  0.00    +0.000 C 
ATOM     29  C   UNL     1       1.372   3.050  18.428  0.00  0.00    +0.000 C 
ENDBRANCH  26  28
ENDBRANCH  25  26
BRANCH  25  30
ATOM     30  C   UNL     1       5.661   3.608  16.047  0.00  0.00    +0.000 C 
BRANCH  30  31
ATOM     31  C   UNL     1       5.289   4.387  14.765  0.00  0.00    +0.000 C 
ATOM     32  C   UNL     1       5.463   5.907  14.858  0.00  0.00    +0.000 C 
ATOM     33  C   UNL     1       6.176   3.858  13.624  0.00  0.00    +0.000 C 
ENDBRANCH  30  31
ENDBRANCH  25  30
ENDBRANCH  22  25
ENDBRANCH   1  22
TORSDOF 8
ENDMDL
