MODEL 1
REMARK VINA RESULT:      -6.1      0.000      0.000
REMARK  Name = 
REMARK  8 active torsions:
REMARK  status: ('A' for Active; 'I' for Inactive)
REMARK    1  A    between atoms: C_1  and  O_2
REMARK    2  A    between atoms: O_2  and  C_3
REMARK    3  A    between atoms: C_8  and  O_9
REMARK    4  A    between atoms: O_9  and  C_10
REMARK    5  A    between atoms: C_15  and  O_16
REMARK    6  A    between atoms: O_16  and  C_17
REMARK    7  A    between atoms: C_18  and  O_19
REMARK    8  A    between atoms: O_19  and  C_20
REMARK                            x       y       z     vdW  Elec       q    Type
REMARK                         _______ _______ _______ _____ _____    ______ ____
ROOT
ATOM      1  C   UNL     1       6.339   4.895  16.887  0.00  0.00    +0.000 A 
ATOM      2  C   UNL     1       5.101   4.352  16.493  0.00  0.00    +0.000 A 
ATOM      3  C   UNL     1       4.209   3.780  17.413  0.00  0.00    +0.000 A 
ATOM      4  C   UNL     1       4.611   3.656  18.750  0.00  0.00    +0.000 A 
ATOM      5  C   UNL     1       5.881   4.125  19.124  0.00  0.00    +0.000 A 
ATOM      6  C   UNL     1       6.753   4.744  18.215  0.00  0.00    +0.000 A 
ATOM      7  C   UNL     1       3.729   3.022  19.795  0.00  0.00    +0.000 C 
ATOM      8  C   UNL     1       2.515   3.825  20.285  0.00  0.00    +0.000 C 
ATOM      9  C   UNL     1       2.221   5.167  19.653  0.00  0.00    +0.000 A 
ATOM     10  C   UNL     1       2.333   6.327  20.446  0.00  0.00    +0.000 A 
ATOM     11  C   UNL     1       2.001   7.602  19.959  0.00  0.00    +0.000 A 
ATOM     12  C   UNL     1       1.555   7.718  18.634  0.00  0.00    +0.000 A 
ATOM     13  C   UNL     1       1.471   6.564  17.836  0.00  0.00    +0.000 A 
ATOM     14  C   UNL     1       1.790   5.285  18.324  0.00  0.00    +0.000 A 
ATOM     15  C   UNL     1       1.608   4.082  17.429  0.00  0.00    +0.000 C 
ATOM     16  C   UNL     1       2.855   3.324  16.927  0.00  0.00    +0.000 C 
ENDROOT
BRANCH   1  18
ATOM     17  C   UNL     1       7.098   5.035  14.648  0.00  0.00    +0.000 C 
ATOM     18  O   UNL     1       7.139   5.543  15.984  0.00  0.00    +0.000 OA
ENDBRANCH   1  18
BRANCH   6  19
ATOM     19  O   UNL     1       7.919   5.127  18.815  0.00  0.00    +0.000 OA
ATOM     20  C   UNL     1       8.185   6.502  19.027  0.00  0.00    +0.000 C 
ENDBRANCH   6  19
BRANCH  11  21
ATOM     21  O   UNL     1       2.076   8.735  20.724  0.00  0.00    +0.000 OA
ATOM     22  C   UNL     1       0.982   9.057  21.575  0.00  0.00    +0.000 C 
ENDBRANCH  11  21
BRANCH  12  23
ATOM     23  O   UNL     1       1.151   8.843  17.960  0.00  0.00    +0.000 OA
ATOM     24  C   UNL     1       2.048   9.937  17.844  0.00  0.00    +0.000 C 
ENDBRANCH  12  23
TORSDOF 4
ENDMDL
MODEL 2
REMARK VINA RESULT:      -6.0      0.163      6.064
REMARK  Name = 
REMARK  8 active torsions:
REMARK  status: ('A' for Active; 'I' for Inactive)
REMARK    1  A    between atoms: C_1  and  O_2
REMARK    2  A    between atoms: O_2  and  C_3
REMARK    3  A    between atoms: C_8  and  O_9
REMARK    4  A    between atoms: O_9  and  C_10
REMARK    5  A    between atoms: C_15  and  O_16
REMARK    6  A    between atoms: O_16  and  C_17
REMARK    7  A    between atoms: C_18  and  O_19
REMARK    8  A    between atoms: O_19  and  C_20
REMARK                            x       y       z     vdW  Elec       q    Type
REMARK                         _______ _______ _______ _____ _____    ______ ____
ROOT
ATOM      1  C   UNL     1       1.983   7.494  19.905  0.00  0.00    +0.000 A 
ATOM      2  C   UNL     1       2.183   6.216  20.461  0.00  0.00    +0.000 A 
ATOM      3  C   UNL     1       2.097   5.046  19.692  0.00  0.00    +0.000 A 
ATOM      4  C   UNL     1       1.696   5.149  18.352  0.00  0.00    +0.000 A 
ATOM      5  C   UNL     1       1.417   6.420  17.824  0.00  0.00    +0.000 A 
ATOM      6  C   UNL     1       1.555   7.597  18.578  0.00  0.00    +0.000 A 
ATOM      7  C   UNL     1       1.543   3.940  17.467  0.00  0.00    +0.000 C 
ATOM      8  C   UNL     1       2.824   3.246  16.980  0.00  0.00    +0.000 C 
ATOM      9  C   UNL     1       4.163   3.757  17.464  0.00  0.00    +0.000 A 
ATOM     10  C   UNL     1       5.045   4.336  16.528  0.00  0.00    +0.000 A 
ATOM     11  C   UNL     1       6.336   4.760  16.880  0.00  0.00    +0.000 A 
ATOM     12  C   UNL     1       6.751   4.614  18.212  0.00  0.00    +0.000 A 
ATOM     13  C   UNL     1       5.860   4.063  19.150  0.00  0.00    +0.000 A 
ATOM     14  C   UNL     1       4.572   3.624  18.798  0.00  0.00    +0.000 A 
ATOM     15  C   UNL     1       3.697   2.978  19.846  0.00  0.00    +0.000 C 
ATOM     16  C   UNL     1       2.438   3.724  20.336  0.00  0.00    +0.000 C 
ENDROOT
BRANCH   1  18
ATOM     17  C   UNL     1       1.121   8.961  21.554  0.00  0.00    +0.000 C 
ATOM     18  O   UNL     1       2.181   8.623  20.656  0.00  0.00    +0.000 OA
ENDBRANCH   1  18
BRANCH   6  19
ATOM     19  O   UNL     1       1.240   8.706  17.844  0.00  0.00    +0.000 OA
ATOM     20  C   UNL     1       2.132   9.805  17.812  0.00  0.00    +0.000 C 
ENDBRANCH   6  19
BRANCH  11  21
ATOM     21  O   UNL     1       7.215   5.297  15.977  0.00  0.00    +0.000 OA
ATOM     22  C   UNL     1       7.100   4.923  14.609  0.00  0.00    +0.000 C 
ENDBRANCH  11  21
BRANCH  12  23
ATOM     23  O   UNL     1       7.964   4.927  18.772  0.00  0.00    +0.000 OA
ATOM     24  C   UNL     1       8.177   6.240  19.265  0.00  0.00    +0.000 C 
ENDBRANCH  12  23
TORSDOF 4
ENDMDL
MODEL 3
REMARK VINA RESULT:      -5.9      9.691     13.217
REMARK  Name = 
REMARK  8 active torsions:
REMARK  status: ('A' for Active; 'I' for Inactive)
REMARK    1  A    between atoms: C_1  and  O_2
REMARK    2  A    between atoms: O_2  and  C_3
REMARK    3  A    between atoms: C_8  and  O_9
REMARK    4  A    between atoms: O_9  and  C_10
REMARK    5  A    between atoms: C_15  and  O_16
REMARK    6  A    between atoms: O_16  and  C_17
REMARK    7  A    between atoms: C_18  and  O_19
REMARK    8  A    between atoms: O_19  and  C_20
REMARK                            x       y       z     vdW  Elec       q    Type
REMARK                         _______ _______ _______ _____ _____    ______ ____
ROOT
ATOM      1  C   UNL     1      -7.225  12.005  19.009  0.00  0.00    +0.000 A 
ATOM      2  C   UNL     1      -7.520  13.250  19.594  0.00  0.00    +0.000 A 
ATOM      3  C   UNL     1      -7.701  13.401  20.978  0.00  0.00    +0.000 A 
ATOM      4  C   UNL     1      -7.690  12.255  21.786  0.00  0.00    +0.000 A 
ATOM      5  C   UNL     1      -7.477  11.003  21.186  0.00  0.00    +0.000 A 
ATOM      6  C   UNL     1      -7.243  10.857  19.809  0.00  0.00    +0.000 A 
ATOM      7  C   UNL     1      -7.913  12.324  23.274  0.00  0.00    +0.000 C 
ATOM      8  C   UNL     1      -6.776  12.886  24.140  0.00  0.00    +0.000 C 
ATOM      9  C   UNL     1      -5.528  13.407  23.462  0.00  0.00    +0.000 A 
ATOM     10  C   UNL     1      -4.311  12.729  23.672  0.00  0.00    +0.000 A 
ATOM     11  C   UNL     1      -3.094  13.193  23.145  0.00  0.00    +0.000 A 
ATOM     12  C   UNL     1      -3.101  14.365  22.375  0.00  0.00    +0.000 A 
ATOM     13  C   UNL     1      -4.321  15.025  22.143  0.00  0.00    +0.000 A 
ATOM     14  C   UNL     1      -5.537  14.571  22.680  0.00  0.00    +0.000 A 
ATOM     15  C   UNL     1      -6.797  15.371  22.446  0.00  0.00    +0.000 C 
ATOM     16  C   UNL     1      -7.900  14.787  21.540  0.00  0.00    +0.000 C 
ENDROOT
BRANCH   1  18
ATOM     17  C   UNL     1      -6.666  13.145  17.008  0.00  0.00    +0.000 C 
ATOM     18  O   UNL     1      -6.945  11.909  17.671  0.00  0.00    +0.000 OA
ENDBRANCH   1  18
BRANCH   6  19
ATOM     19  O   UNL     1      -7.050   9.549  19.466  0.00  0.00    +0.000 OA
ATOM     20  C   UNL     1      -7.491   8.521  20.334  0.00  0.00    +0.000 C 
ENDBRANCH   6  19
BRANCH  11  21
ATOM     21  O   UNL     1      -1.899  12.562  23.363  0.00  0.00    +0.000 OA
ATOM     22  C   UNL     1      -1.405  11.674  22.367  0.00  0.00    +0.000 C 
ENDBRANCH  11  21
BRANCH  12  23
ATOM     23  O   UNL     1      -2.043  15.014  21.791  0.00  0.00    +0.000 OA
ATOM     24  C   UNL     1      -1.301  15.951  22.557  0.00  0.00    +0.000 C 
ENDBRANCH  12  23
TORSDOF 4
ENDMDL
MODEL 4
REMARK VINA RESULT:      -5.7      9.535     12.908
REMARK  Name = 
REMARK  8 active torsions:
REMARK  status: ('A' for Active; 'I' for Inactive)
REMARK    1  A    between atoms: C_1  and  O_2
REMARK    2  A    between atoms: O_2  and  C_3
REMARK    3  A    between atoms: C_8  and  O_9
REMARK    4  A    between atoms: O_9  and  C_10
REMARK    5  A    between atoms: C_15  and  O_16
REMARK    6  A    between atoms: O_16  and  C_17
REMARK    7  A    between atoms: C_18  and  O_19
REMARK    8  A    between atoms: O_19  and  C_20
REMARK                            x       y       z     vdW  Elec       q    Type
REMARK                         _______ _______ _______ _____ _____    ______ ____
ROOT
ATOM      1  C   UNL     1      -3.099  12.702  23.428  0.00  0.00    +0.000 A 
ATOM      2  C   UNL     1      -4.359  12.359  23.952  0.00  0.00    +0.000 A 
ATOM      3  C   UNL     1      -5.507  13.124  23.697  0.00  0.00    +0.000 A 
ATOM      4  C   UNL     1      -5.372  14.322  22.982  0.00  0.00    +0.000 A 
ATOM      5  C   UNL     1      -4.097  14.703  22.531  0.00  0.00    +0.000 A 
ATOM      6  C   UNL     1      -2.956  13.912  22.741  0.00  0.00    +0.000 A 
ATOM      7  C   UNL     1      -6.547  15.220  22.696  0.00  0.00    +0.000 C 
ATOM      8  C   UNL     1      -7.555  14.757  21.633  0.00  0.00    +0.000 C 
ATOM      9  C   UNL     1      -7.366  13.405  20.983  0.00  0.00    +0.000 A 
ATOM     10  C   UNL     1      -7.065  13.352  19.607  0.00  0.00    +0.000 A 
ATOM     11  C   UNL     1      -6.953  12.137  18.911  0.00  0.00    +0.000 A 
ATOM     12  C   UNL     1      -7.135  10.940  19.620  0.00  0.00    +0.000 A 
ATOM     13  C   UNL     1      -7.406  10.994  20.998  0.00  0.00    +0.000 A 
ATOM     14  C   UNL     1      -7.532  12.208  21.694  0.00  0.00    +0.000 A 
ATOM     15  C   UNL     1      -7.894  12.189  23.160  0.00  0.00    +0.000 C 
ATOM     16  C   UNL     1      -6.841  12.626  24.199  0.00  0.00    +0.000 C 
ENDROOT
BRANCH   1  18
ATOM     17  C   UNL     1      -1.396  11.411  22.404  0.00  0.00    +0.000 C 
ATOM     18  O   UNL     1      -2.019  11.877  23.604  0.00  0.00    +0.000 OA
ENDBRANCH   1  18
BRANCH   6  19
ATOM     19  O   UNL     1      -1.840  14.484  22.199  0.00  0.00    +0.000 OA
ATOM     20  C   UNL     1      -1.926  15.761  21.593  0.00  0.00    +0.000 C 
ENDBRANCH   6  19
BRANCH  11  21
ATOM     21  O   UNL     1      -6.691  12.069  17.569  0.00  0.00    +0.000 OA
ATOM     22  C   UNL     1      -5.351  11.842  17.147  0.00  0.00    +0.000 C 
ENDBRANCH  11  21
BRANCH  12  23
ATOM     23  O   UNL     1      -7.102   9.651  19.149  0.00  0.00    +0.000 OA
ATOM     24  C   UNL     1      -7.167   8.577  20.075  0.00  0.00    +0.000 C 
ENDBRANCH  12  23
TORSDOF 4
ENDMDL
MODEL 5
REMARK VINA RESULT:      -5.6      8.551     11.055
REMARK  Name = 
REMARK  8 active torsions:
REMARK  status: ('A' for Active; 'I' for Inactive)
REMARK    1  A    between atoms: C_1  and  O_2
REMARK    2  A    between atoms: O_2  and  C_3
REMARK    3  A    between atoms: C_8  and  O_9
REMARK    4  A    between atoms: O_9  and  C_10
REMARK    5  A    between atoms: C_15  and  O_16
REMARK    6  A    between atoms: O_16  and  C_17
REMARK    7  A    between atoms: C_18  and  O_19
REMARK    8  A    between atoms: O_19  and  C_20
REMARK                            x       y       z     vdW  Elec       q    Type
REMARK                         _______ _______ _______ _____ _____    ______ ____
ROOT
ATOM      1  C   UNL     1       6.227  15.059  18.039  0.00  0.00    +0.000 A 
ATOM      2  C   UNL     1       7.132  14.009  17.797  0.00  0.00    +0.000 A 
ATOM      3  C   UNL     1       8.492  14.105  18.129  0.00  0.00    +0.000 A 
ATOM      4  C   UNL     1       8.980  15.323  18.622  0.00  0.00    +0.000 A 
ATOM      5  C   UNL     1       8.088  16.395  18.785  0.00  0.00    +0.000 A 
ATOM      6  C   UNL     1       6.717  16.285  18.503  0.00  0.00    +0.000 A 
ATOM      7  C   UNL     1      10.433  15.521  18.969  0.00  0.00    +0.000 C 
ATOM      8  C   UNL     1      10.959  14.849  20.246  0.00  0.00    +0.000 C 
ATOM      9  C   UNL     1      10.026  13.970  21.049  0.00  0.00    +0.000 A 
ATOM     10  C   UNL     1       9.656  14.382  22.345  0.00  0.00    +0.000 A 
ATOM     11  C   UNL     1       8.860  13.586  23.185  0.00  0.00    +0.000 A 
ATOM     12  C   UNL     1       8.411  12.346  22.705  0.00  0.00    +0.000 A 
ATOM     13  C   UNL     1       8.757  11.950  21.402  0.00  0.00    +0.000 A 
ATOM     14  C   UNL     1       9.565  12.738  20.564  0.00  0.00    +0.000 A 
ATOM     15  C   UNL     1       9.953  12.214  19.201  0.00  0.00    +0.000 C 
ATOM     16  C   UNL     1       9.374  12.894  17.943  0.00  0.00    +0.000 C 
ENDROOT
BRANCH   1  18
ATOM     17  C   UNL     1       4.092  14.590  18.954  0.00  0.00    +0.000 C 
ATOM     18  O   UNL     1       4.886  14.896  17.805  0.00  0.00    +0.000 OA
ENDBRANCH   1  18
BRANCH   6  19
ATOM     19  O   UNL     1       6.054  17.453  18.753  0.00  0.00    +0.000 OA
ATOM     20  C   UNL     1       5.810  17.852  20.090  0.00  0.00    +0.000 C 
ENDBRANCH   6  19
BRANCH  11  21
ATOM     21  O   UNL     1       8.515  13.958  24.457  0.00  0.00    +0.000 OA
ATOM     22  C   UNL     1       8.947  15.226  24.936  0.00  0.00    +0.000 C 
ENDBRANCH  11  21
BRANCH  12  23
ATOM     23  O   UNL     1       7.656  11.399  23.350  0.00  0.00    +0.000 OA
ATOM     24  C   UNL     1       6.312  11.703  23.691  0.00  0.00    +0.000 C 
ENDBRANCH  12  23
TORSDOF 4
ENDMDL
MODEL 6
REMARK VINA RESULT:      -5.5      8.562     10.851
REMARK  Name = 
REMARK  8 active torsions:
REMARK  status: ('A' for Active; 'I' for Inactive)
REMARK    1  A    between atoms: C_1  and  O_2
REMARK    2  A    between atoms: O_2  and  C_3
REMARK    3  A    between atoms: C_8  and  O_9
REMARK    4  A    between atoms: O_9  and  C_10
REMARK    5  A    between atoms: C_15  and  O_16
REMARK    6  A    between atoms: O_16  and  C_17
REMARK    7  A    between atoms: C_18  and  O_19
REMARK    8  A    between atoms: O_19  and  C_20
REMARK                            x       y       z     vdW  Elec       q    Type
REMARK                         _______ _______ _______ _____ _____    ______ ____
ROOT
ATOM      1  C   UNL     1       8.965  13.608  23.085  0.00  0.00    +0.000 A 
ATOM      2  C   UNL     1       9.822  14.412  22.311  0.00  0.00    +0.000 A 
ATOM      3  C   UNL     1      10.170  14.079  20.993  0.00  0.00    +0.000 A 
ATOM      4  C   UNL     1       9.730  12.854  20.470  0.00  0.00    +0.000 A 
ATOM      5  C   UNL     1       8.943  12.016  21.277  0.00  0.00    +0.000 A 
ATOM      6  C   UNL     1       8.551  12.372  22.577  0.00  0.00    +0.000 A 
ATOM      7  C   UNL     1      10.088  12.404  19.078  0.00  0.00    +0.000 C 
ATOM      8  C   UNL     1       9.389  13.101  17.902  0.00  0.00    +0.000 C 
ATOM      9  C   UNL     1       8.439  14.243  18.186  0.00  0.00    +0.000 A 
ATOM     10  C   UNL     1       7.071  14.075  17.894  0.00  0.00    +0.000 A 
ATOM     11  C   UNL     1       6.137  15.112  18.053  0.00  0.00    +0.000 A 
ATOM     12  C   UNL     1       6.588  16.351  18.533  0.00  0.00    +0.000 A 
ATOM     13  C   UNL     1       7.948  16.509  18.851  0.00  0.00    +0.000 A 
ATOM     14  C   UNL     1       8.887  15.477  18.680  0.00  0.00    +0.000 A 
ATOM     15  C   UNL     1      10.343  15.743  18.977  0.00  0.00    +0.000 C 
ATOM     16  C   UNL     1      11.000  15.052  20.190  0.00  0.00    +0.000 C 
ENDROOT
BRANCH   1  18
ATOM     17  C   UNL     1       8.829  15.380  24.651  0.00  0.00    +0.000 C 
ATOM     18  O   UNL     1       8.557  14.014  24.329  0.00  0.00    +0.000 OA
ENDBRANCH   1  18
BRANCH   6  19
ATOM     19  O   UNL     1       7.779  11.404  23.154  0.00  0.00    +0.000 OA
ATOM     20  C   UNL     1       6.458  11.708  23.565  0.00  0.00    +0.000 C 
ENDBRANCH   6  19
BRANCH  11  21
ATOM     21  O   UNL     1       4.810  14.974  17.746  0.00  0.00    +0.000 OA
ATOM     22  C   UNL     1       3.917  14.536  18.764  0.00  0.00    +0.000 C 
ENDBRANCH  11  21
BRANCH  12  23
ATOM     23  O   UNL     1       5.871  17.504  18.738  0.00  0.00    +0.000 OA
ATOM     24  C   UNL     1       5.399  17.799  20.043  0.00  0.00    +0.000 C 
ENDBRANCH  12  23
TORSDOF 4
ENDMDL
MODEL 7
REMARK VINA RESULT:      -5.4      0.953      1.177
REMARK  Name = 
REMARK  8 active torsions:
REMARK  status: ('A' for Active; 'I' for Inactive)
REMARK    1  A    between atoms: C_1  and  O_2
REMARK    2  A    between atoms: O_2  and  C_3
REMARK    3  A    between atoms: C_8  and  O_9
REMARK    4  A    between atoms: O_9  and  C_10
REMARK    5  A    between atoms: C_15  and  O_16
REMARK    6  A    between atoms: O_16  and  C_17
REMARK    7  A    between atoms: C_18  and  O_19
REMARK    8  A    between atoms: O_19  and  C_20
REMARK                            x       y       z     vdW  Elec       q    Type
REMARK                         _______ _______ _______ _____ _____    ______ ____
ROOT
ATOM      1  C   UNL     1       6.787   5.848  17.456  0.00  0.00    +0.000 A 
ATOM      2  C   UNL     1       5.672   5.243  16.847  0.00  0.00    +0.000 A 
ATOM      3  C   UNL     1       4.759   4.460  17.572  0.00  0.00    +0.000 A 
ATOM      4  C   UNL     1       5.028   4.191  18.921  0.00  0.00    +0.000 A 
ATOM      5  C   UNL     1       6.187   4.729  19.503  0.00  0.00    +0.000 A 
ATOM      6  C   UNL     1       7.072   5.556  18.794  0.00  0.00    +0.000 A 
ATOM      7  C   UNL     1       4.119   3.330  19.761  0.00  0.00    +0.000 C 
ATOM      8  C   UNL     1       2.774   3.929  20.198  0.00  0.00    +0.000 C 
ATOM      9  C   UNL     1       2.394   5.310  19.712  0.00  0.00    +0.000 A 
ATOM     10  C   UNL     1       2.284   6.353  20.653  0.00  0.00    +0.000 A 
ATOM     11  C   UNL     1       1.859   7.642  20.296  0.00  0.00    +0.000 A 
ATOM     12  C   UNL     1       1.547   7.897  18.953  0.00  0.00    +0.000 A 
ATOM     13  C   UNL     1       1.685   6.864  18.010  0.00  0.00    +0.000 A 
ATOM     14  C   UNL     1       2.097   5.569  18.366  0.00  0.00    +0.000 A 
ATOM     15  C   UNL     1       2.154   4.491  17.309  0.00  0.00    +0.000 C 
ATOM     16  C   UNL     1       3.527   3.942  16.871  0.00  0.00    +0.000 C 
ENDROOT
BRANCH   1  18
ATOM     17  C   UNL     1       7.733   8.013  17.283  0.00  0.00    +0.000 C 
ATOM     18  O   UNL     1       7.598   6.695  16.747  0.00  0.00    +0.000 OA
ENDBRANCH   1  18
BRANCH   6  19
ATOM     19  O   UNL     1       8.115   5.967  19.576  0.00  0.00    +0.000 OA
ATOM     20  C   UNL     1       8.613   5.114  20.591  0.00  0.00    +0.000 C 
ENDBRANCH   6  19
BRANCH  11  21
ATOM     21  O   UNL     1       1.719   8.659  21.204  0.00  0.00    +0.000 OA
ATOM     22  C   UNL     1       0.453   8.847  21.826  0.00  0.00    +0.000 C 
ENDBRANCH  11  21
BRANCH  12  23
ATOM     23  O   UNL     1       1.089   9.059  18.384  0.00  0.00    +0.000 OA
ATOM     24  C   UNL     1       2.027  10.016  17.918  0.00  0.00    +0.000 C 
ENDBRANCH  12  23
TORSDOF 4
ENDMDL
MODEL 8
REMARK VINA RESULT:      -5.3      6.459      9.307
REMARK  Name = 
REMARK  8 active torsions:
REMARK  status: ('A' for Active; 'I' for Inactive)
REMARK    1  A    between atoms: C_1  and  O_2
REMARK    2  A    between atoms: O_2  and  C_3
REMARK    3  A    between atoms: C_8  and  O_9
REMARK    4  A    between atoms: O_9  and  C_10
REMARK    5  A    between atoms: C_15  and  O_16
REMARK    6  A    between atoms: O_16  and  C_17
REMARK    7  A    between atoms: C_18  and  O_19
REMARK    8  A    between atoms: O_19  and  C_20
REMARK                            x       y       z     vdW  Elec       q    Type
REMARK                         _______ _______ _______ _____ _____    ______ ____
ROOT
ATOM      1  C   UNL     1      -3.144  11.461  18.291  0.00  0.00    +0.000 A 
ATOM      2  C   UNL     1      -2.467  11.061  19.458  0.00  0.00    +0.000 A 
ATOM      3  C   UNL     1      -1.200  10.458  19.417  0.00  0.00    +0.000 A 
ATOM      4  C   UNL     1      -0.641  10.154  18.168  0.00  0.00    +0.000 A 
ATOM      5  C   UNL     1      -1.358  10.481  17.005  0.00  0.00    +0.000 A 
ATOM      6  C   UNL     1      -2.601  11.131  17.044  0.00  0.00    +0.000 A 
ATOM      7  C   UNL     1       0.698   9.476  18.035  0.00  0.00    +0.000 C 
ATOM      8  C   UNL     1       1.952  10.308  18.340  0.00  0.00    +0.000 C 
ATOM      9  C   UNL     1       1.787  11.731  18.824  0.00  0.00    +0.000 A 
ATOM     10  C   UNL     1       2.234  12.783  17.999  0.00  0.00    +0.000 A 
ATOM     11  C   UNL     1       2.191  14.125  18.408  0.00  0.00    +0.000 A 
ATOM     12  C   UNL     1       1.672  14.423  19.677  0.00  0.00    +0.000 A 
ATOM     13  C   UNL     1       1.201  13.376  20.488  0.00  0.00    +0.000 A 
ATOM     14  C   UNL     1       1.255  12.030  20.087  0.00  0.00    +0.000 A 
ATOM     15  C   UNL     1       0.795  10.953  21.040  0.00  0.00    +0.000 C 
ATOM     16  C   UNL     1      -0.491  10.164  20.716  0.00  0.00    +0.000 C 
ENDROOT
BRANCH   1  18
ATOM     17  C   UNL     1      -5.510  11.338  18.330  0.00  0.00    +0.000 C 
ATOM     18  O   UNL     1      -4.329  12.144  18.368  0.00  0.00    +0.000 OA
ENDBRANCH   1  18
BRANCH   6  19
ATOM     19  O   UNL     1      -3.093  11.355  15.789  0.00  0.00    +0.000 OA
ATOM     20  C   UNL     1      -3.101  10.305  14.838  0.00  0.00    +0.000 C 
ENDBRANCH   6  19
BRANCH  11  21
ATOM     21  O   UNL     1       2.648  15.156  17.631  0.00  0.00    +0.000 OA
ATOM     22  C   UNL     1       4.038  15.461  17.651  0.00  0.00    +0.000 C 
ENDBRANCH  11  21
BRANCH  12  23
ATOM     23  O   UNL     1       1.560  15.645  20.294  0.00  0.00    +0.000 OA
ATOM     24  C   UNL     1       2.539  16.028  21.247  0.00  0.00    +0.000 C 
ENDBRANCH  12  23
TORSDOF 4
ENDMDL
MODEL 9
REMARK VINA RESULT:      -5.3      7.292      9.297
REMARK  Name = 
REMARK  8 active torsions:
REMARK  status: ('A' for Active; 'I' for Inactive)
REMARK    1  A    between atoms: C_1  and  O_2
REMARK    2  A    between atoms: O_2  and  C_3
REMARK    3  A    between atoms: C_8  and  O_9
REMARK    4  A    between atoms: O_9  and  C_10
REMARK    5  A    between atoms: C_15  and  O_16
REMARK    6  A    between atoms: O_16  and  C_17
REMARK    7  A    between atoms: C_18  and  O_19
REMARK    8  A    between atoms: O_19  and  C_20
REMARK                            x       y       z     vdW  Elec       q    Type
REMARK                         _______ _______ _______ _____ _____    ______ ____
ROOT
ATOM      1  C   UNL     1       2.000  14.203  18.586  0.00  0.00    +0.000 A 
ATOM      2  C   UNL     1       2.049  12.952  19.230  0.00  0.00    +0.000 A 
ATOM      3  C   UNL     1       1.134  12.591  20.231  0.00  0.00    +0.000 A 
ATOM      4  C   UNL     1       0.209  13.548  20.673  0.00  0.00    +0.000 A 
ATOM      5  C   UNL     1       0.219  14.824  20.085  0.00  0.00    +0.000 A 
ATOM      6  C   UNL     1       1.098  15.168  19.046  0.00  0.00    +0.000 A 
ATOM      7  C   UNL     1      -0.784  13.255  21.768  0.00  0.00    +0.000 C 
ATOM      8  C   UNL     1      -1.968  12.338  21.429  0.00  0.00    +0.000 C 
ATOM      9  C   UNL     1      -2.045  11.719  20.051  0.00  0.00    +0.000 A 
ATOM     10  C   UNL     1      -3.096  12.103  19.195  0.00  0.00    +0.000 A 
ATOM     11  C   UNL     1      -3.285  11.517  17.932  0.00  0.00    +0.000 A 
ATOM     12  C   UNL     1      -2.385  10.527  17.511  0.00  0.00    +0.000 A 
ATOM     13  C   UNL     1      -1.320  10.166  18.355  0.00  0.00    +0.000 A 
ATOM     14  C   UNL     1      -1.136  10.740  19.624  0.00  0.00    +0.000 A 
ATOM     15  C   UNL     1      -0.010  10.251  20.504  0.00  0.00    +0.000 C 
ATOM     16  C   UNL     1       1.180  11.190  20.790  0.00  0.00    +0.000 C 
ENDROOT
BRANCH   1  18
ATOM     17  C   UNL     1       4.082  15.094  17.889  0.00  0.00    +0.000 C 
ATOM     18  O   UNL     1       2.837  14.484  17.538  0.00  0.00    +0.000 OA
ENDBRANCH   1  18
BRANCH   6  19
ATOM     19  O   UNL     1       0.908  16.456  18.630  0.00  0.00    +0.000 OA
ATOM     20  C   UNL     1      -0.394  16.903  18.296  0.00  0.00    +0.000 C 
ENDBRANCH   6  19
BRANCH  11  21
ATOM     21  O   UNL     1      -4.319  11.857  17.100  0.00  0.00    +0.000 OA
ATOM     22  C   UNL     1      -5.651  11.599  17.528  0.00  0.00    +0.000 C 
ENDBRANCH  11  21
BRANCH  12  23
ATOM     23  O   UNL     1      -2.389   9.803  16.345  0.00  0.00    +0.000 OA
ATOM     24  C   UNL     1      -2.777  10.442  15.139  0.00  0.00    +0.000 C 
ENDBRANCH  12  23
TORSDOF 4
ENDMDL
