MODEL 1
REMARK VINA RESULT:      -8.6      0.000      0.000
REMARK  Name = 
REMARK  7 active torsions:
REMARK  status: ('A' for Active; 'I' for Inactive)
REMARK    1  A    between atoms: C_1  and  C_2
REMARK    2  A    between atoms: N_6  and  C_7
REMARK    3  A    between atoms: C_7  and  C_8
REMARK    4  A    between atoms: N_10  and  C_11
REMARK    5  A    between atoms: C_16  and  C_17
REMARK    6  A    between atoms: N_22  and  C_23
REMARK    7  A    between atoms: C_28  and  C_29
REMARK                            x       y       z     vdW  Elec       q    Type
REMARK                         _______ _______ _______ _____ _____    ______ ____
ROOT
ATOM      1  C   UNL     1       1.978   4.800  21.061  0.00  0.00    +0.000 C 
ATOM      2  C   UNL     1       1.952   6.134  20.368  0.00  0.00    +0.000 A 
ATOM      3  C   UNL     1       1.253   7.161  20.867  0.00  0.00    +0.000 A 
ATOM      4  C   UNL     1       1.305   8.402  20.105  0.00  0.00    +0.000 A 
ATOM      5  N   UNL     1       0.707   9.517  20.395  0.00  0.00    +0.000 NA
ATOM      6  N   UNL     1       1.116  10.369  19.390  0.00  0.00    +0.000 N 
ATOM      7  C   UNL     1       1.959   9.706  18.486  0.00  0.00    +0.000 A 
ATOM      8  O   UNL     1       2.490  10.160  17.483  0.00  0.00    +0.000 OA
ATOM      9  N   UNL     1       2.047   8.415  18.982  0.00  0.00    +0.000 N 
ATOM     10  C   UNL     1       2.775   7.316  18.545  0.00  0.00    +0.000 A 
ATOM     11  N   UNL     1       3.541   7.425  17.401  0.00  0.00    +0.000 N 
ATOM     12  N   UNL     1       2.702   6.197  19.222  0.00  0.00    +0.000 NA
ATOM     13  H   UNL     1       3.439   8.259  16.829  0.00  0.00    +0.000 HD
ENDROOT
BRANCH  11  14
ATOM     14  C   UNL     1       4.630   6.593  17.071  0.00  0.00    +0.000 A 
ATOM     15  C   UNL     1       5.832   6.690  17.783  0.00  0.00    +0.000 A 
ATOM     16  C   UNL     1       6.956   5.959  17.382  0.00  0.00    +0.000 A 
ATOM     17  C   UNL     1       6.887   5.131  16.267  0.00  0.00    +0.000 A 
ATOM     18  F   UNL     1       7.983   4.465  15.884  0.00  0.00    +0.000 F 
ATOM     19  C   UNL     1       5.709   5.013  15.531  0.00  0.00    +0.000 A 
ATOM     20  C   UNL     1       5.613   4.162  14.306  0.00  0.00    +0.000 C 
ATOM     21  C   UNL     1       4.589   5.735  15.958  0.00  0.00    +0.000 A 
ENDBRANCH  11  14
BRANCH   6  22
ATOM     22  C   UNL     1       0.779  11.770  19.378  0.00  0.00    +0.000 C 
BRANCH  22  23
ATOM     23  C   UNL     1      -0.551  12.072  18.706  0.00  0.00    +0.000 C 
ATOM     24  O   UNL     1      -0.685  13.114  18.062  0.00  0.00    +0.000 OA
ATOM     25  N   UNL     1      -1.577  11.179  18.981  0.00  0.00    +0.000 N 
ATOM     26  H   UNL     1      -1.465  10.656  19.844  0.00  0.00    +0.000 HD
BRANCH  25  27
ATOM     27  C   UNL     1      -2.879  11.370  18.473  0.00  0.00    +0.000 A 
ATOM     28  C   UNL     1      -3.828  12.068  19.234  0.00  0.00    +0.000 A 
ATOM     29  C   UNL     1      -5.146  12.183  18.797  0.00  0.00    +0.000 A 
ATOM     30  C   UNL     1      -5.524  11.605  17.591  0.00  0.00    +0.000 A 
ATOM     31  C   UNL     1      -4.576  10.943  16.807  0.00  0.00    +0.000 A 
ATOM     32  C   UNL     1      -3.240  10.828  17.228  0.00  0.00    +0.000 A 
ATOM     33  C   UNL     1      -2.276  10.032  16.396  0.00  0.00    +0.000 C 
ENDBRANCH  25  27
ENDBRANCH  22  23
ENDBRANCH   6  22
TORSDOF 4
ENDMDL
MODEL 2
REMARK VINA RESULT:      -8.5      0.370      1.281
REMARK  Name = 
REMARK  7 active torsions:
REMARK  status: ('A' for Active; 'I' for Inactive)
REMARK    1  A    between atoms: C_1  and  C_2
REMARK    2  A    between atoms: N_6  and  C_7
REMARK    3  A    between atoms: C_7  and  C_8
REMARK    4  A    between atoms: N_10  and  C_11
REMARK    5  A    between atoms: C_16  and  C_17
REMARK    6  A    between atoms: N_22  and  C_23
REMARK    7  A    between atoms: C_28  and  C_29
REMARK                            x       y       z     vdW  Elec       q    Type
REMARK                         _______ _______ _______ _____ _____    ______ ____
ROOT
ATOM      1  C   UNL     1       2.045   4.790  20.967  0.00  0.00    +0.000 C 
ATOM      2  C   UNL     1       1.991   6.145  20.318  0.00  0.00    +0.000 A 
ATOM      3  C   UNL     1       1.249   7.133  20.834  0.00  0.00    +0.000 A 
ATOM      4  C   UNL     1       1.278   8.400  20.115  0.00  0.00    +0.000 A 
ATOM      5  N   UNL     1       0.639   9.486  20.429  0.00  0.00    +0.000 NA
ATOM      6  N   UNL     1       1.043  10.383  19.462  0.00  0.00    +0.000 N 
ATOM      7  C   UNL     1       1.926   9.779  18.556  0.00  0.00    +0.000 A 
ATOM      8  O   UNL     1       2.465  10.282  17.582  0.00  0.00    +0.000 OA
ATOM      9  N   UNL     1       2.044   8.475  19.012  0.00  0.00    +0.000 N 
ATOM     10  C   UNL     1       2.817   7.414  18.555  0.00  0.00    +0.000 A 
ATOM     11  N   UNL     1       3.604   7.586  17.433  0.00  0.00    +0.000 N 
ATOM     12  N   UNL     1       2.764   6.272  19.192  0.00  0.00    +0.000 NA
ATOM     13  H   UNL     1       3.488   8.436  16.888  0.00  0.00    +0.000 HD
ENDROOT
BRANCH  11  14
ATOM     14  C   UNL     1       4.726   6.800  17.101  0.00  0.00    +0.000 A 
ATOM     15  C   UNL     1       4.761   6.099  15.889  0.00  0.00    +0.000 A 
ATOM     16  C   UNL     1       5.813   5.219  15.608  0.00  0.00    +0.000 A 
ATOM     17  C   UNL     1       6.832   5.032  16.536  0.00  0.00    +0.000 A 
ATOM     18  F   UNL     1       7.811   4.163  16.258  0.00  0.00    +0.000 F 
ATOM     19  C   UNL     1       6.827   5.710  17.754  0.00  0.00    +0.000 A 
ATOM     20  C   UNL     1       7.887   5.502  18.789  0.00  0.00    +0.000 C 
ATOM     21  C   UNL     1       5.780   6.601  18.010  0.00  0.00    +0.000 A 
ENDBRANCH  11  14
BRANCH   6  22
ATOM     22  C   UNL     1       0.662  11.773  19.489  0.00  0.00    +0.000 C 
BRANCH  22  23
ATOM     23  C   UNL     1      -0.637  12.065  18.752  0.00  0.00    +0.000 C 
ATOM     24  O   UNL     1      -0.715  13.057  18.026  0.00  0.00    +0.000 OA
ATOM     25  N   UNL     1      -1.701  11.229  19.062  0.00  0.00    +0.000 N 
ATOM     26  H   UNL     1      -1.633  10.772  19.966  0.00  0.00    +0.000 HD
BRANCH  25  27
ATOM     27  C   UNL     1      -2.979  11.421  18.498  0.00  0.00    +0.000 A 
ATOM     28  C   UNL     1      -3.949  12.148  19.203  0.00  0.00    +0.000 A 
ATOM     29  C   UNL     1      -5.247  12.267  18.712  0.00  0.00    +0.000 A 
ATOM     30  C   UNL     1      -5.584  11.663  17.507  0.00  0.00    +0.000 A 
ATOM     31  C   UNL     1      -4.615  10.971  16.777  0.00  0.00    +0.000 A 
ATOM     32  C   UNL     1      -3.297  10.853  17.253  0.00  0.00    +0.000 A 
ATOM     33  C   UNL     1      -2.311  10.025  16.480  0.00  0.00    +0.000 C 
ENDBRANCH  25  27
ENDBRANCH  22  23
ENDBRANCH   6  22
TORSDOF 4
ENDMDL
MODEL 3
REMARK VINA RESULT:      -8.4      0.469      1.787
REMARK  Name = 
REMARK  7 active torsions:
REMARK  status: ('A' for Active; 'I' for Inactive)
REMARK    1  A    between atoms: C_1  and  C_2
REMARK    2  A    between atoms: N_6  and  C_7
REMARK    3  A    between atoms: C_7  and  C_8
REMARK    4  A    between atoms: N_10  and  C_11
REMARK    5  A    between atoms: C_16  and  C_17
REMARK    6  A    between atoms: N_22  and  C_23
REMARK    7  A    between atoms: C_28  and  C_29
REMARK                            x       y       z     vdW  Elec       q    Type
REMARK                         _______ _______ _______ _____ _____    ______ ____
ROOT
ATOM      1  C   UNL     1       2.138   4.711  20.948  0.00  0.00    +0.000 C 
ATOM      2  C   UNL     1       2.051   6.071  20.315  0.00  0.00    +0.000 A 
ATOM      3  C   UNL     1       1.302   7.041  20.855  0.00  0.00    +0.000 A 
ATOM      4  C   UNL     1       1.297   8.316  20.149  0.00  0.00    +0.000 A 
ATOM      5  N   UNL     1       0.646   9.388  20.485  0.00  0.00    +0.000 NA
ATOM      6  N   UNL     1       1.017  10.301  19.520  0.00  0.00    +0.000 N 
ATOM      7  C   UNL     1       1.894   9.720  18.593  0.00  0.00    +0.000 A 
ATOM      8  O   UNL     1       2.406  10.243  17.614  0.00  0.00    +0.000 OA
ATOM      9  N   UNL     1       2.041   8.415  19.032  0.00  0.00    +0.000 N 
ATOM     10  C   UNL     1       2.823   7.371  18.550  0.00  0.00    +0.000 A 
ATOM     11  N   UNL     1       3.587   7.567  17.417  0.00  0.00    +0.000 N 
ATOM     12  N   UNL     1       2.800   6.222  19.177  0.00  0.00    +0.000 NA
ATOM     13  H   UNL     1       3.447   8.420  16.882  0.00  0.00    +0.000 HD
ENDROOT
BRANCH  11  14
ATOM     14  C   UNL     1       4.715   6.804  17.057  0.00  0.00    +0.000 A 
ATOM     15  C   UNL     1       4.768   6.171  15.809  0.00  0.00    +0.000 A 
ATOM     16  C   UNL     1       5.826   5.310  15.492  0.00  0.00    +0.000 A 
ATOM     17  C   UNL     1       6.833   5.075  16.422  0.00  0.00    +0.000 A 
ATOM     18  F   UNL     1       7.819   4.224  16.109  0.00  0.00    +0.000 F 
ATOM     19  C   UNL     1       6.811   5.684  17.675  0.00  0.00    +0.000 A 
ATOM     20  C   UNL     1       7.858   5.421  18.711  0.00  0.00    +0.000 C 
ATOM     21  C   UNL     1       5.758   6.557  17.967  0.00  0.00    +0.000 A 
ENDBRANCH  11  14
BRANCH   6  22
ATOM     22  C   UNL     1       0.614  11.684  19.569  0.00  0.00    +0.000 C 
BRANCH  22  23
ATOM     23  C   UNL     1      -0.649  11.980  18.774  0.00  0.00    +0.000 C 
ATOM     24  O   UNL     1      -0.700  12.985  18.064  0.00  0.00    +0.000 OA
ATOM     25  N   UNL     1      -1.720  11.130  19.015  0.00  0.00    +0.000 N 
ATOM     26  H   UNL     1      -1.693  10.657  19.913  0.00  0.00    +0.000 HD
BRANCH  25  27
ATOM     27  C   UNL     1      -2.971  11.323  18.393  0.00  0.00    +0.000 A 
ATOM     28  C   UNL     1      -3.190  10.826  17.101  0.00  0.00    +0.000 A 
ATOM     29  C   UNL     1      -4.382  11.089  16.429  0.00  0.00    +0.000 A 
ATOM     30  C   UNL     1      -5.367  11.848  17.048  0.00  0.00    +0.000 A 
ATOM     31  C   UNL     1      -5.175  12.314  18.351  0.00  0.00    +0.000 A 
ATOM     32  C   UNL     1      -3.983  12.046  19.047  0.00  0.00    +0.000 A 
ATOM     33  C   UNL     1      -3.782  12.641  20.411  0.00  0.00    +0.000 C 
ENDBRANCH  25  27
ENDBRANCH  22  23
ENDBRANCH   6  22
TORSDOF 4
ENDMDL
MODEL 4
REMARK VINA RESULT:      -8.2      0.477      1.303
REMARK  Name = 
REMARK  7 active torsions:
REMARK  status: ('A' for Active; 'I' for Inactive)
REMARK    1  A    between atoms: C_1  and  C_2
REMARK    2  A    between atoms: N_6  and  C_7
REMARK    3  A    between atoms: C_7  and  C_8
REMARK    4  A    between atoms: N_10  and  C_11
REMARK    5  A    between atoms: C_16  and  C_17
REMARK    6  A    between atoms: N_22  and  C_23
REMARK    7  A    between atoms: C_28  and  C_29
REMARK                            x       y       z     vdW  Elec       q    Type
REMARK                         _______ _______ _______ _____ _____    ______ ____
ROOT
ATOM      1  C   UNL     1       1.751   4.681  21.151  0.00  0.00    +0.000 C 
ATOM      2  C   UNL     1       1.795   6.007  20.445  0.00  0.00    +0.000 A 
ATOM      3  C   UNL     1       1.092   7.055  20.892  0.00  0.00    +0.000 A 
ATOM      4  C   UNL     1       1.217   8.286  20.122  0.00  0.00    +0.000 A 
ATOM      5  N   UNL     1       0.628   9.418  20.366  0.00  0.00    +0.000 NA
ATOM      6  N   UNL     1       1.115  10.249  19.379  0.00  0.00    +0.000 N 
ATOM      7  C   UNL     1       1.994   9.558  18.532  0.00  0.00    +0.000 A 
ATOM      8  O   UNL     1       2.593   9.989  17.558  0.00  0.00    +0.000 OA
ATOM      9  N   UNL     1       2.023   8.271  19.046  0.00  0.00    +0.000 N 
ATOM     10  C   UNL     1       2.750   7.151  18.662  0.00  0.00    +0.000 A 
ATOM     11  N   UNL     1       3.584   7.231  17.564  0.00  0.00    +0.000 N 
ATOM     12  N   UNL     1       2.612   6.042  19.344  0.00  0.00    +0.000 NA
ATOM     13  H   UNL     1       3.535   8.061  16.979  0.00  0.00    +0.000 HD
ENDROOT
BRANCH  11  14
ATOM     14  C   UNL     1       4.671   6.371  17.306  0.00  0.00    +0.000 A 
ATOM     15  C   UNL     1       5.572   6.048  18.329  0.00  0.00    +0.000 A 
ATOM     16  C   UNL     1       6.722   5.299  18.053  0.00  0.00    +0.000 A 
ATOM     17  C   UNL     1       6.979   4.873  16.755  0.00  0.00    +0.000 A 
ATOM     18  F   UNL     1       8.101   4.183  16.509  0.00  0.00    +0.000 F 
ATOM     19  C   UNL     1       6.108   5.179  15.711  0.00  0.00    +0.000 A 
ATOM     20  C   UNL     1       6.376   4.768  14.299  0.00  0.00    +0.000 C 
ATOM     21  C   UNL     1       4.954   5.911  16.009  0.00  0.00    +0.000 A 
ENDBRANCH  11  14
BRANCH   6  22
ATOM     22  C   UNL     1       0.811  11.657  19.334  0.00  0.00    +0.000 C 
BRANCH  22  23
ATOM     23  C   UNL     1      -0.499  11.977  18.631  0.00  0.00    +0.000 C 
ATOM     24  O   UNL     1      -0.617  13.039  18.016  0.00  0.00    +0.000 OA
ATOM     25  N   UNL     1      -1.529  11.072  18.845  0.00  0.00    +0.000 N 
ATOM     26  H   UNL     1      -1.442  10.523  19.694  0.00  0.00    +0.000 HD
BRANCH  25  27
ATOM     27  C   UNL     1      -2.816  11.275  18.304  0.00  0.00    +0.000 A 
ATOM     28  C   UNL     1      -3.116  10.790  17.023  0.00  0.00    +0.000 A 
ATOM     29  C   UNL     1      -4.346  11.063  16.428  0.00  0.00    +0.000 A 
ATOM     30  C   UNL     1      -5.289  11.820  17.114  0.00  0.00    +0.000 A 
ATOM     31  C   UNL     1      -5.014  12.273  18.407  0.00  0.00    +0.000 A 
ATOM     32  C   UNL     1      -3.783  11.995  19.025  0.00  0.00    +0.000 A 
ATOM     33  C   UNL     1      -3.496  12.577  20.380  0.00  0.00    +0.000 C 
ENDBRANCH  25  27
ENDBRANCH  22  23
ENDBRANCH   6  22
TORSDOF 4
ENDMDL
MODEL 5
REMARK VINA RESULT:      -7.9      2.080      3.059
REMARK  Name = 
REMARK  7 active torsions:
REMARK  status: ('A' for Active; 'I' for Inactive)
REMARK    1  A    between atoms: C_1  and  C_2
REMARK    2  A    between atoms: N_6  and  C_7
REMARK    3  A    between atoms: C_7  and  C_8
REMARK    4  A    between atoms: N_10  and  C_11
REMARK    5  A    between atoms: C_16  and  C_17
REMARK    6  A    between atoms: N_22  and  C_23
REMARK    7  A    between atoms: C_28  and  C_29
REMARK                            x       y       z     vdW  Elec       q    Type
REMARK                         _______ _______ _______ _____ _____    ______ ____
ROOT
ATOM      1  C   UNL     1       2.171   4.840  21.177  0.00  0.00    +0.000 C 
ATOM      2  C   UNL     1       2.063   6.115  20.389  0.00  0.00    +0.000 A 
ATOM      3  C   UNL     1       1.254   7.107  20.781  0.00  0.00    +0.000 A 
ATOM      4  C   UNL     1       1.235   8.293  19.935  0.00  0.00    +0.000 A 
ATOM      5  N   UNL     1       0.529   9.367  20.118  0.00  0.00    +0.000 NA
ATOM      6  N   UNL     1       0.911  10.181  19.072  0.00  0.00    +0.000 N 
ATOM      7  C   UNL     1       1.852   9.537  18.255  0.00  0.00    +0.000 A 
ATOM      8  O   UNL     1       2.389   9.967  17.246  0.00  0.00    +0.000 OA
ATOM      9  N   UNL     1       2.027   8.297  18.847  0.00  0.00    +0.000 N 
ATOM     10  C   UNL     1       2.868   7.240  18.521  0.00  0.00    +0.000 A 
ATOM     11  N   UNL     1       3.677   7.339  17.406  0.00  0.00    +0.000 N 
ATOM     12  N   UNL     1       2.859   6.168  19.273  0.00  0.00    +0.000 NA
ATOM     13  H   UNL     1       3.530   8.120  16.772  0.00  0.00    +0.000 HD
ENDROOT
BRANCH  11  14
ATOM     14  C   UNL     1       4.849   6.588  17.184  0.00  0.00    +0.000 A 
ATOM     15  C   UNL     1       4.943   5.743  16.071  0.00  0.00    +0.000 A 
ATOM     16  C   UNL     1       6.050   4.901  15.910  0.00  0.00    +0.000 A 
ATOM     17  C   UNL     1       7.064   4.896  16.861  0.00  0.00    +0.000 A 
ATOM     18  F   UNL     1       8.099   4.060  16.702  0.00  0.00    +0.000 F 
ATOM     19  C   UNL     1       7.002   5.719  17.983  0.00  0.00    +0.000 A 
ATOM     20  C   UNL     1       8.057   5.709  19.043  0.00  0.00    +0.000 C 
ATOM     21  C   UNL     1       5.899   6.570  18.118  0.00  0.00    +0.000 A 
ENDBRANCH  11  14
BRANCH   6  22
ATOM     22  C   UNL     1       0.455  11.542  18.945  0.00  0.00    +0.000 C 
BRANCH  22  23
ATOM     23  C   UNL     1      -0.825  11.831  19.715  0.00  0.00    +0.000 C 
ATOM     24  O   UNL     1      -1.916  11.643  19.176  0.00  0.00    +0.000 OA
ATOM     25  N   UNL     1      -0.653  12.417  20.962  0.00  0.00    +0.000 N 
ATOM     26  H   UNL     1       0.225  12.913  21.081  0.00  0.00    +0.000 HD
BRANCH  25  27
ATOM     27  C   UNL     1      -1.753  12.794  21.760  0.00  0.00    +0.000 A 
ATOM     28  C   UNL     1      -2.451  13.975  21.469  0.00  0.00    +0.000 A 
ATOM     29  C   UNL     1      -3.478  14.418  22.300  0.00  0.00    +0.000 A 
ATOM     30  C   UNL     1      -3.818  13.679  23.427  0.00  0.00    +0.000 A 
ATOM     31  C   UNL     1      -3.156  12.480  23.702  0.00  0.00    +0.000 A 
ATOM     32  C   UNL     1      -2.126  12.013  22.866  0.00  0.00    +0.000 A 
ATOM     33  C   UNL     1      -1.382  10.766  23.248  0.00  0.00    +0.000 C 
ENDBRANCH  25  27
ENDBRANCH  22  23
ENDBRANCH   6  22
TORSDOF 4
ENDMDL
MODEL 6
REMARK VINA RESULT:      -7.9      4.304      9.429
REMARK  Name = 
REMARK  7 active torsions:
REMARK  status: ('A' for Active; 'I' for Inactive)
REMARK    1  A    between atoms: C_1  and  C_2
REMARK    2  A    between atoms: N_6  and  C_7
REMARK    3  A    between atoms: C_7  and  C_8
REMARK    4  A    between atoms: N_10  and  C_11
REMARK    5  A    between atoms: C_16  and  C_17
REMARK    6  A    between atoms: N_22  and  C_23
REMARK    7  A    between atoms: C_28  and  C_29
REMARK                            x       y       z     vdW  Elec       q    Type
REMARK                         _______ _______ _______ _____ _____    ______ ____
ROOT
ATOM      1  C   UNL     1      -3.491  11.552  17.577  0.00  0.00    +0.000 C 
ATOM      2  C   UNL     1      -2.237  10.938  18.134  0.00  0.00    +0.000 A 
ATOM      3  C   UNL     1      -1.402  10.238  17.356  0.00  0.00    +0.000 A 
ATOM      4  C   UNL     1      -0.221   9.691  18.012  0.00  0.00    +0.000 A 
ATOM      5  N   UNL     1       0.717   8.983  17.459  0.00  0.00    +0.000 NA
ATOM      6  N   UNL     1       1.602   8.764  18.495  0.00  0.00    +0.000 N 
ATOM      7  C   UNL     1       1.139   9.351  19.681  0.00  0.00    +0.000 A 
ATOM      8  O   UNL     1       1.671   9.341  20.781  0.00  0.00    +0.000 OA
ATOM      9  N   UNL     1      -0.065   9.937  19.326  0.00  0.00    +0.000 N 
ATOM     10  C   UNL     1      -0.960  10.703  20.062  0.00  0.00    +0.000 A 
ATOM     11  N   UNL     1      -0.707  10.939  21.399  0.00  0.00    +0.000 N 
ATOM     12  N   UNL     1      -2.032  11.169  19.471  0.00  0.00    +0.000 NA
ATOM     13  H   UNL     1       0.049  10.427  21.845  0.00  0.00    +0.000 HD
ENDROOT
BRANCH  11  14
ATOM     14  C   UNL     1      -1.248  12.001  22.153  0.00  0.00    +0.000 A 
ATOM     15  C   UNL     1      -0.534  13.197  22.298  0.00  0.00    +0.000 A 
ATOM     16  C   UNL     1      -1.004  14.207  23.145  0.00  0.00    +0.000 A 
ATOM     17  C   UNL     1      -2.186  14.025  23.855  0.00  0.00    +0.000 A 
ATOM     18  F   UNL     1      -2.600  14.993  24.683  0.00  0.00    +0.000 F 
ATOM     19  C   UNL     1      -2.920  12.847  23.739  0.00  0.00    +0.000 A 
ATOM     20  C   UNL     1      -4.174  12.606  24.518  0.00  0.00    +0.000 C 
ATOM     21  C   UNL     1      -2.447  11.857  22.872  0.00  0.00    +0.000 A 
ENDBRANCH  11  14
BRANCH   6  22
ATOM     22  C   UNL     1       2.869   8.106  18.301  0.00  0.00    +0.000 C 
BRANCH  22  23
ATOM     23  C   UNL     1       2.862   6.637  18.698  0.00  0.00    +0.000 C 
ATOM     24  O   UNL     1       3.496   6.270  19.688  0.00  0.00    +0.000 OA
ATOM     25  N   UNL     1       2.218   5.783  17.814  0.00  0.00    +0.000 N 
ATOM     26  H   UNL     1       2.146   6.131  16.863  0.00  0.00    +0.000 HD
BRANCH  25  27
ATOM     27  C   UNL     1       2.185   4.388  18.025  0.00  0.00    +0.000 A 
ATOM     28  C   UNL     1       1.146   3.823  18.777  0.00  0.00    +0.000 A 
ATOM     29  C   UNL     1       1.146   2.463  19.081  0.00  0.00    +0.000 A 
ATOM     30  C   UNL     1       2.184   1.657  18.630  0.00  0.00    +0.000 A 
ATOM     31  C   UNL     1       3.203   2.204  17.845  0.00  0.00    +0.000 A 
ATOM     32  C   UNL     1       3.210   3.572  17.519  0.00  0.00    +0.000 A 
ATOM     33  C   UNL     1       4.370   4.134  16.749  0.00  0.00    +0.000 C 
ENDBRANCH  25  27
ENDBRANCH  22  23
ENDBRANCH   6  22
TORSDOF 4
ENDMDL
MODEL 7
REMARK VINA RESULT:      -7.8      2.107      2.795
REMARK  Name = 
REMARK  7 active torsions:
REMARK  status: ('A' for Active; 'I' for Inactive)
REMARK    1  A    between atoms: C_1  and  C_2
REMARK    2  A    between atoms: N_6  and  C_7
REMARK    3  A    between atoms: C_7  and  C_8
REMARK    4  A    between atoms: N_10  and  C_11
REMARK    5  A    between atoms: C_16  and  C_17
REMARK    6  A    between atoms: N_22  and  C_23
REMARK    7  A    between atoms: C_28  and  C_29
REMARK                            x       y       z     vdW  Elec       q    Type
REMARK                         _______ _______ _______ _____ _____    ______ ____
ROOT
ATOM      1  C   UNL     1       2.116   4.788  21.142  0.00  0.00    +0.000 C 
ATOM      2  C   UNL     1       2.040   6.076  20.370  0.00  0.00    +0.000 A 
ATOM      3  C   UNL     1       1.300   7.103  20.806  0.00  0.00    +0.000 A 
ATOM      4  C   UNL     1       1.306   8.297  19.970  0.00  0.00    +0.000 A 
ATOM      5  N   UNL     1       0.664   9.404  20.192  0.00  0.00    +0.000 NA
ATOM      6  N   UNL     1       1.043  10.209  19.138  0.00  0.00    +0.000 N 
ATOM      7  C   UNL     1       1.914   9.526  18.276  0.00  0.00    +0.000 A 
ATOM      8  O   UNL     1       2.430   9.939  17.248  0.00  0.00    +0.000 OA
ATOM      9  N   UNL     1       2.050   8.272  18.850  0.00  0.00    +0.000 N 
ATOM     10  C   UNL     1       2.822   7.177  18.479  0.00  0.00    +0.000 A 
ATOM     11  N   UNL     1       3.586   7.247  17.332  0.00  0.00    +0.000 N 
ATOM     12  N   UNL     1       2.790   6.100  19.222  0.00  0.00    +0.000 NA
ATOM     13  H   UNL     1       3.453   8.041  16.711  0.00  0.00    +0.000 HD
ENDROOT
BRANCH  11  14
ATOM     14  C   UNL     1       4.708   6.440  17.053  0.00  0.00    +0.000 A 
ATOM     15  C   UNL     1       5.872   6.561  17.822  0.00  0.00    +0.000 A 
ATOM     16  C   UNL     1       7.030   5.855  17.474  0.00  0.00    +0.000 A 
ATOM     17  C   UNL     1       7.032   5.029  16.356  0.00  0.00    +0.000 A 
ATOM     18  F   UNL     1       8.160   4.387  16.025  0.00  0.00    +0.000 F 
ATOM     19  C   UNL     1       5.893   4.887  15.565  0.00  0.00    +0.000 A 
ATOM     20  C   UNL     1       5.875   4.037  14.335  0.00  0.00    +0.000 C 
ATOM     21  C   UNL     1       4.739   5.584  15.939  0.00  0.00    +0.000 A 
ENDBRANCH  11  14
BRANCH   6  22
ATOM     22  C   UNL     1       0.652  11.592  19.042  0.00  0.00    +0.000 C 
BRANCH  22  23
ATOM     23  C   UNL     1      -0.633  11.917  19.788  0.00  0.00    +0.000 C 
ATOM     24  O   UNL     1      -1.716  11.817  19.208  0.00  0.00    +0.000 OA
ATOM     25  N   UNL     1      -0.469  12.431  21.066  0.00  0.00    +0.000 N 
ATOM     26  H   UNL     1       0.430  12.871  21.235  0.00  0.00    +0.000 HD
BRANCH  25  27
ATOM     27  C   UNL     1      -1.573  12.831  21.849  0.00  0.00    +0.000 A 
ATOM     28  C   UNL     1      -2.193  14.063  21.598  0.00  0.00    +0.000 A 
ATOM     29  C   UNL     1      -3.220  14.523  22.419  0.00  0.00    +0.000 A 
ATOM     30  C   UNL     1      -3.638  13.751  23.496  0.00  0.00    +0.000 A 
ATOM     31  C   UNL     1      -3.053  12.504  23.730  0.00  0.00    +0.000 A 
ATOM     32  C   UNL     1      -2.025  12.020  22.903  0.00  0.00    +0.000 A 
ATOM     33  C   UNL     1      -1.364  10.715  23.244  0.00  0.00    +0.000 C 
ENDBRANCH  25  27
ENDBRANCH  22  23
ENDBRANCH   6  22
TORSDOF 4
ENDMDL
MODEL 8
REMARK VINA RESULT:      -7.8      2.260      3.296
REMARK  Name = 
REMARK  7 active torsions:
REMARK  status: ('A' for Active; 'I' for Inactive)
REMARK    1  A    between atoms: C_1  and  C_2
REMARK    2  A    between atoms: N_6  and  C_7
REMARK    3  A    between atoms: C_7  and  C_8
REMARK    4  A    between atoms: N_10  and  C_11
REMARK    5  A    between atoms: C_16  and  C_17
REMARK    6  A    between atoms: N_22  and  C_23
REMARK    7  A    between atoms: C_28  and  C_29
REMARK                            x       y       z     vdW  Elec       q    Type
REMARK                         _______ _______ _______ _____ _____    ______ ____
ROOT
ATOM      1  C   UNL     1       2.078   4.807  21.147  0.00  0.00    +0.000 C 
ATOM      2  C   UNL     1       2.000   6.114  20.409  0.00  0.00    +0.000 A 
ATOM      3  C   UNL     1       1.217   7.109  20.843  0.00  0.00    +0.000 A 
ATOM      4  C   UNL     1       1.225   8.327  20.042  0.00  0.00    +0.000 A 
ATOM      5  N   UNL     1       0.547   9.411  20.269  0.00  0.00    +0.000 NA
ATOM      6  N   UNL     1       0.945  10.254  19.253  0.00  0.00    +0.000 N 
ATOM      7  C   UNL     1       1.867   9.619  18.408  0.00  0.00    +0.000 A 
ATOM      8  O   UNL     1       2.411  10.074  17.413  0.00  0.00    +0.000 OA
ATOM      9  N   UNL     1       2.013   8.352  18.951  0.00  0.00    +0.000 N 
ATOM     10  C   UNL     1       2.826   7.288  18.582  0.00  0.00    +0.000 A 
ATOM     11  N   UNL     1       3.633   7.410  17.468  0.00  0.00    +0.000 N 
ATOM     12  N   UNL     1       2.793   6.189  19.293  0.00  0.00    +0.000 NA
ATOM     13  H   UNL     1       3.504   8.218  16.864  0.00  0.00    +0.000 HD
ENDROOT
BRANCH  11  14
ATOM     14  C   UNL     1       4.785   6.639  17.212  0.00  0.00    +0.000 A 
ATOM     15  C   UNL     1       4.844   5.815  16.081  0.00  0.00    +0.000 A 
ATOM     16  C   UNL     1       5.930   4.953  15.886  0.00  0.00    +0.000 A 
ATOM     17  C   UNL     1       6.959   4.907  16.820  0.00  0.00    +0.000 A 
ATOM     18  F   UNL     1       7.972   4.054  16.628  0.00  0.00    +0.000 F 
ATOM     19  C   UNL     1       6.932   5.710  17.959  0.00  0.00    +0.000 A 
ATOM     20  C   UNL     1       8.003   5.656  19.001  0.00  0.00    +0.000 C 
ATOM     21  C   UNL     1       5.850   6.580  18.128  0.00  0.00    +0.000 A 
ENDBRANCH  11  14
BRANCH   6  22
ATOM     22  C   UNL     1       0.523  11.630  19.180  0.00  0.00    +0.000 C 
BRANCH  22  23
ATOM     23  C   UNL     1      -0.672  11.949  20.065  0.00  0.00    +0.000 C 
ATOM     24  O   UNL     1      -1.808  11.922  19.588  0.00  0.00    +0.000 OA
ATOM     25  N   UNL     1      -0.368  12.377  21.349  0.00  0.00    +0.000 N 
ATOM     26  H   UNL     1       0.560  12.776  21.456  0.00  0.00    +0.000 HD
BRANCH  25  27
ATOM     27  C   UNL     1      -1.375  12.764  22.258  0.00  0.00    +0.000 A 
ATOM     28  C   UNL     1      -2.096  11.785  22.956  0.00  0.00    +0.000 A 
ATOM     29  C   UNL     1      -3.160  12.139  23.784  0.00  0.00    +0.000 A 
ATOM     30  C   UNL     1      -3.508  13.477  23.923  0.00  0.00    +0.000 A 
ATOM     31  C   UNL     1      -2.769  14.463  23.263  0.00  0.00    +0.000 A 
ATOM     32  C   UNL     1      -1.685  14.123  22.435  0.00  0.00    +0.000 A 
ATOM     33  C   UNL     1      -0.976  15.207  21.675  0.00  0.00    +0.000 C 
ENDBRANCH  25  27
ENDBRANCH  22  23
ENDBRANCH   6  22
TORSDOF 4
ENDMDL
MODEL 9
REMARK VINA RESULT:      -7.8      2.355      3.223
REMARK  Name = 
REMARK  7 active torsions:
REMARK  status: ('A' for Active; 'I' for Inactive)
REMARK    1  A    between atoms: C_1  and  C_2
REMARK    2  A    between atoms: N_6  and  C_7
REMARK    3  A    between atoms: C_7  and  C_8
REMARK    4  A    between atoms: N_10  and  C_11
REMARK    5  A    between atoms: C_16  and  C_17
REMARK    6  A    between atoms: N_22  and  C_23
REMARK    7  A    between atoms: C_28  and  C_29
REMARK                            x       y       z     vdW  Elec       q    Type
REMARK                         _______ _______ _______ _____ _____    ______ ____
ROOT
ATOM      1  C   UNL     1       1.985   4.528  21.215  0.00  0.00    +0.000 C 
ATOM      2  C   UNL     1       1.948   5.855  20.510  0.00  0.00    +0.000 A 
ATOM      3  C   UNL     1       1.241   6.881  20.999  0.00  0.00    +0.000 A 
ATOM      4  C   UNL     1       1.283   8.116  20.225  0.00  0.00    +0.000 A 
ATOM      5  N   UNL     1       0.676   9.229  20.505  0.00  0.00    +0.000 NA
ATOM      6  N   UNL     1       1.078  10.074  19.492  0.00  0.00    +0.000 N 
ATOM      7  C   UNL     1       1.927   9.410  18.595  0.00  0.00    +0.000 A 
ATOM      8  O   UNL     1       2.455   9.859  17.588  0.00  0.00    +0.000 OA
ATOM      9  N   UNL     1       2.025   8.125  19.103  0.00  0.00    +0.000 N 
ATOM     10  C   UNL     1       2.762   7.027  18.676  0.00  0.00    +0.000 A 
ATOM     11  N   UNL     1       3.528   7.132  17.531  0.00  0.00    +0.000 N 
ATOM     12  N   UNL     1       2.698   5.915  19.363  0.00  0.00    +0.000 NA
ATOM     13  H   UNL     1       3.419   7.960  16.952  0.00  0.00    +0.000 HD
ENDROOT
BRANCH  11  14
ATOM     14  C   UNL     1       4.624   6.306  17.209  0.00  0.00    +0.000 A 
ATOM     15  C   UNL     1       5.749   6.272  18.042  0.00  0.00    +0.000 A 
ATOM     16  C   UNL     1       6.890   5.553  17.666  0.00  0.00    +0.000 A 
ATOM     17  C   UNL     1       6.913   4.868  16.456  0.00  0.00    +0.000 A 
ATOM     18  F   UNL     1       8.026   4.213  16.103  0.00  0.00    +0.000 F 
ATOM     19  C   UNL     1       5.814   4.884  15.600  0.00  0.00    +0.000 A 
ATOM     20  C   UNL     1       5.822   4.190  14.275  0.00  0.00    +0.000 C 
ATOM     21  C   UNL     1       4.675   5.590  16.001  0.00  0.00    +0.000 A 
ENDBRANCH  11  14
BRANCH   6  22
ATOM     22  C   UNL     1       0.730  11.472  19.468  0.00  0.00    +0.000 C 
BRANCH  22  23
ATOM     23  C   UNL     1      -0.456  11.822  20.354  0.00  0.00    +0.000 C 
ATOM     24  O   UNL     1      -1.594  11.805  19.883  0.00  0.00    +0.000 OA
ATOM     25  N   UNL     1      -0.138  12.262  21.631  0.00  0.00    +0.000 N 
ATOM     26  H   UNL     1       0.796  12.648  21.728  0.00  0.00    +0.000 HD
BRANCH  25  27
ATOM     27  C   UNL     1      -1.135  12.677  22.539  0.00  0.00    +0.000 A 
ATOM     28  C   UNL     1      -2.129  11.773  22.942  0.00  0.00    +0.000 A 
ATOM     29  C   UNL     1      -3.178  12.186  23.760  0.00  0.00    +0.000 A 
ATOM     30  C   UNL     1      -3.239  13.508  24.186  0.00  0.00    +0.000 A 
ATOM     31  C   UNL     1      -2.231  14.405  23.823  0.00  0.00    +0.000 A 
ATOM     32  C   UNL     1      -1.159  14.000  23.009  0.00  0.00    +0.000 A 
ATOM     33  C   UNL     1      -0.147  15.019  22.571  0.00  0.00    +0.000 C 
ENDBRANCH  25  27
ENDBRANCH  22  23
ENDBRANCH   6  22
TORSDOF 4
ENDMDL
