MODEL 1
REMARK VINA RESULT:      -8.5      0.000      0.000
REMARK  Name = 
REMARK  4 active torsions:
REMARK  status: ('A' for Active; 'I' for Inactive)
REMARK    1  A    between atoms: C_1  and  C_2
REMARK    2  A    between atoms: C_5  and  C_6
REMARK    3  A    between atoms: C_6  and  N_7
REMARK    4  A    between atoms: C_11  and  C_12
REMARK                            x       y       z     vdW  Elec       q    Type
REMARK                         _______ _______ _______ _____ _____    ______ ____
ROOT
ATOM      1  N   UNL     1       6.545   6.103  17.948  0.00  0.00    +0.000 N 
ATOM      2  C   UNL     1       7.845   6.352  18.334  0.00  0.00    +0.000 A 
ATOM      3  C   UNL     1       7.976   5.764  19.565  0.00  0.00    +0.000 A 
ATOM      4  N   UNL     1       6.803   5.150  19.915  0.00  0.00    +0.000 NA
ATOM      5  C   UNL     1       5.962   5.348  18.940  0.00  0.00    +0.000 A 
ENDROOT
BRANCH   5   6
ATOM      6  C   UNL     1       4.625   4.845  18.954  0.00  0.00    +0.000 A 
ATOM      7  C   UNL     1       4.163   3.755  18.224  0.00  0.00    +0.000 A 
ATOM      8  C   UNL     1       2.827   3.535  18.591  0.00  0.00    +0.000 A 
ATOM      9  C   UNL     1       1.808   2.651  18.242  0.00  0.00    +0.000 A 
ATOM     10  C   UNL     1       0.891   2.334  19.238  0.00  0.00    +0.000 A 
ATOM     11  C   UNL     1       0.654   3.256  20.262  0.00  0.00    +0.000 A 
ATOM     12  C   UNL     1       1.398   4.436  20.350  0.00  0.00    +0.000 A 
ATOM     13  C   UNL     1       2.556   4.455  19.594  0.00  0.00    +0.000 A 
ATOM     14  O   UNL     1       3.598   5.327  19.727  0.00  0.00    +0.000 OA
ENDBRANCH   5   6
BRANCH   1  15
ATOM     15  C   UNL     1       5.943   6.609  16.740  0.00  0.00    +0.000 C 
BRANCH  15  20
ATOM     16  C   UNL     1       6.464   3.177  12.235  0.00  0.00    +0.000 C 
ATOM     17  C   UNL     1       6.334   4.049  13.426  0.00  0.00    +0.000 A 
ATOM     18  C   UNL     1       7.416   4.790  13.921  0.00  0.00    +0.000 A 
ATOM     19  N   UNL     1       7.324   5.620  14.969  0.00  0.00    +0.000 NA
ATOM     20  C   UNL     1       6.110   5.684  15.582  0.00  0.00    +0.000 A 
ATOM     21  C   UNL     1       5.029   4.942  15.101  0.00  0.00    +0.000 A 
ATOM     22  N   UNL     1       5.118   4.131  14.026  0.00  0.00    +0.000 NA
ENDBRANCH  15  20
ENDBRANCH   1  15
TORSDOF 3
ENDMDL
MODEL 2
REMARK VINA RESULT:      -8.4      0.741      1.285
REMARK  Name = 
REMARK  4 active torsions:
REMARK  status: ('A' for Active; 'I' for Inactive)
REMARK    1  A    between atoms: C_1  and  C_2
REMARK    2  A    between atoms: C_5  and  C_6
REMARK    3  A    between atoms: C_6  and  N_7
REMARK    4  A    between atoms: C_11  and  C_12
REMARK                            x       y       z     vdW  Elec       q    Type
REMARK                         _______ _______ _______ _____ _____    ______ ____
ROOT
ATOM      1  N   UNL     1       6.465   6.055  17.990  0.00  0.00    +0.000 N 
ATOM      2  C   UNL     1       7.754   6.503  18.188  0.00  0.00    +0.000 A 
ATOM      3  C   UNL     1       8.125   6.011  19.412  0.00  0.00    +0.000 A 
ATOM      4  N   UNL     1       7.107   5.261  19.940  0.00  0.00    +0.000 NA
ATOM      5  C   UNL     1       6.129   5.285  19.080  0.00  0.00    +0.000 A 
ENDROOT
BRANCH   5   6
ATOM      6  C   UNL     1       4.892   4.603  19.295  0.00  0.00    +0.000 A 
ATOM      7  C   UNL     1       3.722   5.182  19.773  0.00  0.00    +0.000 A 
ATOM      8  C   UNL     1       2.721   4.198  19.748  0.00  0.00    +0.000 A 
ATOM      9  C   UNL     1       1.374   4.107  20.095  0.00  0.00    +0.000 A 
ATOM     10  C   UNL     1       0.599   3.227  19.348  0.00  0.00    +0.000 A 
ATOM     11  C   UNL     1       1.211   2.123  18.748  0.00  0.00    +0.000 A 
ATOM     12  C   UNL     1       2.597   1.953  18.804  0.00  0.00    +0.000 A 
ATOM     13  C   UNL     1       3.310   3.079  19.176  0.00  0.00    +0.000 A 
ATOM     14  O   UNL     1       4.650   3.280  19.018  0.00  0.00    +0.000 OA
ENDBRANCH   5   6
BRANCH   1  15
ATOM     15  C   UNL     1       5.647   6.402  16.856  0.00  0.00    +0.000 C 
BRANCH  15  20
ATOM     16  C   UNL     1       6.578   3.240  12.222  0.00  0.00    +0.000 C 
ATOM     17  C   UNL     1       6.344   4.042  13.446  0.00  0.00    +0.000 A 
ATOM     18  C   UNL     1       7.328   4.888  13.974  0.00  0.00    +0.000 A 
ATOM     19  N   UNL     1       7.137   5.659  15.053  0.00  0.00    +0.000 NA
ATOM     20  C   UNL     1       5.924   5.551  15.664  0.00  0.00    +0.000 A 
ATOM     21  C   UNL     1       4.941   4.703  15.149  0.00  0.00    +0.000 A 
ATOM     22  N   UNL     1       5.127   3.952  14.043  0.00  0.00    +0.000 NA
ENDBRANCH  15  20
ENDBRANCH   1  15
TORSDOF 3
ENDMDL
MODEL 3
REMARK VINA RESULT:      -8.2      3.052      4.293
REMARK  Name = 
REMARK  4 active torsions:
REMARK  status: ('A' for Active; 'I' for Inactive)
REMARK    1  A    between atoms: C_1  and  C_2
REMARK    2  A    between atoms: C_5  and  C_6
REMARK    3  A    between atoms: C_6  and  N_7
REMARK    4  A    between atoms: C_11  and  C_12
REMARK                            x       y       z     vdW  Elec       q    Type
REMARK                         _______ _______ _______ _____ _____    ______ ____
ROOT
ATOM      1  N   UNL     1       4.027   3.793  19.194  0.00  0.00    +0.000 N 
ATOM      2  C   UNL     1       3.807   2.433  19.263  0.00  0.00    +0.000 A 
ATOM      3  C   UNL     1       2.456   2.294  19.452  0.00  0.00    +0.000 A 
ATOM      4  N   UNL     1       1.859   3.527  19.472  0.00  0.00    +0.000 NA
ATOM      5  C   UNL     1       2.802   4.411  19.307  0.00  0.00    +0.000 A 
ENDROOT
BRANCH   5   6
ATOM      6  C   UNL     1       2.549   5.817  19.271  0.00  0.00    +0.000 A 
ATOM      7  C   UNL     1       2.632   6.625  18.142  0.00  0.00    +0.000 A 
ATOM      8  C   UNL     1       2.219   7.914  18.513  0.00  0.00    +0.000 A 
ATOM      9  C   UNL     1       2.084   9.156  17.895  0.00  0.00    +0.000 A 
ATOM     10  C   UNL     1       1.075   9.982  18.376  0.00  0.00    +0.000 A 
ATOM     11  C   UNL     1       0.662   9.848  19.706  0.00  0.00    +0.000 A 
ATOM     12  C   UNL     1       1.176   8.831  20.516  0.00  0.00    +0.000 A 
ATOM     13  C   UNL     1       1.825   7.815  19.839  0.00  0.00    +0.000 A 
ATOM     14  O   UNL     1       2.140   6.582  20.334  0.00  0.00    +0.000 OA
ENDBRANCH   5   6
BRANCH   1  15
ATOM     15  C   UNL     1       5.328   4.402  19.078  0.00  0.00    +0.000 C 
BRANCH  15  20
ATOM     16  C   UNL     1       7.172   4.705  13.707  0.00  0.00    +0.000 C 
ATOM     17  C   UNL     1       6.688   4.655  15.107  0.00  0.00    +0.000 A 
ATOM     18  C   UNL     1       5.340   4.423  15.414  0.00  0.00    +0.000 A 
ATOM     19  N   UNL     1       4.875   4.329  16.667  0.00  0.00    +0.000 NA
ATOM     20  C   UNL     1       5.784   4.519  17.663  0.00  0.00    +0.000 A 
ATOM     21  C   UNL     1       7.127   4.759  17.366  0.00  0.00    +0.000 A 
ATOM     22  N   UNL     1       7.597   4.821  16.102  0.00  0.00    +0.000 NA
ENDBRANCH  15  20
ENDBRANCH   1  15
TORSDOF 3
ENDMDL
MODEL 4
REMARK VINA RESULT:      -7.8      3.097      4.445
REMARK  Name = 
REMARK  4 active torsions:
REMARK  status: ('A' for Active; 'I' for Inactive)
REMARK    1  A    between atoms: C_1  and  C_2
REMARK    2  A    between atoms: C_5  and  C_6
REMARK    3  A    between atoms: C_6  and  N_7
REMARK    4  A    between atoms: C_11  and  C_12
REMARK                            x       y       z     vdW  Elec       q    Type
REMARK                         _______ _______ _______ _____ _____    ______ ____
ROOT
ATOM      1  N   UNL     1       3.582   3.637  19.480  0.00  0.00    +0.000 N 
ATOM      2  C   UNL     1       3.235   2.304  19.540  0.00  0.00    +0.000 A 
ATOM      3  C   UNL     1       1.866   2.288  19.595  0.00  0.00    +0.000 A 
ATOM      4  N   UNL     1       1.383   3.569  19.545  0.00  0.00    +0.000 NA
ATOM      5  C   UNL     1       2.413   4.363  19.465  0.00  0.00    +0.000 A 
ENDROOT
BRANCH   5   6
ATOM      6  C   UNL     1       2.292   5.785  19.391  0.00  0.00    +0.000 A 
ATOM      7  C   UNL     1       2.475   6.553  18.247  0.00  0.00    +0.000 A 
ATOM      8  C   UNL     1       2.175   7.883  18.578  0.00  0.00    +0.000 A 
ATOM      9  C   UNL     1       2.170   9.117  17.929  0.00  0.00    +0.000 A 
ATOM     10  C   UNL     1       1.230  10.044  18.366  0.00  0.00    +0.000 A 
ATOM     11  C   UNL     1       0.777   9.981  19.687  0.00  0.00    +0.000 A 
ATOM     12  C   UNL     1       1.175   8.943  20.533  0.00  0.00    +0.000 A 
ATOM     13  C   UNL     1       1.743   7.854  19.896  0.00  0.00    +0.000 A 
ATOM     14  O   UNL     1       1.931   6.611  20.426  0.00  0.00    +0.000 OA
ENDBRANCH   5   6
BRANCH   1  15
ATOM     15  C   UNL     1       4.938   4.127  19.488  0.00  0.00    +0.000 C 
BRANCH  15  20
ATOM     16  C   UNL     1       7.062   4.634  14.237  0.00  0.00    +0.000 C 
ATOM     17  C   UNL     1       6.514   4.474  15.604  0.00  0.00    +0.000 A 
ATOM     18  C   UNL     1       7.316   4.619  16.744  0.00  0.00    +0.000 A 
ATOM     19  N   UNL     1       6.845   4.522  17.995  0.00  0.00    +0.000 NA
ATOM     20  C   UNL     1       5.522   4.223  18.119  0.00  0.00    +0.000 A 
ATOM     21  C   UNL     1       4.718   4.068  16.988  0.00  0.00    +0.000 A 
ATOM     22  N   UNL     1       5.190   4.198  15.730  0.00  0.00    +0.000 NA
ENDBRANCH  15  20
ENDBRANCH   1  15
TORSDOF 3
ENDMDL
MODEL 5
REMARK VINA RESULT:      -7.7      0.923      1.642
REMARK  Name = 
REMARK  4 active torsions:
REMARK  status: ('A' for Active; 'I' for Inactive)
REMARK    1  A    between atoms: C_1  and  C_2
REMARK    2  A    between atoms: C_5  and  C_6
REMARK    3  A    between atoms: C_6  and  N_7
REMARK    4  A    between atoms: C_11  and  C_12
REMARK                            x       y       z     vdW  Elec       q    Type
REMARK                         _______ _______ _______ _____ _____    ______ ____
ROOT
ATOM      1  N   UNL     1       6.370   6.052  17.965  0.00  0.00    +0.000 N 
ATOM      2  C   UNL     1       7.663   6.504  18.133  0.00  0.00    +0.000 A 
ATOM      3  C   UNL     1       8.070   5.994  19.338  0.00  0.00    +0.000 A 
ATOM      4  N   UNL     1       7.071   5.230  19.883  0.00  0.00    +0.000 NA
ATOM      5  C   UNL     1       6.069   5.263  19.051  0.00  0.00    +0.000 A 
ENDROOT
BRANCH   5   6
ATOM      6  C   UNL     1       4.841   4.571  19.289  0.00  0.00    +0.000 A 
ATOM      7  C   UNL     1       3.707   5.117  19.880  0.00  0.00    +0.000 A 
ATOM      8  C   UNL     1       2.699   4.141  19.842  0.00  0.00    +0.000 A 
ATOM      9  C   UNL     1       1.375   4.030  20.262  0.00  0.00    +0.000 A 
ATOM     10  C   UNL     1       0.548   3.212  19.500  0.00  0.00    +0.000 A 
ATOM     11  C   UNL     1       1.113   2.154  18.782  0.00  0.00    +0.000 A 
ATOM     12  C   UNL     1       2.499   1.975  18.741  0.00  0.00    +0.000 A 
ATOM     13  C   UNL     1       3.242   3.067  19.153  0.00  0.00    +0.000 A 
ATOM     14  O   UNL     1       4.572   3.275  18.928  0.00  0.00    +0.000 OA
ENDBRANCH   5   6
BRANCH   1  15
ATOM     15  C   UNL     1       5.519   6.414  16.859  0.00  0.00    +0.000 C 
BRANCH  15  20
ATOM     16  C   UNL     1       6.666   3.238  12.284  0.00  0.00    +0.000 C 
ATOM     17  C   UNL     1       6.354   4.084  13.459  0.00  0.00    +0.000 A 
ATOM     18  C   UNL     1       5.206   3.875  14.236  0.00  0.00    +0.000 A 
ATOM     19  N   UNL     1       4.914   4.594  15.329  0.00  0.00    +0.000 NA
ATOM     20  C   UNL     1       5.781   5.597  15.640  0.00  0.00    +0.000 A 
ATOM     21  C   UNL     1       6.922   5.817  14.866  0.00  0.00    +0.000 A 
ATOM     22  N   UNL     1       7.229   5.071  13.784  0.00  0.00    +0.000 NA
ENDBRANCH  15  20
ENDBRANCH   1  15
TORSDOF 3
ENDMDL
MODEL 6
REMARK VINA RESULT:      -7.7      3.228      4.214
REMARK  Name = 
REMARK  4 active torsions:
REMARK  status: ('A' for Active; 'I' for Inactive)
REMARK    1  A    between atoms: C_1  and  C_2
REMARK    2  A    between atoms: C_5  and  C_6
REMARK    3  A    between atoms: C_6  and  N_7
REMARK    4  A    between atoms: C_11  and  C_12
REMARK                            x       y       z     vdW  Elec       q    Type
REMARK                         _______ _______ _______ _____ _____    ______ ____
ROOT
ATOM      1  N   UNL     1       4.277   4.699  19.313  0.00  0.00    +0.000 N 
ATOM      2  C   UNL     1       4.290   3.332  19.497  0.00  0.00    +0.000 A 
ATOM      3  C   UNL     1       3.020   3.009  19.898  0.00  0.00    +0.000 A 
ATOM      4  N   UNL     1       2.242   4.136  19.934  0.00  0.00    +0.000 NA
ATOM      5  C   UNL     1       2.998   5.134  19.573  0.00  0.00    +0.000 A 
ENDROOT
BRANCH   5   6
ATOM      6  C   UNL     1       2.520   6.478  19.491  0.00  0.00    +0.000 A 
ATOM      7  C   UNL     1       2.464   7.247  18.334  0.00  0.00    +0.000 A 
ATOM      8  C   UNL     1       1.850   8.465  18.665  0.00  0.00    +0.000 A 
ATOM      9  C   UNL     1       1.512   9.645  18.006  0.00  0.00    +0.000 A 
ATOM     10  C   UNL     1       0.385  10.315  18.470  0.00  0.00    +0.000 A 
ATOM     11  C   UNL     1       0.008  10.164  19.808  0.00  0.00    +0.000 A 
ATOM     12  C   UNL     1       0.685   9.274  20.648  0.00  0.00    +0.000 A 
ATOM     13  C   UNL     1       1.485   8.352  19.999  0.00  0.00    +0.000 A 
ATOM     14  O   UNL     1       1.999   7.206  20.532  0.00  0.00    +0.000 OA
ENDBRANCH   5   6
BRANCH   1  15
ATOM     15  C   UNL     1       5.434   5.484  18.963  0.00  0.00    +0.000 C 
BRANCH  15  20
ATOM     16  C   UNL     1       7.107   4.879  13.562  0.00  0.00    +0.000 C 
ATOM     17  C   UNL     1       6.652   5.016  14.965  0.00  0.00    +0.000 A 
ATOM     18  C   UNL     1       7.274   4.325  16.014  0.00  0.00    +0.000 A 
ATOM     19  N   UNL     1       6.916   4.457  17.298  0.00  0.00    +0.000 NA
ATOM     20  C   UNL     1       5.861   5.281  17.549  0.00  0.00    +0.000 A 
ATOM     21  C   UNL     1       5.230   5.965  16.508  0.00  0.00    +0.000 A 
ATOM     22  N   UNL     1       5.614   5.854  15.219  0.00  0.00    +0.000 NA
ENDBRANCH  15  20
ENDBRANCH   1  15
TORSDOF 3
ENDMDL
MODEL 7
REMARK VINA RESULT:      -7.6      3.102      4.362
REMARK  Name = 
REMARK  4 active torsions:
REMARK  status: ('A' for Active; 'I' for Inactive)
REMARK    1  A    between atoms: C_1  and  C_2
REMARK    2  A    between atoms: C_5  and  C_6
REMARK    3  A    between atoms: C_6  and  N_7
REMARK    4  A    between atoms: C_11  and  C_12
REMARK                            x       y       z     vdW  Elec       q    Type
REMARK                         _______ _______ _______ _____ _____    ______ ____
ROOT
ATOM      1  N   UNL     1       4.442   4.596  19.375  0.00  0.00    +0.000 N 
ATOM      2  C   UNL     1       4.602   3.246  19.605  0.00  0.00    +0.000 A 
ATOM      3  C   UNL     1       3.364   2.794  19.981  0.00  0.00    +0.000 A 
ATOM      4  N   UNL     1       2.464   3.826  19.957  0.00  0.00    +0.000 NA
ATOM      5  C   UNL     1       3.115   4.892  19.584  0.00  0.00    +0.000 A 
ENDROOT
BRANCH   5   6
ATOM      6  C   UNL     1       2.492   6.170  19.443  0.00  0.00    +0.000 A 
ATOM      7  C   UNL     1       1.921   6.909  20.473  0.00  0.00    +0.000 A 
ATOM      8  C   UNL     1       1.508   8.137  19.934  0.00  0.00    +0.000 A 
ATOM      9  C   UNL     1       0.871   9.288  20.396  0.00  0.00    +0.000 A 
ATOM     10  C   UNL     1       1.216  10.482  19.770  0.00  0.00    +0.000 A 
ATOM     11  C   UNL     1       1.665  10.450  18.447  0.00  0.00    +0.000 A 
ATOM     12  C   UNL     1       1.868   9.235  17.787  0.00  0.00    +0.000 A 
ATOM     13  C   UNL     1       1.921   8.125  18.610  0.00  0.00    +0.000 A 
ATOM     14  O   UNL     1       2.403   6.891  18.279  0.00  0.00    +0.000 OA
ENDBRANCH   5   6
BRANCH   1  15
ATOM     15  C   UNL     1       5.514   5.496  19.031  0.00  0.00    +0.000 C 
BRANCH  15  20
ATOM     16  C   UNL     1       7.243   4.729  13.668  0.00  0.00    +0.000 C 
ATOM     17  C   UNL     1       6.805   4.955  15.065  0.00  0.00    +0.000 A 
ATOM     18  C   UNL     1       5.547   5.495  15.367  0.00  0.00    +0.000 A 
ATOM     19  N   UNL     1       5.102   5.673  16.618  0.00  0.00    +0.000 NA
ATOM     20  C   UNL     1       5.965   5.341  17.618  0.00  0.00    +0.000 A 
ATOM     21  C   UNL     1       7.223   4.810  17.326  0.00  0.00    +0.000 A 
ATOM     22  N   UNL     1       7.655   4.602  16.064  0.00  0.00    +0.000 NA
ENDBRANCH  15  20
ENDBRANCH   1  15
TORSDOF 3
ENDMDL
MODEL 8
REMARK VINA RESULT:      -7.6      0.589      1.021
REMARK  Name = 
REMARK  4 active torsions:
REMARK  status: ('A' for Active; 'I' for Inactive)
REMARK    1  A    between atoms: C_1  and  C_2
REMARK    2  A    between atoms: C_5  and  C_6
REMARK    3  A    between atoms: C_6  and  N_7
REMARK    4  A    between atoms: C_11  and  C_12
REMARK                            x       y       z     vdW  Elec       q    Type
REMARK                         _______ _______ _______ _____ _____    ______ ____
ROOT
ATOM      1  N   UNL     1       6.463   6.119  17.912  0.00  0.00    +0.000 N 
ATOM      2  C   UNL     1       7.772   6.371  18.263  0.00  0.00    +0.000 A 
ATOM      3  C   UNL     1       7.949   5.749  19.472  0.00  0.00    +0.000 A 
ATOM      4  N   UNL     1       6.794   5.112  19.841  0.00  0.00    +0.000 NA
ATOM      5  C   UNL     1       5.920   5.329  18.899  0.00  0.00    +0.000 A 
ENDROOT
BRANCH   5   6
ATOM      6  C   UNL     1       4.589   4.811  18.942  0.00  0.00    +0.000 A 
ATOM      7  C   UNL     1       4.143   3.674  18.279  0.00  0.00    +0.000 A 
ATOM      8  C   UNL     1       2.808   3.460  18.656  0.00  0.00    +0.000 A 
ATOM      9  C   UNL     1       1.801   2.543  18.359  0.00  0.00    +0.000 A 
ATOM     10  C   UNL     1       0.885   2.276  19.371  0.00  0.00    +0.000 A 
ATOM     11  C   UNL     1       0.634   3.256  20.336  0.00  0.00    +0.000 A 
ATOM     12  C   UNL     1       1.363   4.449  20.353  0.00  0.00    +0.000 A 
ATOM     13  C   UNL     1       2.523   4.436  19.599  0.00  0.00    +0.000 A 
ATOM     14  O   UNL     1       3.554   5.327  19.681  0.00  0.00    +0.000 OA
ENDBRANCH   5   6
BRANCH   1  15
ATOM     15  C   UNL     1       5.818   6.653  16.739  0.00  0.00    +0.000 C 
BRANCH  15  20
ATOM     16  C   UNL     1       6.556   3.224  12.263  0.00  0.00    +0.000 C 
ATOM     17  C   UNL     1       6.353   4.138  13.412  0.00  0.00    +0.000 A 
ATOM     18  C   UNL     1       5.189   4.096  14.191  0.00  0.00    +0.000 A 
ATOM     19  N   UNL     1       4.989   4.877  15.261  0.00  0.00    +0.000 NA
ATOM     20  C   UNL     1       5.975   5.774  15.545  0.00  0.00    +0.000 A 
ATOM     21  C   UNL     1       7.134   5.828  14.768  0.00  0.00    +0.000 A 
ATOM     22  N   UNL     1       7.344   5.017  13.710  0.00  0.00    +0.000 NA
ENDBRANCH  15  20
ENDBRANCH   1  15
TORSDOF 3
ENDMDL
MODEL 9
REMARK VINA RESULT:      -7.5      1.632      4.135
REMARK  Name = 
REMARK  4 active torsions:
REMARK  status: ('A' for Active; 'I' for Inactive)
REMARK    1  A    between atoms: C_1  and  C_2
REMARK    2  A    between atoms: C_5  and  C_6
REMARK    3  A    between atoms: C_6  and  N_7
REMARK    4  A    between atoms: C_11  and  C_12
REMARK                            x       y       z     vdW  Elec       q    Type
REMARK                         _______ _______ _______ _____ _____    ______ ____
ROOT
ATOM      1  N   UNL     1       6.292   4.473  16.322  0.00  0.00    +0.000 N 
ATOM      2  C   UNL     1       6.977   4.412  15.126  0.00  0.00    +0.000 A 
ATOM      3  C   UNL     1       6.023   4.160  14.175  0.00  0.00    +0.000 A 
ATOM      4  N   UNL     1       4.787   4.094  14.761  0.00  0.00    +0.000 NA
ATOM      5  C   UNL     1       4.957   4.293  16.037  0.00  0.00    +0.000 A 
ENDROOT
BRANCH   5   6
ATOM      6  C   UNL     1       3.877   4.297  16.972  0.00  0.00    +0.000 A 
ATOM      7  C   UNL     1       3.045   3.219  17.251  0.00  0.00    +0.000 A 
ATOM      8  C   UNL     1       2.181   3.608  18.287  0.00  0.00    +0.000 A 
ATOM      9  C   UNL     1       1.132   3.037  19.004  0.00  0.00    +0.000 A 
ATOM     10  C   UNL     1       0.977   3.459  20.320  0.00  0.00    +0.000 A 
ATOM     11  C   UNL     1       1.417   4.736  20.681  0.00  0.00    +0.000 A 
ATOM     12  C   UNL     1       2.098   5.544  19.766  0.00  0.00    +0.000 A 
ATOM     13  C   UNL     1       2.582   4.885  18.650  0.00  0.00    +0.000 A 
ATOM     14  O   UNL     1       3.521   5.351  17.776  0.00  0.00    +0.000 OA
ENDBRANCH   5   6
BRANCH   1  15
ATOM     15  C   UNL     1       6.915   4.644  17.610  0.00  0.00    +0.000 C 
BRANCH  15  20
ATOM     16  C   UNL     1       8.793   9.936  18.509  0.00  0.00    +0.000 C 
ATOM     17  C   UNL     1       8.281   8.563  18.291  0.00  0.00    +0.000 A 
ATOM     18  C   UNL     1       7.473   8.241  17.192  0.00  0.00    +0.000 A 
ATOM     19  N   UNL     1       7.027   7.003  16.942  0.00  0.00    +0.000 NA
ATOM     20  C   UNL     1       7.364   6.046  17.850  0.00  0.00    +0.000 A 
ATOM     21  C   UNL     1       8.161   6.359  18.953  0.00  0.00    +0.000 A 
ATOM     22  N   UNL     1       8.635   7.602  19.184  0.00  0.00    +0.000 NA
ENDBRANCH  15  20
ENDBRANCH   1  15
TORSDOF 3
ENDMDL
