MODEL 1
REMARK VINA RESULT:      -8.1      0.000      0.000
REMARK  Name = 
REMARK  7 active torsions:
REMARK  status: ('A' for Active; 'I' for Inactive)
REMARK    1  A    between atoms: C_1  and  C_2
REMARK    2  A    between atoms: C_5  and  N_6
REMARK    3  A    between atoms: N_6  and  S_7
REMARK    4  A    between atoms: S_7  and  C_10
REMARK    5  A    between atoms: N_16  and  C_17
REMARK    6  A    between atoms: N_20  and  C_21
REMARK    7  A    between atoms: C_23  and  C_24
REMARK                            x       y       z     vdW  Elec       q    Type
REMARK                         _______ _______ _______ _____ _____    ______ ____
ROOT
ATOM      1  S   UNL     1       1.823   4.541  20.661  0.00  0.00    +0.000 S 
ATOM      2  O   UNL     1       2.166   3.565  21.675  0.00  0.00    +0.000 OA
ATOM      3  O   UNL     1       0.487   4.606  20.110  0.00  0.00    +0.000 OA
ENDROOT
BRANCH   1   4
ATOM      4  C   UNL     1       2.966   4.319  19.309  0.00  0.00    +0.000 A 
ATOM      5  C   UNL     1       2.508   3.797  18.077  0.00  0.00    +0.000 A 
ATOM      6  C   UNL     1       3.383   3.664  16.990  0.00  0.00    +0.000 A 
ATOM      7  C   UNL     1       4.690   4.071  17.176  0.00  0.00    +0.000 A 
ATOM      8  C   UNL     1       5.132   4.604  18.394  0.00  0.00    +0.000 A 
ATOM      9  C   UNL     1       4.290   4.746  19.475  0.00  0.00    +0.000 A 
ATOM     10  N   UNL     1       6.487   4.925  18.250  0.00  0.00    +0.000 N 
ATOM     11  C   UNL     1       7.346   5.494  19.245  0.00  0.00    +0.000 C 
ATOM     12  C   UNL     1       6.910   4.588  16.946  0.00  0.00    +0.000 A 
ATOM     13  O   UNL     1       8.030   4.721  16.485  0.00  0.00    +0.000 OA
ATOM     14  N   UNL     1       5.776   4.060  16.291  0.00  0.00    +0.000 N 
ATOM     15  C   UNL     1       5.755   3.578  14.940  0.00  0.00    +0.000 C 
ENDBRANCH   1   4
BRANCH   1  16
ATOM     16  N   UNL     1       2.246   6.032  21.287  0.00  0.00    +0.000 N 
ATOM     17  H   UNL     1       2.926   6.051  22.044  0.00  0.00    +0.000 HD
BRANCH  16  22
ATOM     18  C   UNL     1      -0.135  10.840  19.296  0.00  0.00    +0.000 C 
ATOM     19  C   UNL     1       0.513   9.575  19.790  0.00  0.00    +0.000 A 
ATOM     20  C   UNL     1       0.138   9.057  21.039  0.00  0.00    +0.000 A 
ATOM     21  C   UNL     1       0.715   7.886  21.531  0.00  0.00    +0.000 A 
ATOM     22  C   UNL     1       1.688   7.231  20.787  0.00  0.00    +0.000 A 
ATOM     23  C   UNL     1       2.065   7.721  19.536  0.00  0.00    +0.000 A 
ATOM     24  C   UNL     1       1.487   8.899  19.027  0.00  0.00    +0.000 A 
ATOM     25  C   UNL     1       1.925   9.423  17.685  0.00  0.00    +0.000 C 
ENDBRANCH  16  22
ENDBRANCH   1  16
TORSDOF 3
ENDMDL
MODEL 2
REMARK VINA RESULT:      -8.0      0.457      1.374
REMARK  Name = 
REMARK  7 active torsions:
REMARK  status: ('A' for Active; 'I' for Inactive)
REMARK    1  A    between atoms: C_1  and  C_2
REMARK    2  A    between atoms: C_5  and  N_6
REMARK    3  A    between atoms: N_6  and  S_7
REMARK    4  A    between atoms: S_7  and  C_10
REMARK    5  A    between atoms: N_16  and  C_17
REMARK    6  A    between atoms: N_20  and  C_21
REMARK    7  A    between atoms: C_23  and  C_24
REMARK                            x       y       z     vdW  Elec       q    Type
REMARK                         _______ _______ _______ _____ _____    ______ ____
ROOT
ATOM      1  S   UNL     1       1.923   4.395  20.629  0.00  0.00    +0.000 S 
ATOM      2  O   UNL     1       2.351   3.449  21.640  0.00  0.00    +0.000 OA
ATOM      3  O   UNL     1       0.567   4.385  20.125  0.00  0.00    +0.000 OA
ENDROOT
BRANCH   1   4
ATOM      4  C   UNL     1       3.028   4.215  19.239  0.00  0.00    +0.000 A 
ATOM      5  C   UNL     1       2.532   3.744  18.001  0.00  0.00    +0.000 A 
ATOM      6  C   UNL     1       3.377   3.646  16.887  0.00  0.00    +0.000 A 
ATOM      7  C   UNL     1       4.692   4.034  17.053  0.00  0.00    +0.000 A 
ATOM      8  C   UNL     1       5.171   4.517  18.278  0.00  0.00    +0.000 A 
ATOM      9  C   UNL     1       4.360   4.624  19.386  0.00  0.00    +0.000 A 
ATOM     10  N   UNL     1       6.525   4.832  18.111  0.00  0.00    +0.000 N 
ATOM     11  C   UNL     1       7.415   5.356  19.103  0.00  0.00    +0.000 C 
ATOM     12  C   UNL     1       6.910   4.542  16.784  0.00  0.00    +0.000 A 
ATOM     13  O   UNL     1       8.019   4.684  16.299  0.00  0.00    +0.000 OA
ATOM     14  N   UNL     1       5.754   4.049  16.139  0.00  0.00    +0.000 N 
ATOM     15  C   UNL     1       5.694   3.619  14.773  0.00  0.00    +0.000 C 
ENDBRANCH   1   4
BRANCH   1  16
ATOM     16  N   UNL     1       2.290   5.912  21.224  0.00  0.00    +0.000 N 
ATOM     17  H   UNL     1       2.856   5.965  22.068  0.00  0.00    +0.000 HD
BRANCH  16  22
ATOM     18  C   UNL     1       0.588  10.698  18.588  0.00  0.00    +0.000 C 
ATOM     19  C   UNL     1       1.014   9.448  19.309  0.00  0.00    +0.000 A 
ATOM     20  C   UNL     1       1.860   8.537  18.658  0.00  0.00    +0.000 A 
ATOM     21  C   UNL     1       2.278   7.368  19.295  0.00  0.00    +0.000 A 
ATOM     22  C   UNL     1       1.839   7.088  20.583  0.00  0.00    +0.000 A 
ATOM     23  C   UNL     1       1.010   7.989  21.253  0.00  0.00    +0.000 A 
ATOM     24  C   UNL     1       0.584   9.173  20.624  0.00  0.00    +0.000 A 
ATOM     25  C   UNL     1      -0.328  10.119  21.358  0.00  0.00    +0.000 C 
ENDBRANCH  16  22
ENDBRANCH   1  16
TORSDOF 3
ENDMDL
MODEL 3
REMARK VINA RESULT:      -7.9      2.784      4.232
REMARK  Name = 
REMARK  7 active torsions:
REMARK  status: ('A' for Active; 'I' for Inactive)
REMARK    1  A    between atoms: C_1  and  C_2
REMARK    2  A    between atoms: C_5  and  N_6
REMARK    3  A    between atoms: N_6  and  S_7
REMARK    4  A    between atoms: S_7  and  C_10
REMARK    5  A    between atoms: N_16  and  C_17
REMARK    6  A    between atoms: N_20  and  C_21
REMARK    7  A    between atoms: C_23  and  C_24
REMARK                            x       y       z     vdW  Elec       q    Type
REMARK                         _______ _______ _______ _____ _____    ______ ____
ROOT
ATOM      1  S   UNL     1       0.891   8.870  21.188  0.00  0.00    +0.000 S 
ATOM      2  O   UNL     1       1.834   9.249  22.221  0.00  0.00    +0.000 OA
ATOM      3  O   UNL     1      -0.458   8.467  21.520  0.00  0.00    +0.000 OA
ENDROOT
BRANCH   1   4
ATOM      4  C   UNL     1       1.643   7.555  20.246  0.00  0.00    +0.000 A 
ATOM      5  C   UNL     1       2.209   7.829  18.979  0.00  0.00    +0.000 A 
ATOM      6  C   UNL     1       2.848   6.817  18.250  0.00  0.00    +0.000 A 
ATOM      7  C   UNL     1       2.906   5.562  18.825  0.00  0.00    +0.000 A 
ATOM      8  C   UNL     1       2.359   5.302  20.089  0.00  0.00    +0.000 A 
ATOM      9  C   UNL     1       1.728   6.281  20.825  0.00  0.00    +0.000 A 
ATOM     10  N   UNL     1       2.593   3.954  20.385  0.00  0.00    +0.000 N 
ATOM     11  C   UNL     1       2.205   3.255  21.572  0.00  0.00    +0.000 C 
ATOM     12  C   UNL     1       3.279   3.354  19.307  0.00  0.00    +0.000 A 
ATOM     13  O   UNL     1       3.631   2.189  19.225  0.00  0.00    +0.000 OA
ATOM     14  N   UNL     1       3.469   4.372  18.347  0.00  0.00    +0.000 N 
ATOM     15  C   UNL     1       4.119   4.198  17.081  0.00  0.00    +0.000 C 
ENDBRANCH   1   4
BRANCH   1  16
ATOM     16  N   UNL     1       0.846  10.145  20.108  0.00  0.00    +0.000 N 
ATOM     17  H   UNL     1       1.723  10.615  19.894  0.00  0.00    +0.000 HD
BRANCH  16  22
ATOM     18  C   UNL     1      -4.107  11.822  17.783  0.00  0.00    +0.000 C 
ATOM     19  C   UNL     1      -2.798  11.361  18.364  0.00  0.00    +0.000 A 
ATOM     20  C   UNL     1      -2.358  11.910  19.578  0.00  0.00    +0.000 A 
ATOM     21  C   UNL     1      -1.151  11.506  20.150  0.00  0.00    +0.000 A 
ATOM     22  C   UNL     1      -0.363  10.562  19.504  0.00  0.00    +0.000 A 
ATOM     23  C   UNL     1      -0.790   9.993  18.304  0.00  0.00    +0.000 A 
ATOM     24  C   UNL     1      -2.006  10.389  17.719  0.00  0.00    +0.000 A 
ATOM     25  C   UNL     1      -2.438   9.778  16.412  0.00  0.00    +0.000 C 
ENDBRANCH  16  22
ENDBRANCH   1  16
TORSDOF 3
ENDMDL
MODEL 4
REMARK VINA RESULT:      -7.8      3.026      7.001
REMARK  Name = 
REMARK  7 active torsions:
REMARK  status: ('A' for Active; 'I' for Inactive)
REMARK    1  A    between atoms: C_1  and  C_2
REMARK    2  A    between atoms: C_5  and  N_6
REMARK    3  A    between atoms: N_6  and  S_7
REMARK    4  A    between atoms: S_7  and  C_10
REMARK    5  A    between atoms: N_16  and  C_17
REMARK    6  A    between atoms: N_20  and  C_21
REMARK    7  A    between atoms: C_23  and  C_24
REMARK                            x       y       z     vdW  Elec       q    Type
REMARK                         _______ _______ _______ _____ _____    ______ ____
ROOT
ATOM      1  S   UNL     1       7.054   6.273  17.631  0.00  0.00    +0.000 S 
ATOM      2  O   UNL     1       8.018   6.445  18.699  0.00  0.00    +0.000 OA
ATOM      3  O   UNL     1       6.739   7.360  16.729  0.00  0.00    +0.000 OA
ENDROOT
BRANCH   1   4
ATOM      4  C   UNL     1       5.533   5.720  18.381  0.00  0.00    +0.000 A 
ATOM      5  C   UNL     1       4.361   6.504  18.259  0.00  0.00    +0.000 A 
ATOM      6  C   UNL     1       3.147   6.058  18.799  0.00  0.00    +0.000 A 
ATOM      7  C   UNL     1       3.149   4.832  19.434  0.00  0.00    +0.000 A 
ATOM      8  C   UNL     1       4.309   4.053  19.535  0.00  0.00    +0.000 A 
ATOM      9  C   UNL     1       5.513   4.469  19.011  0.00  0.00    +0.000 A 
ATOM     10  N   UNL     1       3.974   2.877  20.218  0.00  0.00    +0.000 N 
ATOM     11  C   UNL     1       4.852   1.795  20.547  0.00  0.00    +0.000 C 
ATOM     12  C   UNL     1       2.605   2.912  20.561  0.00  0.00    +0.000 A 
ATOM     13  O   UNL     1       1.984   2.058  21.169  0.00  0.00    +0.000 OA
ATOM     14  N   UNL     1       2.107   4.135  20.061  0.00  0.00    +0.000 N 
ATOM     15  C   UNL     1       0.754   4.590  20.196  0.00  0.00    +0.000 C 
ENDBRANCH   1   4
BRANCH   1  16
ATOM     16  N   UNL     1       7.562   4.944  16.755  0.00  0.00    +0.000 N 
ATOM     17  H   UNL     1       8.337   4.400  17.127  0.00  0.00    +0.000 HD
BRANCH  16  22
ATOM     18  C   UNL     1       5.036   3.338  11.877  0.00  0.00    +0.000 C 
ATOM     19  C   UNL     1       5.724   3.780  13.140  0.00  0.00    +0.000 A 
ATOM     20  C   UNL     1       5.178   3.415  14.380  0.00  0.00    +0.000 A 
ATOM     21  C   UNL     1       5.789   3.804  15.573  0.00  0.00    +0.000 A 
ATOM     22  C   UNL     1       6.941   4.578  15.538  0.00  0.00    +0.000 A 
ATOM     23  C   UNL     1       7.509   4.939  14.315  0.00  0.00    +0.000 A 
ATOM     24  C   UNL     1       6.905   4.550  13.106  0.00  0.00    +0.000 A 
ATOM     25  C   UNL     1       7.522   4.968  11.798  0.00  0.00    +0.000 C 
ENDBRANCH  16  22
ENDBRANCH   1  16
TORSDOF 3
ENDMDL
MODEL 5
REMARK VINA RESULT:      -7.8      1.217      1.831
REMARK  Name = 
REMARK  7 active torsions:
REMARK  status: ('A' for Active; 'I' for Inactive)
REMARK    1  A    between atoms: C_1  and  C_2
REMARK    2  A    between atoms: C_5  and  N_6
REMARK    3  A    between atoms: N_6  and  S_7
REMARK    4  A    between atoms: S_7  and  C_10
REMARK    5  A    between atoms: N_16  and  C_17
REMARK    6  A    between atoms: N_20  and  C_21
REMARK    7  A    between atoms: C_23  and  C_24
REMARK                            x       y       z     vdW  Elec       q    Type
REMARK                         _______ _______ _______ _____ _____    ______ ____
ROOT
ATOM      1  S   UNL     1       2.508   4.721  19.789  0.00  0.00    +0.000 S 
ATOM      2  O   UNL     1       3.017   3.806  20.790  0.00  0.00    +0.000 OA
ATOM      3  O   UNL     1       1.120   4.687  19.385  0.00  0.00    +0.000 OA
ENDROOT
BRANCH   1   4
ATOM      4  C   UNL     1       3.513   4.515  18.329  0.00  0.00    +0.000 A 
ATOM      5  C   UNL     1       3.096   3.631  17.305  0.00  0.00    +0.000 A 
ATOM      6  C   UNL     1       3.848   3.497  16.131  0.00  0.00    +0.000 A 
ATOM      7  C   UNL     1       4.991   4.265  16.019  0.00  0.00    +0.000 A 
ATOM      8  C   UNL     1       5.388   5.151  17.029  0.00  0.00    +0.000 A 
ATOM      9  C   UNL     1       4.664   5.301  18.192  0.00  0.00    +0.000 A 
ATOM     10  N   UNL     1       6.566   5.777  16.607  0.00  0.00    +0.000 N 
ATOM     11  C   UNL     1       7.324   6.758  17.324  0.00  0.00    +0.000 C 
ATOM     12  C   UNL     1       6.925   5.284  15.333  0.00  0.00    +0.000 A 
ATOM     13  O   UNL     1       7.900   5.603  14.676  0.00  0.00    +0.000 OA
ATOM     14  N   UNL     1       5.930   4.345  14.982  0.00  0.00    +0.000 N 
ATOM     15  C   UNL     1       5.904   3.589  13.765  0.00  0.00    +0.000 C 
ENDBRANCH   1   4
BRANCH   1  16
ATOM     16  N   UNL     1       2.902   6.257  20.319  0.00  0.00    +0.000 N 
ATOM     17  H   UNL     1       3.704   6.352  20.938  0.00  0.00    +0.000 HD
BRANCH  16  22
ATOM     18  C   UNL     1      -0.007  10.895  18.655  0.00  0.00    +0.000 C 
ATOM     19  C   UNL     1       0.742   9.678  19.125  0.00  0.00    +0.000 A 
ATOM     20  C   UNL     1       1.558   8.985  18.218  0.00  0.00    +0.000 A 
ATOM     21  C   UNL     1       2.270   7.853  18.618  0.00  0.00    +0.000 A 
ATOM     22  C   UNL     1       2.157   7.391  19.923  0.00  0.00    +0.000 A 
ATOM     23  C   UNL     1       1.362   8.074  20.844  0.00  0.00    +0.000 A 
ATOM     24  C   UNL     1       0.643   9.219  20.455  0.00  0.00    +0.000 A 
ATOM     25  C   UNL     1      -0.226   9.929  21.459  0.00  0.00    +0.000 C 
ENDBRANCH  16  22
ENDBRANCH   1  16
TORSDOF 3
ENDMDL
MODEL 6
REMARK VINA RESULT:      -7.7      2.788      4.458
REMARK  Name = 
REMARK  7 active torsions:
REMARK  status: ('A' for Active; 'I' for Inactive)
REMARK    1  A    between atoms: C_1  and  C_2
REMARK    2  A    between atoms: C_5  and  N_6
REMARK    3  A    between atoms: N_6  and  S_7
REMARK    4  A    between atoms: S_7  and  C_10
REMARK    5  A    between atoms: N_16  and  C_17
REMARK    6  A    between atoms: N_20  and  C_21
REMARK    7  A    between atoms: C_23  and  C_24
REMARK                            x       y       z     vdW  Elec       q    Type
REMARK                         _______ _______ _______ _____ _____    ______ ____
ROOT
ATOM      1  S   UNL     1       0.875   8.899  21.235  0.00  0.00    +0.000 S 
ATOM      2  O   UNL     1       1.811   9.292  22.269  0.00  0.00    +0.000 OA
ATOM      3  O   UNL     1      -0.470   8.481  21.567  0.00  0.00    +0.000 OA
ENDROOT
BRANCH   1   4
ATOM      4  C   UNL     1       1.644   7.588  20.300  0.00  0.00    +0.000 A 
ATOM      5  C   UNL     1       2.262   7.875  19.060  0.00  0.00    +0.000 A 
ATOM      6  C   UNL     1       2.914   6.865  18.340  0.00  0.00    +0.000 A 
ATOM      7  C   UNL     1       2.932   5.601  18.895  0.00  0.00    +0.000 A 
ATOM      8  C   UNL     1       2.334   5.328  20.133  0.00  0.00    +0.000 A 
ATOM      9  C   UNL     1       1.689   6.304  20.860  0.00  0.00    +0.000 A 
ATOM     10  N   UNL     1       2.538   3.972  20.414  0.00  0.00    +0.000 N 
ATOM     11  C   UNL     1       2.095   3.259  21.574  0.00  0.00    +0.000 C 
ATOM     12  C   UNL     1       3.256   3.379  19.354  0.00  0.00    +0.000 A 
ATOM     13  O   UNL     1       3.595   2.212  19.265  0.00  0.00    +0.000 OA
ATOM     14  N   UNL     1       3.496   4.410  18.418  0.00  0.00    +0.000 N 
ATOM     15  C   UNL     1       4.192   4.248  17.175  0.00  0.00    +0.000 C 
ENDBRANCH   1   4
BRANCH   1  16
ATOM     16  N   UNL     1       0.818  10.168  20.150  0.00  0.00    +0.000 N 
ATOM     17  H   UNL     1       1.672  10.701  20.001  0.00  0.00    +0.000 HD
BRANCH  16  22
ATOM     18  C   UNL     1      -3.916  11.518  17.232  0.00  0.00    +0.000 C 
ATOM     19  C   UNL     1      -2.684  11.183  18.028  0.00  0.00    +0.000 A 
ATOM     20  C   UNL     1      -1.742  10.293  17.488  0.00  0.00    +0.000 A 
ATOM     21  C   UNL     1      -0.587   9.959  18.194  0.00  0.00    +0.000 A 
ATOM     22  C   UNL     1      -0.369  10.497  19.457  0.00  0.00    +0.000 A 
ATOM     23  C   UNL     1      -1.286  11.395  20.005  0.00  0.00    +0.000 A 
ATOM     24  C   UNL     1      -2.454  11.743  19.301  0.00  0.00    +0.000 A 
ATOM     25  C   UNL     1      -3.440  12.697  19.920  0.00  0.00    +0.000 C 
ENDBRANCH  16  22
ENDBRANCH   1  16
TORSDOF 3
ENDMDL
MODEL 7
REMARK VINA RESULT:      -7.5      1.119      1.167
REMARK  Name = 
REMARK  7 active torsions:
REMARK  status: ('A' for Active; 'I' for Inactive)
REMARK    1  A    between atoms: C_1  and  C_2
REMARK    2  A    between atoms: C_5  and  N_6
REMARK    3  A    between atoms: N_6  and  S_7
REMARK    4  A    between atoms: S_7  and  C_10
REMARK    5  A    between atoms: N_16  and  C_17
REMARK    6  A    between atoms: N_20  and  C_21
REMARK    7  A    between atoms: C_23  and  C_24
REMARK                            x       y       z     vdW  Elec       q    Type
REMARK                         _______ _______ _______ _____ _____    ______ ____
ROOT
ATOM      1  S   UNL     1       2.481   4.334  19.818  0.00  0.00    +0.000 S 
ATOM      2  O   UNL     1       2.941   3.288  20.709  0.00  0.00    +0.000 OA
ATOM      3  O   UNL     1       1.097   4.406  19.404  0.00  0.00    +0.000 OA
ENDROOT
BRANCH   1   4
ATOM      4  C   UNL     1       3.491   4.254  18.349  0.00  0.00    +0.000 A 
ATOM      5  C   UNL     1       3.091   3.443  17.261  0.00  0.00    +0.000 A 
ATOM      6  C   UNL     1       3.847   3.410  16.082  0.00  0.00    +0.000 A 
ATOM      7  C   UNL     1       4.977   4.203  16.031  0.00  0.00    +0.000 A 
ATOM      8  C   UNL     1       5.357   5.018  17.106  0.00  0.00    +0.000 A 
ATOM      9  C   UNL     1       4.629   5.069  18.274  0.00  0.00    +0.000 A 
ATOM     10  N   UNL     1       6.525   5.695  16.734  0.00  0.00    +0.000 N 
ATOM     11  C   UNL     1       7.264   6.632  17.525  0.00  0.00    +0.000 C 
ATOM     12  C   UNL     1       6.894   5.304  15.429  0.00  0.00    +0.000 A 
ATOM     13  O   UNL     1       7.864   5.688  14.800  0.00  0.00    +0.000 OA
ATOM     14  N   UNL     1       5.916   4.377  15.006  0.00  0.00    +0.000 N 
ATOM     15  C   UNL     1       5.906   3.713  13.735  0.00  0.00    +0.000 C 
ENDBRANCH   1   4
BRANCH   1  16
ATOM     16  N   UNL     1       2.933   5.780  20.523  0.00  0.00    +0.000 N 
ATOM     17  H   UNL     1       3.775   5.784  21.095  0.00  0.00    +0.000 HD
BRANCH  16  22
ATOM     18  C   UNL     1      -0.218  10.502  19.805  0.00  0.00    +0.000 C 
ATOM     19  C   UNL     1       0.628   9.268  19.962  0.00  0.00    +0.000 A 
ATOM     20  C   UNL     1       0.507   8.500  21.131  0.00  0.00    +0.000 A 
ATOM     21  C   UNL     1       1.273   7.348  21.312  0.00  0.00    +0.000 A 
ATOM     22  C   UNL     1       2.182   6.962  20.336  0.00  0.00    +0.000 A 
ATOM     23  C   UNL     1       2.307   7.704  19.160  0.00  0.00    +0.000 A 
ATOM     24  C   UNL     1       1.537   8.865  18.963  0.00  0.00    +0.000 A 
ATOM     25  C   UNL     1       1.704   9.662  17.697  0.00  0.00    +0.000 C 
ENDBRANCH  16  22
ENDBRANCH   1  16
TORSDOF 3
ENDMDL
MODEL 8
REMARK VINA RESULT:      -7.4      2.437      6.834
REMARK  Name = 
REMARK  7 active torsions:
REMARK  status: ('A' for Active; 'I' for Inactive)
REMARK    1  A    between atoms: C_1  and  C_2
REMARK    2  A    between atoms: C_5  and  N_6
REMARK    3  A    between atoms: N_6  and  S_7
REMARK    4  A    between atoms: S_7  and  C_10
REMARK    5  A    between atoms: N_16  and  C_17
REMARK    6  A    between atoms: N_20  and  C_21
REMARK    7  A    between atoms: C_23  and  C_24
REMARK                            x       y       z     vdW  Elec       q    Type
REMARK                         _______ _______ _______ _____ _____    ______ ____
ROOT
ATOM      1  S   UNL     1       2.178   4.928  19.728  0.00  0.00    +0.000 S 
ATOM      2  O   UNL     1       1.745   4.387  18.456  0.00  0.00    +0.000 OA
ATOM      3  O   UNL     1       1.603   4.462  20.971  0.00  0.00    +0.000 OA
ENDROOT
BRANCH   1   4
ATOM      4  C   UNL     1       1.958   6.697  19.649  0.00  0.00    +0.000 A 
ATOM      5  C   UNL     1       2.207   7.385  18.438  0.00  0.00    +0.000 A 
ATOM      6  C   UNL     1       1.990   8.766  18.347  0.00  0.00    +0.000 A 
ATOM      7  C   UNL     1       1.519   9.409  19.475  0.00  0.00    +0.000 A 
ATOM      8  C   UNL     1       1.257   8.718  20.666  0.00  0.00    +0.000 A 
ATOM      9  C   UNL     1       1.461   7.360  20.779  0.00  0.00    +0.000 A 
ATOM     10  N   UNL     1       0.786   9.646  21.602  0.00  0.00    +0.000 N 
ATOM     11  C   UNL     1       0.396   9.381  22.954  0.00  0.00    +0.000 C 
ATOM     12  C   UNL     1       0.756  10.928  21.012  0.00  0.00    +0.000 A 
ATOM     13  O   UNL     1       0.410  11.968  21.545  0.00  0.00    +0.000 OA
ATOM     14  N   UNL     1       1.213  10.761  19.686  0.00  0.00    +0.000 N 
ATOM     15  C   UNL     1       1.354  11.814  18.724  0.00  0.00    +0.000 C 
ENDBRANCH   1   4
BRANCH   1  16
ATOM     16  N   UNL     1       3.838   4.743  19.773  0.00  0.00    +0.000 N 
ATOM     17  H   UNL     1       4.270   4.573  20.678  0.00  0.00    +0.000 HD
BRANCH  16  22
ATOM     18  C   UNL     1       7.040   4.907  15.032  0.00  0.00    +0.000 C 
ATOM     19  C   UNL     1       6.213   4.896  16.290  0.00  0.00    +0.000 A 
ATOM     20  C   UNL     1       5.240   3.898  16.460  0.00  0.00    +0.000 A 
ATOM     21  C   UNL     1       4.456   3.853  17.613  0.00  0.00    +0.000 A 
ATOM     22  C   UNL     1       4.623   4.816  18.600  0.00  0.00    +0.000 A 
ATOM     23  C   UNL     1       5.595   5.807  18.457  0.00  0.00    +0.000 A 
ATOM     24  C   UNL     1       6.395   5.862  17.301  0.00  0.00    +0.000 A 
ATOM     25  C   UNL     1       7.423   6.952  17.157  0.00  0.00    +0.000 C 
ENDBRANCH  16  22
ENDBRANCH   1  16
TORSDOF 3
ENDMDL
MODEL 9
REMARK VINA RESULT:      -7.3      2.780      3.845
REMARK  Name = 
REMARK  7 active torsions:
REMARK  status: ('A' for Active; 'I' for Inactive)
REMARK    1  A    between atoms: C_1  and  C_2
REMARK    2  A    between atoms: C_5  and  N_6
REMARK    3  A    between atoms: N_6  and  S_7
REMARK    4  A    between atoms: S_7  and  C_10
REMARK    5  A    between atoms: N_16  and  C_17
REMARK    6  A    between atoms: N_20  and  C_21
REMARK    7  A    between atoms: C_23  and  C_24
REMARK                            x       y       z     vdW  Elec       q    Type
REMARK                         _______ _______ _______ _____ _____    ______ ____
ROOT
ATOM      1  S   UNL     1       0.915   8.632  21.061  0.00  0.00    +0.000 S 
ATOM      2  O   UNL     1       1.819   9.204  22.038  0.00  0.00    +0.000 OA
ATOM      3  O   UNL     1      -0.446   8.293  21.414  0.00  0.00    +0.000 OA
ENDROOT
BRANCH   1   4
ATOM      4  C   UNL     1       1.699   7.165  20.416  0.00  0.00    +0.000 A 
ATOM      5  C   UNL     1       1.394   5.900  20.972  0.00  0.00    +0.000 A 
ATOM      6  C   UNL     1       1.962   4.734  20.442  0.00  0.00    +0.000 A 
ATOM      7  C   UNL     1       2.812   4.877  19.363  0.00  0.00    +0.000 A 
ATOM      8  C   UNL     1       3.095   6.131  18.806  0.00  0.00    +0.000 A 
ATOM      9  C   UNL     1       2.547   7.291  19.308  0.00  0.00    +0.000 A 
ATOM     10  N   UNL     1       3.970   5.932  17.731  0.00  0.00    +0.000 N 
ATOM     11  C   UNL     1       4.522   6.938  16.875  0.00  0.00    +0.000 C 
ATOM     12  C   UNL     1       4.251   4.554  17.609  0.00  0.00    +0.000 A 
ATOM     13  O   UNL     1       4.983   4.029  16.789  0.00  0.00    +0.000 OA
ATOM     14  N   UNL     1       3.518   3.912  18.632  0.00  0.00    +0.000 N 
ATOM     15  C   UNL     1       3.519   2.501  18.884  0.00  0.00    +0.000 C 
ENDBRANCH   1   4
BRANCH   1  16
ATOM     16  N   UNL     1       0.914   9.678  19.758  0.00  0.00    +0.000 N 
ATOM     17  H   UNL     1       1.811   9.910  19.337  0.00  0.00    +0.000 HD
BRANCH  16  22
ATOM     18  C   UNL     1      -4.000  11.873  17.811  0.00  0.00    +0.000 C 
ATOM     19  C   UNL     1      -2.705  11.276  18.292  0.00  0.00    +0.000 A 
ATOM     20  C   UNL     1      -2.163  11.710  19.512  0.00  0.00    +0.000 A 
ATOM     21  C   UNL     1      -0.965  11.179  19.992  0.00  0.00    +0.000 A 
ATOM     22  C   UNL     1      -0.286  10.223  19.247  0.00  0.00    +0.000 A 
ATOM     23  C   UNL     1      -0.815   9.768  18.039  0.00  0.00    +0.000 A 
ATOM     24  C   UNL     1      -2.024  10.292  17.546  0.00  0.00    +0.000 A 
ATOM     25  C   UNL     1      -2.566   9.802  16.229  0.00  0.00    +0.000 C 
ENDBRANCH  16  22
ENDBRANCH   1  16
TORSDOF 3
ENDMDL
