MODEL 1
REMARK VINA RESULT:      -7.3      0.000      0.000
REMARK  Name = 
REMARK  7 active torsions:
REMARK  status: ('A' for Active; 'I' for Inactive)
REMARK    1  A    between atoms: C_1  and  O_2
REMARK    2  A    between atoms: O_2  and  C_3
REMARK    3  A    between atoms: C_5  and  O_6
REMARK    4  A    between atoms: O_6  and  C_7
REMARK    5  A    between atoms: C_12  and  O_13
REMARK    6  A    between atoms: C_20  and  O_21
REMARK    7  A    between atoms: O_21  and  C_22
REMARK                            x       y       z     vdW  Elec       q    Type
REMARK                         _______ _______ _______ _____ _____    ______ ____
ROOT
ATOM      1  C   UNL     1       3.967   4.559  18.996  0.00  0.00    +0.000 A 
ATOM      2  C   UNL     1       5.089   5.353  19.279  0.00  0.00    +0.000 A 
ATOM      3  C   UNL     1       6.039   5.659  18.307  0.00  0.00    +0.000 A 
ATOM      4  C   UNL     1       5.876   5.135  17.015  0.00  0.00    +0.000 A 
ATOM      5  C   UNL     1       6.835   5.437  15.932  0.00  0.00    +0.000 A 
ATOM      6  O   UNL     1       7.806   6.176  16.058  0.00  0.00    +0.000 OA
ATOM      7  C   UNL     1       6.607   4.822  14.626  0.00  0.00    +0.000 A 
ATOM      8  C   UNL     1       7.479   5.052  13.553  0.00  0.00    +0.000 A 
ATOM      9  C   UNL     1       7.245   4.455  12.321  0.00  0.00    +0.000 A 
ATOM     10  C   UNL     1       6.137   3.627  12.157  0.00  0.00    +0.000 A 
ATOM     11  C   UNL     1       5.264   3.399  13.228  0.00  0.00    +0.000 A 
ATOM     12  C   UNL     1       5.499   4.000  14.471  0.00  0.00    +0.000 A 
ATOM     13  O   UNL     1       4.597   3.735  15.471  0.00  0.00    +0.000 OA
ATOM     14  C   UNL     1       4.790   4.301  16.720  0.00  0.00    +0.000 A 
ATOM     15  C   UNL     1       3.824   3.999  17.712  0.00  0.00    +0.000 A 
ENDROOT
BRANCH   1  17
ATOM     16  C   UNL     1       2.003   5.253  20.151  0.00  0.00    +0.000 C 
ATOM     17  O   UNL     1       3.040   4.289  19.970  0.00  0.00    +0.000 OA
ENDBRANCH   1  17
BRANCH   3  18
ATOM     18  O   UNL     1       7.128   6.449  18.547  0.00  0.00    +0.000 OA
ATOM     19  C   UNL     1       8.097   6.013  19.488  0.00  0.00    +0.000 C 
ENDBRANCH   3  18
BRANCH   8  20
ATOM     20  O   UNL     1       8.584   5.856  13.648  0.00  0.00    +0.000 OA
ATOM     21  H   UNL     1       9.377   5.268  13.656  0.00  0.00    +0.000 HD
ENDBRANCH   8  20
BRANCH  15  22
ATOM     22  O   UNL     1       2.816   3.170  17.278  0.00  0.00    +0.000 OA
ATOM     23  C   UNL     1       2.643   1.898  17.887  0.00  0.00    +0.000 C 
ENDBRANCH  15  22
TORSDOF 4
ENDMDL
MODEL 2
REMARK VINA RESULT:      -7.2      3.182      6.333
REMARK  Name = 
REMARK  7 active torsions:
REMARK  status: ('A' for Active; 'I' for Inactive)
REMARK    1  A    between atoms: C_1  and  O_2
REMARK    2  A    between atoms: O_2  and  C_3
REMARK    3  A    between atoms: C_5  and  O_6
REMARK    4  A    between atoms: O_6  and  C_7
REMARK    5  A    between atoms: C_12  and  O_13
REMARK    6  A    between atoms: C_20  and  O_21
REMARK    7  A    between atoms: O_21  and  C_22
REMARK                            x       y       z     vdW  Elec       q    Type
REMARK                         _______ _______ _______ _____ _____    ______ ____
ROOT
ATOM      1  C   UNL     1       3.950   3.740  19.196  0.00  0.00    +0.000 A 
ATOM      2  C   UNL     1       4.379   4.268  17.969  0.00  0.00    +0.000 A 
ATOM      3  C   UNL     1       4.038   5.556  17.562  0.00  0.00    +0.000 A 
ATOM      4  C   UNL     1       3.221   6.334  18.396  0.00  0.00    +0.000 A 
ATOM      5  C   UNL     1       2.838   7.714  18.036  0.00  0.00    +0.000 A 
ATOM      6  O   UNL     1       3.219   8.293  17.022  0.00  0.00    +0.000 OA
ATOM      7  C   UNL     1       1.956   8.440  18.948  0.00  0.00    +0.000 A 
ATOM      8  C   UNL     1       1.542   9.750  18.668  0.00  0.00    +0.000 A 
ATOM      9  C   UNL     1       0.701  10.420  19.547  0.00  0.00    +0.000 A 
ATOM     10  C   UNL     1       0.273   9.785  20.711  0.00  0.00    +0.000 A 
ATOM     11  C   UNL     1       0.690   8.477  20.991  0.00  0.00    +0.000 A 
ATOM     12  C   UNL     1       1.537   7.801  20.105  0.00  0.00    +0.000 A 
ATOM     13  O   UNL     1       1.908   6.525  20.451  0.00  0.00    +0.000 OA
ATOM     14  C   UNL     1       2.739   5.812  19.604  0.00  0.00    +0.000 A 
ATOM     15  C   UNL     1       3.097   4.503  20.015  0.00  0.00    +0.000 A 
ENDROOT
BRANCH   1  17
ATOM     16  C   UNL     1       3.721   1.394  18.858  0.00  0.00    +0.000 C 
ATOM     17  O   UNL     1       4.316   2.474  19.576  0.00  0.00    +0.000 OA
ENDBRANCH   1  17
BRANCH   3  18
ATOM     18  O   UNL     1       4.461   6.107  16.384  0.00  0.00    +0.000 OA
ATOM     19  C   UNL     1       5.567   5.522  15.714  0.00  0.00    +0.000 C 
ENDBRANCH   3  18
BRANCH   8  20
ATOM     20  O   UNL     1       1.927  10.431  17.544  0.00  0.00    +0.000 OA
ATOM     21  H   UNL     1       2.769  10.026  17.227  0.00  0.00    +0.000 HD
ENDBRANCH   8  20
BRANCH  15  22
ATOM     22  O   UNL     1       2.551   4.126  21.220  0.00  0.00    +0.000 OA
ATOM     23  C   UNL     1       1.470   3.204  21.243  0.00  0.00    +0.000 C 
ENDBRANCH  15  22
TORSDOF 4
ENDMDL
MODEL 3
REMARK VINA RESULT:      -6.7      2.332      3.430
REMARK  Name = 
REMARK  7 active torsions:
REMARK  status: ('A' for Active; 'I' for Inactive)
REMARK    1  A    between atoms: C_1  and  O_2
REMARK    2  A    between atoms: O_2  and  C_3
REMARK    3  A    between atoms: C_5  and  O_6
REMARK    4  A    between atoms: O_6  and  C_7
REMARK    5  A    between atoms: C_12  and  O_13
REMARK    6  A    between atoms: C_20  and  O_21
REMARK    7  A    between atoms: O_21  and  C_22
REMARK                            x       y       z     vdW  Elec       q    Type
REMARK                         _______ _______ _______ _____ _____    ______ ____
ROOT
ATOM      1  C   UNL     1       2.612   3.995  20.965  0.00  0.00    +0.000 A 
ATOM      2  C   UNL     1       2.323   5.360  20.818  0.00  0.00    +0.000 A 
ATOM      3  C   UNL     1       2.747   6.088  19.709  0.00  0.00    +0.000 A 
ATOM      4  C   UNL     1       3.506   5.437  18.724  0.00  0.00    +0.000 A 
ATOM      5  C   UNL     1       3.970   6.143  17.513  0.00  0.00    +0.000 A 
ATOM      6  O   UNL     1       3.710   7.315  17.256  0.00  0.00    +0.000 OA
ATOM      7  C   UNL     1       4.785   5.397  16.556  0.00  0.00    +0.000 A 
ATOM      8  C   UNL     1       5.271   6.002  15.388  0.00  0.00    +0.000 A 
ATOM      9  C   UNL     1       6.046   5.275  14.494  0.00  0.00    +0.000 A 
ATOM     10  C   UNL     1       6.336   3.939  14.762  0.00  0.00    +0.000 A 
ATOM     11  C   UNL     1       5.849   3.334  15.927  0.00  0.00    +0.000 A 
ATOM     12  C   UNL     1       5.067   4.066  16.830  0.00  0.00    +0.000 A 
ATOM     13  O   UNL     1       4.620   3.403  17.945  0.00  0.00    +0.000 OA
ATOM     14  C   UNL     1       3.850   4.087  18.871  0.00  0.00    +0.000 A 
ATOM     15  C   UNL     1       3.409   3.351  20.000  0.00  0.00    +0.000 A 
ENDROOT
BRANCH   1  17
ATOM     16  C   UNL     1       1.104   2.375  21.843  0.00  0.00    +0.000 C 
ATOM     17  O   UNL     1       2.166   3.302  22.062  0.00  0.00    +0.000 OA
ENDBRANCH   1  17
BRANCH   3  18
ATOM     18  O   UNL     1       2.459   7.412  19.526  0.00  0.00    +0.000 OA
ATOM     19  C   UNL     1       1.636   8.071  20.476  0.00  0.00    +0.000 C 
ENDBRANCH   3  18
BRANCH   8  20
ATOM     20  O   UNL     1       5.021   7.310  15.065  0.00  0.00    +0.000 OA
ATOM     21  H   UNL     1       5.649   7.867  15.583  0.00  0.00    +0.000 HD
ENDBRANCH   8  20
BRANCH  15  22
ATOM     22  O   UNL     1       3.821   2.039  20.009  0.00  0.00    +0.000 OA
ATOM     23  C   UNL     1       4.941   1.661  20.797  0.00  0.00    +0.000 C 
ENDBRANCH  15  22
TORSDOF 4
ENDMDL
MODEL 4
REMARK VINA RESULT:      -6.4      2.533      4.659
REMARK  Name = 
REMARK  7 active torsions:
REMARK  status: ('A' for Active; 'I' for Inactive)
REMARK    1  A    between atoms: C_1  and  O_2
REMARK    2  A    between atoms: O_2  and  C_3
REMARK    3  A    between atoms: C_5  and  O_6
REMARK    4  A    between atoms: O_6  and  C_7
REMARK    5  A    between atoms: C_12  and  O_13
REMARK    6  A    between atoms: C_20  and  O_21
REMARK    7  A    between atoms: O_21  and  C_22
REMARK                            x       y       z     vdW  Elec       q    Type
REMARK                         _______ _______ _______ _____ _____    ______ ____
ROOT
ATOM      1  C   UNL     1       1.500   7.061  20.495  0.00  0.00    +0.000 A 
ATOM      2  C   UNL     1       1.479   5.698  20.829  0.00  0.00    +0.000 A 
ATOM      3  C   UNL     1       2.214   4.753  20.116  0.00  0.00    +0.000 A 
ATOM      4  C   UNL     1       2.976   5.179  19.017  0.00  0.00    +0.000 A 
ATOM      5  C   UNL     1       3.794   4.234  18.231  0.00  0.00    +0.000 A 
ATOM      6  O   UNL     1       3.901   3.038  18.485  0.00  0.00    +0.000 OA
ATOM      7  C   UNL     1       4.529   4.759  17.082  0.00  0.00    +0.000 A 
ATOM      8  C   UNL     1       5.319   3.921  16.281  0.00  0.00    +0.000 A 
ATOM      9  C   UNL     1       6.007   4.440  15.191  0.00  0.00    +0.000 A 
ATOM     10  C   UNL     1       5.910   5.799  14.900  0.00  0.00    +0.000 A 
ATOM     11  C   UNL     1       5.124   6.636  15.701  0.00  0.00    +0.000 A 
ATOM     12  C   UNL     1       4.429   6.113  16.799  0.00  0.00    +0.000 A 
ATOM     13  O   UNL     1       3.685   6.996  17.541  0.00  0.00    +0.000 OA
ATOM     14  C   UNL     1       2.975   6.527  18.633  0.00  0.00    +0.000 A 
ATOM     15  C   UNL     1       2.230   7.484  19.368  0.00  0.00    +0.000 A 
ENDROOT
BRANCH   1  17
ATOM     16  C   UNL     1       1.526   8.871  22.042  0.00  0.00    +0.000 C 
ATOM     17  O   UNL     1       0.778   7.969  21.227  0.00  0.00    +0.000 OA
ENDBRANCH   1  17
BRANCH   3  18
ATOM     18  O   UNL     1       2.234   3.424  20.434  0.00  0.00    +0.000 OA
ATOM     19  C   UNL     1       1.456   2.970  21.531  0.00  0.00    +0.000 C 
ENDBRANCH   3  18
BRANCH   8  20
ATOM     20  O   UNL     1       5.457   2.578  16.514  0.00  0.00    +0.000 OA
ATOM     21  H   UNL     1       6.365   2.320  16.225  0.00  0.00    +0.000 HD
ENDBRANCH   8  20
BRANCH  15  22
ATOM     22  O   UNL     1       2.324   8.764  18.876  0.00  0.00    +0.000 OA
ATOM     23  C   UNL     1       1.271   9.289  18.079  0.00  0.00    +0.000 C 
ENDBRANCH  15  22
TORSDOF 4
ENDMDL
MODEL 5
REMARK VINA RESULT:      -6.0      3.141      6.819
REMARK  Name = 
REMARK  7 active torsions:
REMARK  status: ('A' for Active; 'I' for Inactive)
REMARK    1  A    between atoms: C_1  and  O_2
REMARK    2  A    between atoms: O_2  and  C_3
REMARK    3  A    between atoms: C_5  and  O_6
REMARK    4  A    between atoms: O_6  and  C_7
REMARK    5  A    between atoms: C_12  and  O_13
REMARK    6  A    between atoms: C_20  and  O_21
REMARK    7  A    between atoms: O_21  and  C_22
REMARK                            x       y       z     vdW  Elec       q    Type
REMARK                         _______ _______ _______ _____ _____    ______ ____
ROOT
ATOM      1  C   UNL     1       5.158   4.752  17.868  0.00  0.00    +0.000 A 
ATOM      2  C   UNL     1       4.596   4.174  19.017  0.00  0.00    +0.000 A 
ATOM      3  C   UNL     1       3.587   4.805  19.740  0.00  0.00    +0.000 A 
ATOM      4  C   UNL     1       3.140   6.066  19.317  0.00  0.00    +0.000 A 
ATOM      5  C   UNL     1       2.059   6.782  20.025  0.00  0.00    +0.000 A 
ATOM      6  O   UNL     1       1.455   6.332  20.995  0.00  0.00    +0.000 OA
ATOM      7  C   UNL     1       1.680   8.106  19.536  0.00  0.00    +0.000 A 
ATOM      8  C   UNL     1       0.670   8.850  20.163  0.00  0.00    +0.000 A 
ATOM      9  C   UNL     1       0.327  10.108  19.683  0.00  0.00    +0.000 A 
ATOM     10  C   UNL     1       0.991  10.625  18.573  0.00  0.00    +0.000 A 
ATOM     11  C   UNL     1       1.998   9.881  17.945  0.00  0.00    +0.000 A 
ATOM     12  C   UNL     1       2.344   8.613  18.429  0.00  0.00    +0.000 A 
ATOM     13  O   UNL     1       3.336   7.941  17.758  0.00  0.00    +0.000 OA
ATOM     14  C   UNL     1       3.718   6.686  18.201  0.00  0.00    +0.000 A 
ATOM     15  C   UNL     1       4.740   6.035  17.466  0.00  0.00    +0.000 A 
ENDROOT
BRANCH   1  17
ATOM     16  C   UNL     1       7.485   4.491  17.435  0.00  0.00    +0.000 C 
ATOM     17  O   UNL     1       6.140   4.098  17.168  0.00  0.00    +0.000 OA
ENDBRANCH   1  17
BRANCH   3  18
ATOM     18  O   UNL     1       3.003   4.256  20.848  0.00  0.00    +0.000 OA
ATOM     19  C   UNL     1       2.546   2.914  20.787  0.00  0.00    +0.000 C 
ENDBRANCH   3  18
BRANCH   8  20
ATOM     20  O   UNL     1      -0.022   8.398  21.255  0.00  0.00    +0.000 OA
ATOM     21  H   UNL     1      -0.911   8.105  20.942  0.00  0.00    +0.000 HD
ENDBRANCH   8  20
BRANCH  15  22
ATOM     22  O   UNL     1       5.212   6.762  16.399  0.00  0.00    +0.000 OA
ATOM     23  C   UNL     1       5.242   6.173  15.106  0.00  0.00    +0.000 C 
ENDBRANCH  15  22
TORSDOF 4
ENDMDL
MODEL 6
REMARK VINA RESULT:      -6.0      1.585      6.264
REMARK  Name = 
REMARK  7 active torsions:
REMARK  status: ('A' for Active; 'I' for Inactive)
REMARK    1  A    between atoms: C_1  and  O_2
REMARK    2  A    between atoms: O_2  and  C_3
REMARK    3  A    between atoms: C_5  and  O_6
REMARK    4  A    between atoms: O_6  and  C_7
REMARK    5  A    between atoms: C_12  and  O_13
REMARK    6  A    between atoms: C_20  and  O_21
REMARK    7  A    between atoms: O_21  and  C_22
REMARK                            x       y       z     vdW  Elec       q    Type
REMARK                         _______ _______ _______ _____ _____    ______ ____
ROOT
ATOM      1  C   UNL     1       6.872   5.895  17.324  0.00  0.00    +0.000 A 
ATOM      2  C   UNL     1       6.284   5.416  16.143  0.00  0.00    +0.000 A 
ATOM      3  C   UNL     1       5.112   4.664  16.157  0.00  0.00    +0.000 A 
ATOM      4  C   UNL     1       4.518   4.360  17.392  0.00  0.00    +0.000 A 
ATOM      5  C   UNL     1       3.263   3.585  17.477  0.00  0.00    +0.000 A 
ATOM      6  O   UNL     1       2.634   3.183  16.503  0.00  0.00    +0.000 OA
ATOM      7  C   UNL     1       2.734   3.285  18.806  0.00  0.00    +0.000 A 
ATOM      8  C   UNL     1       1.554   2.546  18.967  0.00  0.00    +0.000 A 
ATOM      9  C   UNL     1       1.070   2.269  20.240  0.00  0.00    +0.000 A 
ATOM     10  C   UNL     1       1.763   2.734  21.356  0.00  0.00    +0.000 A 
ATOM     11  C   UNL     1       2.941   3.474  21.194  0.00  0.00    +0.000 A 
ATOM     12  C   UNL     1       3.429   3.753  19.912  0.00  0.00    +0.000 A 
ATOM     13  O   UNL     1       4.585   4.490  19.833  0.00  0.00    +0.000 OA
ATOM     14  C   UNL     1       5.111   4.786  18.587  0.00  0.00    +0.000 A 
ATOM     15  C   UNL     1       6.301   5.556  18.566  0.00  0.00    +0.000 A 
ENDROOT
BRANCH   1  17
ATOM     16  C   UNL     1       7.876   8.045  17.522  0.00  0.00    +0.000 C 
ATOM     17  O   UNL     1       8.018   6.647  17.277  0.00  0.00    +0.000 OA
ENDBRANCH   1  17
BRANCH   3  18
ATOM     18  O   UNL     1       4.502   4.205  15.022  0.00  0.00    +0.000 OA
ATOM     19  C   UNL     1       5.294   3.970  13.868  0.00  0.00    +0.000 C 
ENDBRANCH   3  18
BRANCH   8  20
ATOM     20  O   UNL     1       0.825   2.063  17.913  0.00  0.00    +0.000 OA
ATOM     21  H   UNL     1       0.564   2.835  17.357  0.00  0.00    +0.000 HD
ENDBRANCH   8  20
BRANCH  15  22
ATOM     22  O   UNL     1       6.768   5.902  19.812  0.00  0.00    +0.000 OA
ATOM     23  C   UNL     1       8.043   5.442  20.238  0.00  0.00    +0.000 C 
ENDBRANCH  15  22
TORSDOF 4
ENDMDL
MODEL 7
REMARK VINA RESULT:      -6.0      3.437      6.297
REMARK  Name = 
REMARK  7 active torsions:
REMARK  status: ('A' for Active; 'I' for Inactive)
REMARK    1  A    between atoms: C_1  and  O_2
REMARK    2  A    between atoms: O_2  and  C_3
REMARK    3  A    between atoms: C_5  and  O_6
REMARK    4  A    between atoms: O_6  and  C_7
REMARK    5  A    between atoms: C_12  and  O_13
REMARK    6  A    between atoms: C_20  and  O_21
REMARK    7  A    between atoms: O_21  and  C_22
REMARK                            x       y       z     vdW  Elec       q    Type
REMARK                         _______ _______ _______ _____ _____    ______ ____
ROOT
ATOM      1  C   UNL     1       1.933   8.964  18.805  0.00  0.00    +0.000 A 
ATOM      2  C   UNL     1       2.847   8.630  17.793  0.00  0.00    +0.000 A 
ATOM      3  C   UNL     1       3.419   7.364  17.705  0.00  0.00    +0.000 A 
ATOM      4  C   UNL     1       3.087   6.404  18.674  0.00  0.00    +0.000 A 
ATOM      5  C   UNL     1       3.641   5.035  18.628  0.00  0.00    +0.000 A 
ATOM      6  O   UNL     1       4.390   4.624  17.747  0.00  0.00    +0.000 OA
ATOM      7  C   UNL     1       3.268   4.111  19.697  0.00  0.00    +0.000 A 
ATOM      8  C   UNL     1       3.762   2.799  19.727  0.00  0.00    +0.000 A 
ATOM      9  C   UNL     1       3.397   1.937  20.754  0.00  0.00    +0.000 A 
ATOM     10  C   UNL     1       2.535   2.383  21.753  0.00  0.00    +0.000 A 
ATOM     11  C   UNL     1       2.039   3.693  21.721  0.00  0.00    +0.000 A 
ATOM     12  C   UNL     1       2.407   4.562  20.687  0.00  0.00    +0.000 A 
ATOM     13  O   UNL     1       1.876   5.828  20.719  0.00  0.00    +0.000 OA
ATOM     14  C   UNL     1       2.215   6.726  19.722  0.00  0.00    +0.000 A 
ATOM     15  C   UNL     1       1.631   8.016  19.801  0.00  0.00    +0.000 A 
ENDROOT
BRANCH   1  17
ATOM     16  C   UNL     1       0.029  10.333  18.393  0.00  0.00    +0.000 C 
ATOM     17  O   UNL     1       1.374  10.215  18.855  0.00  0.00    +0.000 OA
ENDBRANCH   1  17
BRANCH   3  18
ATOM     18  O   UNL     1       4.292   7.002  16.717  0.00  0.00    +0.000 OA
ATOM     19  C   UNL     1       5.671   7.295  16.881  0.00  0.00    +0.000 C 
ENDBRANCH   3  18
BRANCH   8  20
ATOM     20  O   UNL     1       4.611   2.298  18.776  0.00  0.00    +0.000 OA
ATOM     21  H   UNL     1       5.493   2.719  18.916  0.00  0.00    +0.000 HD
ENDBRANCH   8  20
BRANCH  15  22
ATOM     22  O   UNL     1       0.797   8.188  20.881  0.00  0.00    +0.000 OA
ATOM     23  C   UNL     1       1.239   8.952  21.994  0.00  0.00    +0.000 C 
ENDBRANCH  15  22
TORSDOF 4
ENDMDL
MODEL 8
REMARK VINA RESULT:      -5.9      3.215      6.480
REMARK  Name = 
REMARK  7 active torsions:
REMARK  status: ('A' for Active; 'I' for Inactive)
REMARK    1  A    between atoms: C_1  and  O_2
REMARK    2  A    between atoms: O_2  and  C_3
REMARK    3  A    between atoms: C_5  and  O_6
REMARK    4  A    between atoms: O_6  and  C_7
REMARK    5  A    between atoms: C_12  and  O_13
REMARK    6  A    between atoms: C_20  and  O_21
REMARK    7  A    between atoms: O_21  and  C_22
REMARK                            x       y       z     vdW  Elec       q    Type
REMARK                         _______ _______ _______ _____ _____    ______ ____
ROOT
ATOM      1  C   UNL     1       6.273   6.831  17.391  0.00  0.00    +0.000 A 
ATOM      2  C   UNL     1       5.047   7.442  17.086  0.00  0.00    +0.000 A 
ATOM      3  C   UNL     1       3.842   6.977  17.608  0.00  0.00    +0.000 A 
ATOM      4  C   UNL     1       3.858   5.850  18.443  0.00  0.00    +0.000 A 
ATOM      5  C   UNL     1       2.619   5.317  19.047  0.00  0.00    +0.000 A 
ATOM      6  O   UNL     1       1.510   5.821  18.901  0.00  0.00    +0.000 OA
ATOM      7  C   UNL     1       2.724   4.119  19.877  0.00  0.00    +0.000 A 
ATOM      8  C   UNL     1       1.591   3.549  20.476  0.00  0.00    +0.000 A 
ATOM      9  C   UNL     1       1.713   2.408  21.258  0.00  0.00    +0.000 A 
ATOM     10  C   UNL     1       2.968   1.834  21.448  0.00  0.00    +0.000 A 
ATOM     11  C   UNL     1       4.100   2.405  20.853  0.00  0.00    +0.000 A 
ATOM     12  C   UNL     1       3.978   3.555  20.063  0.00  0.00    +0.000 A 
ATOM     13  O   UNL     1       5.132   4.060  19.519  0.00  0.00    +0.000 OA
ATOM     14  C   UNL     1       5.063   5.193  18.725  0.00  0.00    +0.000 A 
ATOM     15  C   UNL     1       6.286   5.675  18.195  0.00  0.00    +0.000 A 
ENDROOT
BRANCH   1  17
ATOM     16  C   UNL     1       8.031   8.428  17.560  0.00  0.00    +0.000 C 
ATOM     17  O   UNL     1       7.445   7.322  16.874  0.00  0.00    +0.000 OA
ENDBRANCH   1  17
BRANCH   3  18
ATOM     18  O   UNL     1       2.636   7.567  17.349  0.00  0.00    +0.000 OA
ATOM     19  C   UNL     1       2.408   8.890  17.810  0.00  0.00    +0.000 C 
ENDBRANCH   3  18
BRANCH   8  20
ATOM     20  O   UNL     1       0.331   4.065  20.330  0.00  0.00    +0.000 OA
ATOM     21  H   UNL     1      -0.115   3.556  19.611  0.00  0.00    +0.000 HD
ENDBRANCH   8  20
BRANCH  15  22
ATOM     22  O   UNL     1       7.385   4.931  18.555  0.00  0.00    +0.000 OA
ATOM     23  C   UNL     1       8.212   5.371  19.623  0.00  0.00    +0.000 C 
ENDBRANCH  15  22
TORSDOF 4
ENDMDL
MODEL 9
REMARK VINA RESULT:      -5.8      3.468      7.110
REMARK  Name = 
REMARK  7 active torsions:
REMARK  status: ('A' for Active; 'I' for Inactive)
REMARK    1  A    between atoms: C_1  and  O_2
REMARK    2  A    between atoms: O_2  and  C_3
REMARK    3  A    between atoms: C_5  and  O_6
REMARK    4  A    between atoms: O_6  and  C_7
REMARK    5  A    between atoms: C_12  and  O_13
REMARK    6  A    between atoms: C_20  and  O_21
REMARK    7  A    between atoms: O_21  and  C_22
REMARK                            x       y       z     vdW  Elec       q    Type
REMARK                         _______ _______ _______ _____ _____    ______ ____
ROOT
ATOM      1  C   UNL     1       4.433   4.774  18.275  0.00  0.00    +0.000 A 
ATOM      2  C   UNL     1       3.806   4.341  19.453  0.00  0.00    +0.000 A 
ATOM      3  C   UNL     1       2.879   5.132  20.128  0.00  0.00    +0.000 A 
ATOM      4  C   UNL     1       2.587   6.409  19.624  0.00  0.00    +0.000 A 
ATOM      5  C   UNL     1       1.600   7.292  20.278  0.00  0.00    +0.000 A 
ATOM      6  O   UNL     1       0.946   6.979  21.269  0.00  0.00    +0.000 OA
ATOM      7  C   UNL     1       1.382   8.618  19.704  0.00  0.00    +0.000 A 
ATOM      8  C   UNL     1       0.469   9.516  20.276  0.00  0.00    +0.000 A 
ATOM      9  C   UNL     1       0.280  10.773  19.716  0.00  0.00    +0.000 A 
ATOM     10  C   UNL     1       1.002  11.136  18.581  0.00  0.00    +0.000 A 
ATOM     11  C   UNL     1       1.912  10.239  18.009  0.00  0.00    +0.000 A 
ATOM     12  C   UNL     1       2.103   8.972  18.573  0.00  0.00    +0.000 A 
ATOM     13  O   UNL     1       3.007   8.145  17.953  0.00  0.00    +0.000 OA
ATOM     14  C   UNL     1       3.236   6.884  18.477  0.00  0.00    +0.000 A 
ATOM     15  C   UNL     1       4.173   6.070  17.791  0.00  0.00    +0.000 A 
ENDROOT
BRANCH   1  17
ATOM     16  C   UNL     1       4.943   3.492  16.335  0.00  0.00    +0.000 C 
ATOM     17  O   UNL     1       5.329   3.964  17.624  0.00  0.00    +0.000 OA
ENDBRANCH   1  17
BRANCH   3  18
ATOM     18  O   UNL     1       2.234   4.728  21.264  0.00  0.00    +0.000 OA
ATOM     19  C   UNL     1       2.168   3.341  21.556  0.00  0.00    +0.000 C 
ENDBRANCH   3  18
BRANCH   8  20
ATOM     20  O   UNL     1      -0.272   9.219  21.389  0.00  0.00    +0.000 OA
ATOM     21  H   UNL     1      -1.145   8.877  21.080  0.00  0.00    +0.000 HD
ENDBRANCH   8  20
BRANCH  15  22
ATOM     22  O   UNL     1       4.729   6.667  16.684  0.00  0.00    +0.000 OA
ATOM     23  C   UNL     1       6.102   7.031  16.698  0.00  0.00    +0.000 C 
ENDBRANCH  15  22
TORSDOF 4
ENDMDL
