MODEL 1
REMARK VINA RESULT:      -7.1      0.000      0.000
REMARK  Name = 
REMARK  4 active torsions:
REMARK  status: ('A' for Active; 'I' for Inactive)
REMARK    1  A    between atoms: C_1  and  C_2
REMARK    2  A    between atoms: C_6  and  C_7
REMARK    3  A    between atoms: C_10  and  C_11
REMARK    4  A    between atoms: C_18  and  C_19
REMARK                            x       y       z     vdW  Elec       q    Type
REMARK                         _______ _______ _______ _____ _____    ______ ____
ROOT
ATOM      1  C   UNL     1       4.804   4.882  16.491  0.00  0.00    +0.000 A 
ATOM      2  C   UNL     1       4.442   6.143  16.978  0.00  0.00    +0.000 A 
ATOM      3  C   UNL     1       3.628   6.259  18.111  0.00  0.00    +0.000 A 
ATOM      4  C   UNL     1       3.165   5.116  18.782  0.00  0.00    +0.000 A 
ATOM      5  C   UNL     1       3.552   3.854  18.312  0.00  0.00    +0.000 A 
ATOM      6  C   UNL     1       4.363   3.741  17.180  0.00  0.00    +0.000 A 
ENDROOT
BRANCH   1  12
ATOM      7  C   UNL     1       5.281   2.541  11.875  0.00  0.00    +0.000 C 
ATOM      8  C   UNL     1       6.423   3.469  12.167  0.00  0.00    +0.000 C 
ATOM      9  O   UNL     1       7.374   3.668  11.415  0.00  0.00    +0.000 OA
ATOM     10  N   UNL     1       6.351   4.139  13.397  0.00  0.00    +0.000 N 
ATOM     11  N   UNL     1       5.317   3.922  14.259  0.00  0.00    +0.000 NA
ATOM     12  C   UNL     1       5.612   4.728  15.287  0.00  0.00    +0.000 A 
ATOM     13  N   UNL     1       6.777   5.430  15.126  0.00  0.00    +0.000 NA
ATOM     14  C   UNL     1       7.208   5.083  13.933  0.00  0.00    +0.000 A 
ATOM     15  C   UNL     1       8.389   5.669  13.259  0.00  0.00    +0.000 C 
ENDBRANCH   1  12
BRANCH   4  16
ATOM     16  C   UNL     1       2.253   5.232  19.980  0.00  0.00    +0.000 C 
ATOM     17  F   UNL     1       1.057   4.601  19.814  0.00  0.00    +0.000 F 
ATOM     18  F   UNL     1       2.804   4.695  21.103  0.00  0.00    +0.000 F 
ATOM     19  F   UNL     1       1.953   6.524  20.290  0.00  0.00    +0.000 F 
ENDBRANCH   4  16
TORSDOF 2
ENDMDL
MODEL 2
REMARK VINA RESULT:      -6.9      5.239      6.912
REMARK  Name = 
REMARK  4 active torsions:
REMARK  status: ('A' for Active; 'I' for Inactive)
REMARK    1  A    between atoms: C_1  and  C_2
REMARK    2  A    between atoms: C_6  and  C_7
REMARK    3  A    between atoms: C_10  and  C_11
REMARK    4  A    between atoms: C_18  and  C_19
REMARK                            x       y       z     vdW  Elec       q    Type
REMARK                         _______ _______ _______ _____ _____    ______ ____
ROOT
ATOM      1  C   UNL     1       1.990   7.729  19.535  0.00  0.00    +0.000 A 
ATOM      2  C   UNL     1       2.107   8.375  18.300  0.00  0.00    +0.000 A 
ATOM      3  C   UNL     1       1.560   9.650  18.112  0.00  0.00    +0.000 A 
ATOM      4  C   UNL     1       0.892  10.306  19.158  0.00  0.00    +0.000 A 
ATOM      5  C   UNL     1       0.802   9.671  20.404  0.00  0.00    +0.000 A 
ATOM      6  C   UNL     1       1.347   8.397  20.588  0.00  0.00    +0.000 A 
ENDROOT
BRANCH   1  12
ATOM      7  C   UNL     1       5.757   4.323  18.427  0.00  0.00    +0.000 C 
ATOM      8  C   UNL     1       4.724   3.752  19.353  0.00  0.00    +0.000 C 
ATOM      9  O   UNL     1       4.744   2.611  19.809  0.00  0.00    +0.000 OA
ATOM     10  N   UNL     1       3.681   4.624  19.698  0.00  0.00    +0.000 N 
ATOM     11  N   UNL     1       3.622   5.889  19.190  0.00  0.00    +0.000 NA
ATOM     12  C   UNL     1       2.509   6.382  19.748  0.00  0.00    +0.000 A 
ATOM     13  N   UNL     1       1.857   5.497  20.566  0.00  0.00    +0.000 NA
ATOM     14  C   UNL     1       2.614   4.422  20.555  0.00  0.00    +0.000 A 
ATOM     15  C   UNL     1       2.383   3.219  21.387  0.00  0.00    +0.000 C 
ENDBRANCH   1  12
BRANCH   4  16
ATOM     16  C   UNL     1       0.265  11.663  18.952  0.00  0.00    +0.000 C 
ATOM     17  F   UNL     1      -0.108  12.270  20.113  0.00  0.00    +0.000 F 
ATOM     18  F   UNL     1       1.108  12.534  18.331  0.00  0.00    +0.000 F 
ATOM     19  F   UNL     1      -0.857  11.613  18.180  0.00  0.00    +0.000 F 
ENDBRANCH   4  16
TORSDOF 2
ENDMDL
MODEL 3
REMARK VINA RESULT:      -6.9      0.177      1.411
REMARK  Name = 
REMARK  4 active torsions:
REMARK  status: ('A' for Active; 'I' for Inactive)
REMARK    1  A    between atoms: C_1  and  C_2
REMARK    2  A    between atoms: C_6  and  C_7
REMARK    3  A    between atoms: C_10  and  C_11
REMARK    4  A    between atoms: C_18  and  C_19
REMARK                            x       y       z     vdW  Elec       q    Type
REMARK                         _______ _______ _______ _____ _____    ______ ____
ROOT
ATOM      1  C   UNL     1       4.616   4.801  16.487  0.00  0.00    +0.000 A 
ATOM      2  C   UNL     1       3.977   3.693  17.056  0.00  0.00    +0.000 A 
ATOM      3  C   UNL     1       3.195   3.840  18.208  0.00  0.00    +0.000 A 
ATOM      4  C   UNL     1       3.031   5.098  18.808  0.00  0.00    +0.000 A 
ATOM      5  C   UNL     1       3.647   6.212  18.221  0.00  0.00    +0.000 A 
ATOM      6  C   UNL     1       4.429   6.062  17.073  0.00  0.00    +0.000 A 
ENDROOT
BRANCH   1  12
ATOM      7  C   UNL     1       5.280   2.568  11.840  0.00  0.00    +0.000 C 
ATOM      8  C   UNL     1       6.412   3.482  12.203  0.00  0.00    +0.000 C 
ATOM      9  O   UNL     1       7.396   3.694  11.498  0.00  0.00    +0.000 OA
ATOM     10  N   UNL     1       6.292   4.123  13.445  0.00  0.00    +0.000 N 
ATOM     11  N   UNL     1       5.220   3.891  14.257  0.00  0.00    +0.000 NA
ATOM     12  C   UNL     1       5.475   4.671  15.315  0.00  0.00    +0.000 A 
ATOM     13  N   UNL     1       6.649   5.370  15.221  0.00  0.00    +0.000 NA
ATOM     14  C   UNL     1       7.129   5.049  14.040  0.00  0.00    +0.000 A 
ATOM     15  C   UNL     1       8.340   5.644  13.431  0.00  0.00    +0.000 C 
ENDBRANCH   1  12
BRANCH   4  16
ATOM     16  C   UNL     1       2.223   5.258  20.074  0.00  0.00    +0.000 C 
ATOM     17  F   UNL     1       1.983   6.558  20.403  0.00  0.00    +0.000 F 
ATOM     18  F   UNL     1       1.000   4.666  19.985  0.00  0.00    +0.000 F 
ATOM     19  F   UNL     1       2.830   4.704  21.160  0.00  0.00    +0.000 F 
ENDBRANCH   4  16
TORSDOF 2
ENDMDL
MODEL 4
REMARK VINA RESULT:      -6.9      5.269      6.909
REMARK  Name = 
REMARK  4 active torsions:
REMARK  status: ('A' for Active; 'I' for Inactive)
REMARK    1  A    between atoms: C_1  and  C_2
REMARK    2  A    between atoms: C_6  and  C_7
REMARK    3  A    between atoms: C_10  and  C_11
REMARK    4  A    between atoms: C_18  and  C_19
REMARK                            x       y       z     vdW  Elec       q    Type
REMARK                         _______ _______ _______ _____ _____    ______ ____
ROOT
ATOM      1  C   UNL     1       1.941   7.732  19.550  0.00  0.00    +0.000 A 
ATOM      2  C   UNL     1       1.298   8.430  20.579  0.00  0.00    +0.000 A 
ATOM      3  C   UNL     1       0.834   9.733  20.369  0.00  0.00    +0.000 A 
ATOM      4  C   UNL     1       0.996  10.361  19.124  0.00  0.00    +0.000 A 
ATOM      5  C   UNL     1       1.612   9.651  18.084  0.00  0.00    +0.000 A 
ATOM      6  C   UNL     1       2.078   8.351  18.298  0.00  0.00    +0.000 A 
ENDROOT
BRANCH   1  12
ATOM      7  C   UNL     1       5.778   4.401  18.455  0.00  0.00    +0.000 C 
ATOM      8  C   UNL     1       4.740   3.802  19.358  0.00  0.00    +0.000 C 
ATOM      9  O   UNL     1       4.772   2.655  19.800  0.00  0.00    +0.000 OA
ATOM     10  N   UNL     1       3.678   4.653  19.698  0.00  0.00    +0.000 N 
ATOM     11  N   UNL     1       3.607   5.923  19.206  0.00  0.00    +0.000 NA
ATOM     12  C   UNL     1       2.478   6.391  19.753  0.00  0.00    +0.000 A 
ATOM     13  N   UNL     1       1.829   5.485  20.550  0.00  0.00    +0.000 NA
ATOM     14  C   UNL     1       2.603   4.423  20.536  0.00  0.00    +0.000 A 
ATOM     15  C   UNL     1       2.379   3.205  21.349  0.00  0.00    +0.000 C 
ENDBRANCH   1  12
BRANCH   4  16
ATOM     16  C   UNL     1       0.533  11.781  18.902  0.00  0.00    +0.000 C 
ATOM     17  F   UNL     1      -0.601  11.871  18.152  0.00  0.00    +0.000 F 
ATOM     18  F   UNL     1       0.258  12.425  20.070  0.00  0.00    +0.000 F 
ATOM     19  F   UNL     1       1.464  12.544  18.263  0.00  0.00    +0.000 F 
ENDBRANCH   4  16
TORSDOF 2
ENDMDL
MODEL 5
REMARK VINA RESULT:      -6.9      5.289      6.831
REMARK  Name = 
REMARK  4 active torsions:
REMARK  status: ('A' for Active; 'I' for Inactive)
REMARK    1  A    between atoms: C_1  and  C_2
REMARK    2  A    between atoms: C_6  and  C_7
REMARK    3  A    between atoms: C_10  and  C_11
REMARK    4  A    between atoms: C_18  and  C_19
REMARK                            x       y       z     vdW  Elec       q    Type
REMARK                         _______ _______ _______ _____ _____    ______ ____
ROOT
ATOM      1  C   UNL     1       2.114   7.621  19.292  0.00  0.00    +0.000 A 
ATOM      2  C   UNL     1       2.106   8.278  18.057  0.00  0.00    +0.000 A 
ATOM      3  C   UNL     1       1.454   9.509  17.913  0.00  0.00    +0.000 A 
ATOM      4  C   UNL     1       0.805  10.109  19.003  0.00  0.00    +0.000 A 
ATOM      5  C   UNL     1       0.840   9.465  20.248  0.00  0.00    +0.000 A 
ATOM      6  C   UNL     1       1.489   8.236  20.388  0.00  0.00    +0.000 A 
ENDROOT
BRANCH   1  12
ATOM      7  C   UNL     1       1.805   2.926  21.502  0.00  0.00    +0.000 C 
ATOM      8  C   UNL     1       3.042   3.086  20.668  0.00  0.00    +0.000 C 
ATOM      9  O   UNL     1       3.899   2.219  20.512  0.00  0.00    +0.000 OA
ATOM     10  N   UNL     1       3.183   4.331  20.037  0.00  0.00    +0.000 N 
ATOM     11  N   UNL     1       2.256   5.318  20.209  0.00  0.00    +0.000 NA
ATOM     12  C   UNL     1       2.744   6.316  19.462  0.00  0.00    +0.000 A 
ATOM     13  N   UNL     1       3.928   6.019  18.840  0.00  0.00    +0.000 NA
ATOM     14  C   UNL     1       4.171   4.772  19.176  0.00  0.00    +0.000 A 
ATOM     15  C   UNL     1       5.294   3.960  18.653  0.00  0.00    +0.000 C 
ENDBRANCH   1  12
BRANCH   4  16
ATOM     16  C   UNL     1       0.066  11.416  18.846  0.00  0.00    +0.000 C 
ATOM     17  F   UNL     1       0.848  12.429  18.379  0.00  0.00    +0.000 F 
ATOM     18  F   UNL     1      -0.977  11.320  17.975  0.00  0.00    +0.000 F 
ATOM     19  F   UNL     1      -0.465  11.865  20.017  0.00  0.00    +0.000 F 
ENDBRANCH   4  16
TORSDOF 2
ENDMDL
MODEL 6
REMARK VINA RESULT:      -6.8      4.213      5.760
REMARK  Name = 
REMARK  4 active torsions:
REMARK  status: ('A' for Active; 'I' for Inactive)
REMARK    1  A    between atoms: C_1  and  C_2
REMARK    2  A    between atoms: C_6  and  C_7
REMARK    3  A    between atoms: C_10  and  C_11
REMARK    4  A    between atoms: C_18  and  C_19
REMARK                            x       y       z     vdW  Elec       q    Type
REMARK                         _______ _______ _______ _____ _____    ______ ____
ROOT
ATOM      1  C   UNL     1       2.257   7.316  18.691  0.00  0.00    +0.000 A 
ATOM      2  C   UNL     1       2.157   8.339  17.740  0.00  0.00    +0.000 A 
ATOM      3  C   UNL     1       1.618   9.582  18.090  0.00  0.00    +0.000 A 
ATOM      4  C   UNL     1       1.175   9.830  19.398  0.00  0.00    +0.000 A 
ATOM      5  C   UNL     1       1.303   8.816  20.358  0.00  0.00    +0.000 A 
ATOM      6  C   UNL     1       1.839   7.575  20.006  0.00  0.00    +0.000 A 
ENDROOT
BRANCH   1  12
ATOM      7  C   UNL     1       1.642   2.177  19.174  0.00  0.00    +0.000 C 
ATOM      8  C   UNL     1       2.836   2.535  18.338  0.00  0.00    +0.000 C 
ATOM      9  O   UNL     1       3.596   1.722  17.817  0.00  0.00    +0.000 OA
ATOM     10  N   UNL     1       3.054   3.910  18.162  0.00  0.00    +0.000 N 
ATOM     11  N   UNL     1       2.237   4.834  18.745  0.00  0.00    +0.000 NA
ATOM     12  C   UNL     1       2.770   5.995  18.345  0.00  0.00    +0.000 A 
ATOM     13  N   UNL     1       3.881   5.856  17.555  0.00  0.00    +0.000 NA
ATOM     14  C   UNL     1       4.025   4.556  17.420  0.00  0.00    +0.000 A 
ATOM     15  C   UNL     1       5.033   3.905  16.551  0.00  0.00    +0.000 C 
ENDBRANCH   1  12
BRANCH   4  16
ATOM     16  C   UNL     1       0.555  11.155  19.773  0.00  0.00    +0.000 C 
ATOM     17  F   UNL     1       0.279  11.947  18.700  0.00  0.00    +0.000 F 
ATOM     18  F   UNL     1      -0.624  11.005  20.438  0.00  0.00    +0.000 F 
ATOM     19  F   UNL     1       1.354  11.898  20.589  0.00  0.00    +0.000 F 
ENDBRANCH   4  16
TORSDOF 2
ENDMDL
MODEL 7
REMARK VINA RESULT:      -6.8      5.229      6.805
REMARK  Name = 
REMARK  4 active torsions:
REMARK  status: ('A' for Active; 'I' for Inactive)
REMARK    1  A    between atoms: C_1  and  C_2
REMARK    2  A    between atoms: C_6  and  C_7
REMARK    3  A    between atoms: C_10  and  C_11
REMARK    4  A    between atoms: C_18  and  C_19
REMARK                            x       y       z     vdW  Elec       q    Type
REMARK                         _______ _______ _______ _____ _____    ______ ____
ROOT
ATOM      1  C   UNL     1       2.098   7.612  19.333  0.00  0.00    +0.000 A 
ATOM      2  C   UNL     1       1.473   8.228  20.424  0.00  0.00    +0.000 A 
ATOM      3  C   UNL     1       0.883   9.489  20.283  0.00  0.00    +0.000 A 
ATOM      4  C   UNL     1       0.900  10.156  19.048  0.00  0.00    +0.000 A 
ATOM      5  C   UNL     1       1.499   9.525  17.948  0.00  0.00    +0.000 A 
ATOM      6  C   UNL     1       2.090   8.268  18.092  0.00  0.00    +0.000 A 
ENDROOT
BRANCH   1  12
ATOM      7  C   UNL     1       2.030   2.918  21.566  0.00  0.00    +0.000 C 
ATOM      8  C   UNL     1       3.203   3.099  20.648  0.00  0.00    +0.000 C 
ATOM      9  O   UNL     1       4.063   2.247  20.434  0.00  0.00    +0.000 OA
ATOM     10  N   UNL     1       3.277   4.344  20.007  0.00  0.00    +0.000 N 
ATOM     11  N   UNL     1       2.347   5.314  20.242  0.00  0.00    +0.000 NA
ATOM     12  C   UNL     1       2.763   6.319  19.461  0.00  0.00    +0.000 A 
ATOM     13  N   UNL     1       3.905   6.042  18.758  0.00  0.00    +0.000 NA
ATOM     14  C   UNL     1       4.194   4.801  19.078  0.00  0.00    +0.000 A 
ATOM     15  C   UNL     1       5.293   4.008  18.480  0.00  0.00    +0.000 C 
ENDBRANCH   1  12
BRANCH   4  16
ATOM     16  C   UNL     1       0.301  11.534  18.898  0.00  0.00    +0.000 C 
ATOM     17  F   UNL     1      -0.131  12.068  20.074  0.00  0.00    +0.000 F 
ATOM     18  F   UNL     1       1.189  12.431  18.386  0.00  0.00    +0.000 F 
ATOM     19  F   UNL     1      -0.774  11.552  18.062  0.00  0.00    +0.000 F 
ENDBRANCH   4  16
TORSDOF 2
ENDMDL
MODEL 8
REMARK VINA RESULT:      -6.8      0.646      1.226
REMARK  Name = 
REMARK  4 active torsions:
REMARK  status: ('A' for Active; 'I' for Inactive)
REMARK    1  A    between atoms: C_1  and  C_2
REMARK    2  A    between atoms: C_6  and  C_7
REMARK    3  A    between atoms: C_10  and  C_11
REMARK    4  A    between atoms: C_18  and  C_19
REMARK                            x       y       z     vdW  Elec       q    Type
REMARK                         _______ _______ _______ _____ _____    ______ ____
ROOT
ATOM      1  C   UNL     1       4.331   4.683  16.802  0.00  0.00    +0.000 A 
ATOM      2  C   UNL     1       3.430   3.658  17.113  0.00  0.00    +0.000 A 
ATOM      3  C   UNL     1       2.621   3.747  18.252  0.00  0.00    +0.000 A 
ATOM      4  C   UNL     1       2.691   4.866  19.096  0.00  0.00    +0.000 A 
ATOM      5  C   UNL     1       3.571   5.906  18.768  0.00  0.00    +0.000 A 
ATOM      6  C   UNL     1       4.380   5.813  17.633  0.00  0.00    +0.000 A 
ENDROOT
BRANCH   1  12
ATOM      7  C   UNL     1       4.967   2.916  11.955  0.00  0.00    +0.000 C 
ATOM      8  C   UNL     1       6.167   3.667  12.453  0.00  0.00    +0.000 C 
ATOM      9  O   UNL     1       7.194   3.855  11.806  0.00  0.00    +0.000 OA
ATOM     10  N   UNL     1       6.057   4.177  13.755  0.00  0.00    +0.000 N 
ATOM     11  N   UNL     1       4.935   3.967  14.502  0.00  0.00    +0.000 NA
ATOM     12  C   UNL     1       5.221   4.597  15.649  0.00  0.00    +0.000 A 
ATOM     13  N   UNL     1       6.460   5.181  15.670  0.00  0.00    +0.000 NA
ATOM     14  C   UNL     1       6.954   4.944  14.476  0.00  0.00    +0.000 A 
ATOM     15  C   UNL     1       8.241   5.478  13.974  0.00  0.00    +0.000 C 
ENDBRANCH   1  12
BRANCH   4  16
ATOM     16  C   UNL     1       1.850   4.951  20.348  0.00  0.00    +0.000 C 
ATOM     17  F   UNL     1       0.671   4.275  20.256  0.00  0.00    +0.000 F 
ATOM     18  F   UNL     1       2.489   4.439  21.436  0.00  0.00    +0.000 F 
ATOM     19  F   UNL     1       1.521   6.232  20.675  0.00  0.00    +0.000 F 
ENDBRANCH   4  16
TORSDOF 2
ENDMDL
MODEL 9
REMARK VINA RESULT:      -6.8      0.574      1.042
REMARK  Name = 
REMARK  4 active torsions:
REMARK  status: ('A' for Active; 'I' for Inactive)
REMARK    1  A    between atoms: C_1  and  C_2
REMARK    2  A    between atoms: C_6  and  C_7
REMARK    3  A    between atoms: C_10  and  C_11
REMARK    4  A    between atoms: C_18  and  C_19
REMARK                            x       y       z     vdW  Elec       q    Type
REMARK                         _______ _______ _______ _____ _____    ______ ____
ROOT
ATOM      1  C   UNL     1       4.478   4.646  16.825  0.00  0.00    +0.000 A 
ATOM      2  C   UNL     1       4.219   5.864  17.463  0.00  0.00    +0.000 A 
ATOM      3  C   UNL     1       3.376   5.915  18.580  0.00  0.00    +0.000 A 
ATOM      4  C   UNL     1       2.782   4.748  19.084  0.00  0.00    +0.000 A 
ATOM      5  C   UNL     1       3.066   3.523  18.464  0.00  0.00    +0.000 A 
ATOM      6  C   UNL     1       3.905   3.476  17.348  0.00  0.00    +0.000 A 
ENDROOT
BRANCH   1  12
ATOM      7  C   UNL     1       4.881   2.934  11.934  0.00  0.00    +0.000 C 
ATOM      8  C   UNL     1       6.107   3.670  12.386  0.00  0.00    +0.000 C 
ATOM      9  O   UNL     1       7.106   3.859  11.695  0.00  0.00    +0.000 OA
ATOM     10  N   UNL     1       6.061   4.165  13.697  0.00  0.00    +0.000 N 
ATOM     11  N   UNL     1       4.972   3.954  14.492  0.00  0.00    +0.000 NA
ATOM     12  C   UNL     1       5.314   4.568  15.632  0.00  0.00    +0.000 A 
ATOM     13  N   UNL     1       6.557   5.142  15.604  0.00  0.00    +0.000 NA
ATOM     14  C   UNL     1       6.995   4.917  14.386  0.00  0.00    +0.000 A 
ATOM     15  C   UNL     1       8.263   5.448  13.833  0.00  0.00    +0.000 C 
ENDBRANCH   1  12
BRANCH   4  16
ATOM     16  C   UNL     1       1.840   4.800  20.263  0.00  0.00    +0.000 C 
ATOM     17  F   UNL     1       1.505   6.068  20.634  0.00  0.00    +0.000 F 
ATOM     18  F   UNL     1       0.663   4.162  20.013  0.00  0.00    +0.000 F 
ATOM     19  F   UNL     1       2.357   4.210  21.377  0.00  0.00    +0.000 F 
ENDBRANCH   4  16
TORSDOF 2
ENDMDL
