MODEL 1
REMARK VINA RESULT:      -8.0      0.000      0.000
REMARK  Name = 
REMARK  10 active torsions:
REMARK  status: ('A' for Active; 'I' for Inactive)
REMARK    1  A    between atoms: C_1  and  C_2
REMARK    2  A    between atoms: C_2  and  C_3
REMARK    3  A    between atoms: C_2  and  C_4
REMARK    4  A    between atoms: C_2  and  C_5
REMARK    5  A    between atoms: C_8  and  C_9
REMARK    6  A    between atoms: N_11  and  C_12
REMARK    7  A    between atoms: C_12  and  C_13
REMARK    8  A    between atoms: C_13  and  C_14
REMARK    9  A    between atoms: N_16  and  C_17
REMARK   10  A    between atoms: C_17  and  C_18
REMARK                            x       y       z     vdW  Elec       q    Type
REMARK                         _______ _______ _______ _____ _____    ______ ____
ROOT
ATOM      1  C   UNL     1       3.898   6.569  17.532  0.00  0.00    +0.000 C 
ATOM      2  O   UNL     1       3.551   5.447  17.174  0.00  0.00    +0.000 OA
ATOM      3  N   UNL     1       5.186   7.027  17.344  0.00  0.00    +0.000 N 
ATOM      4  H   UNL     1       5.469   7.940  17.661  0.00  0.00    +0.000 HD
ENDROOT
BRANCH   1   8
ATOM      5  C   UNL     1       1.123   9.149  19.668  0.00  0.00    +0.000 A 
ATOM      6  C   UNL     1       1.631   7.966  20.218  0.00  0.00    +0.000 A 
ATOM      7  C   UNL     1       2.513   7.147  19.501  0.00  0.00    +0.000 A 
ATOM      8  C   UNL     1       2.916   7.479  18.205  0.00  0.00    +0.000 A 
ATOM      9  C   UNL     1       2.394   8.641  17.628  0.00  0.00    +0.000 A 
ATOM     10  C   UNL     1       1.508   9.458  18.350  0.00  0.00    +0.000 A 
BRANCH   5  12
ATOM     11  C   UNL     1      -1.030  10.564  19.668  0.00  0.00    +0.000 C 
ATOM     12  C   UNL     1       0.212  10.105  20.466  0.00  0.00    +0.000 C 
ATOM     13  C   UNL     1       0.979  11.372  20.890  0.00  0.00    +0.000 C 
ATOM     14  C   UNL     1      -0.300   9.389  21.738  0.00  0.00    +0.000 C 
ENDBRANCH   5  12
ENDBRANCH   1   8
BRANCH   3  15
ATOM     15  C   UNL     1       6.193   6.199  16.703  0.00  0.00    +0.000 C 
BRANCH  15  16
ATOM     16  C   UNL     1       7.343   5.866  17.640  0.00  0.00    +0.000 C 
BRANCH  16  17
ATOM     17  C   UNL     1       6.807   5.154  18.860  0.00  0.00    +0.000 C 
ATOM     18  O   UNL     1       7.131   5.488  19.995  0.00  0.00    +0.000 OA
ATOM     19  N   UNL     1       5.993   4.081  18.586  0.00  0.00    +0.000 N 
ATOM     20  H   UNL     1       5.640   3.955  17.645  0.00  0.00    +0.000 HD
BRANCH  19  21
ATOM     21  C   UNL     1       5.372   3.323  19.650  0.00  0.00    +0.000 C 
BRANCH  21  22
ATOM     22  C   UNL     1       3.916   3.052  19.366  0.00  0.00    +0.000 A 
ATOM     23  C   UNL     1       3.548   2.280  18.251  0.00  0.00    +0.000 A 
ATOM     24  C   UNL     1       2.207   1.983  18.004  0.00  0.00    +0.000 A 
ATOM     25  C   UNL     1       1.232   2.452  18.875  0.00  0.00    +0.000 A 
ATOM     26  F   UNL     1      -0.055   2.157  18.644  0.00  0.00    +0.000 F 
ATOM     27  C   UNL     1       1.571   3.218  19.983  0.00  0.00    +0.000 A 
ATOM     28  C   UNL     1       2.912   3.518  20.231  0.00  0.00    +0.000 A 
ENDBRANCH  21  22
ENDBRANCH  19  21
ENDBRANCH  16  17
ENDBRANCH  15  16
ENDBRANCH   3  15
TORSDOF 7
ENDMDL
MODEL 2
REMARK VINA RESULT:      -7.9      0.324      1.371
REMARK  Name = 
REMARK  10 active torsions:
REMARK  status: ('A' for Active; 'I' for Inactive)
REMARK    1  A    between atoms: C_1  and  C_2
REMARK    2  A    between atoms: C_2  and  C_3
REMARK    3  A    between atoms: C_2  and  C_4
REMARK    4  A    between atoms: C_2  and  C_5
REMARK    5  A    between atoms: C_8  and  C_9
REMARK    6  A    between atoms: N_11  and  C_12
REMARK    7  A    between atoms: C_12  and  C_13
REMARK    8  A    between atoms: C_13  and  C_14
REMARK    9  A    between atoms: N_16  and  C_17
REMARK   10  A    between atoms: C_17  and  C_18
REMARK                            x       y       z     vdW  Elec       q    Type
REMARK                         _______ _______ _______ _____ _____    ______ ____
ROOT
ATOM      1  C   UNL     1       4.105   6.344  17.489  0.00  0.00    +0.000 C 
ATOM      2  O   UNL     1       3.714   5.289  16.998  0.00  0.00    +0.000 OA
ATOM      3  N   UNL     1       5.406   6.778  17.338  0.00  0.00    +0.000 N 
ATOM      4  H   UNL     1       5.725   7.634  17.762  0.00  0.00    +0.000 HD
ENDROOT
BRANCH   1   8
ATOM      5  C   UNL     1       1.298   8.887  19.628  0.00  0.00    +0.000 A 
ATOM      6  C   UNL     1       1.786   9.204  18.354  0.00  0.00    +0.000 A 
ATOM      7  C   UNL     1       2.701   8.373  17.695  0.00  0.00    +0.000 A 
ATOM      8  C   UNL     1       3.164   7.195  18.287  0.00  0.00    +0.000 A 
ATOM      9  C   UNL     1       2.711   6.877  19.571  0.00  0.00    +0.000 A 
ATOM     10  C   UNL     1       1.794   7.715  20.229  0.00  0.00    +0.000 A 
BRANCH   5  12
ATOM     11  C   UNL     1      -0.907  10.199  19.399  0.00  0.00    +0.000 C 
ATOM     12  C   UNL     1       0.233   9.746  20.340  0.00  0.00    +0.000 C 
ATOM     13  C   UNL     1       0.863  11.017  20.942  0.00  0.00    +0.000 C 
ATOM     14  C   UNL     1      -0.414   8.928  21.481  0.00  0.00    +0.000 C 
ENDBRANCH   5  12
ENDBRANCH   1   8
BRANCH   3  15
ATOM     15  C   UNL     1       6.375   6.003  16.581  0.00  0.00    +0.000 C 
BRANCH  15  16
ATOM     16  C   UNL     1       7.414   5.351  17.479  0.00  0.00    +0.000 C 
BRANCH  16  17
ATOM     17  C   UNL     1       6.767   4.940  18.780  0.00  0.00    +0.000 C 
ATOM     18  O   UNL     1       6.986   5.543  19.826  0.00  0.00    +0.000 OA
ATOM     19  N   UNL     1       5.980   3.817  18.700  0.00  0.00    +0.000 N 
ATOM     20  H   UNL     1       5.714   3.463  17.789  0.00  0.00    +0.000 HD
BRANCH  19  21
ATOM     21  C   UNL     1       5.262   3.324  19.855  0.00  0.00    +0.000 C 
BRANCH  21  22
ATOM     22  C   UNL     1       3.841   2.951  19.512  0.00  0.00    +0.000 A 
ATOM     23  C   UNL     1       2.796   3.272  20.395  0.00  0.00    +0.000 A 
ATOM     24  C   UNL     1       1.473   2.974  20.068  0.00  0.00    +0.000 A 
ATOM     25  C   UNL     1       1.191   2.359  18.855  0.00  0.00    +0.000 A 
ATOM     26  F   UNL     1      -0.081   2.082  18.536  0.00  0.00    +0.000 F 
ATOM     27  C   UNL     1       2.207   2.029  17.967  0.00  0.00    +0.000 A 
ATOM     28  C   UNL     1       3.532   2.326  18.293  0.00  0.00    +0.000 A 
ENDBRANCH  21  22
ENDBRANCH  19  21
ENDBRANCH  16  17
ENDBRANCH  15  16
ENDBRANCH   3  15
TORSDOF 7
ENDMDL
MODEL 3
REMARK VINA RESULT:      -7.8      0.317      1.314
REMARK  Name = 
REMARK  10 active torsions:
REMARK  status: ('A' for Active; 'I' for Inactive)
REMARK    1  A    between atoms: C_1  and  C_2
REMARK    2  A    between atoms: C_2  and  C_3
REMARK    3  A    between atoms: C_2  and  C_4
REMARK    4  A    between atoms: C_2  and  C_5
REMARK    5  A    between atoms: C_8  and  C_9
REMARK    6  A    between atoms: N_11  and  C_12
REMARK    7  A    between atoms: C_12  and  C_13
REMARK    8  A    between atoms: C_13  and  C_14
REMARK    9  A    between atoms: N_16  and  C_17
REMARK   10  A    between atoms: C_17  and  C_18
REMARK                            x       y       z     vdW  Elec       q    Type
REMARK                         _______ _______ _______ _____ _____    ______ ____
ROOT
ATOM      1  C   UNL     1       3.623   6.544  17.605  0.00  0.00    +0.000 C 
ATOM      2  O   UNL     1       3.240   5.403  17.365  0.00  0.00    +0.000 OA
ATOM      3  N   UNL     1       4.895   6.968  17.278  0.00  0.00    +0.000 N 
ATOM      4  H   UNL     1       5.209   7.900  17.499  0.00  0.00    +0.000 HD
ENDROOT
BRANCH   1   8
ATOM      5  C   UNL     1       1.046   9.317  19.747  0.00  0.00    +0.000 A 
ATOM      6  C   UNL     1       1.570   8.162  20.339  0.00  0.00    +0.000 A 
ATOM      7  C   UNL     1       2.386   7.279  19.620  0.00  0.00    +0.000 A 
ATOM      8  C   UNL     1       2.705   7.517  18.280  0.00  0.00    +0.000 A 
ATOM      9  C   UNL     1       2.165   8.650  17.664  0.00  0.00    +0.000 A 
ATOM     10  C   UNL     1       1.345   9.532  18.389  0.00  0.00    +0.000 A 
BRANCH   5  12
ATOM     11  C   UNL     1      -0.278   9.801  21.904  0.00  0.00    +0.000 C 
ATOM     12  C   UNL     1       0.208  10.343  20.540  0.00  0.00    +0.000 C 
ATOM     13  C   UNL     1      -1.041  10.768  19.743  0.00  0.00    +0.000 C 
ATOM     14  C   UNL     1       1.064  11.599  20.824  0.00  0.00    +0.000 C 
ENDBRANCH   5  12
ENDBRANCH   1   8
BRANCH   3  15
ATOM     15  C   UNL     1       5.841   6.079  16.626  0.00  0.00    +0.000 C 
BRANCH  15  16
ATOM     16  C   UNL     1       7.013   5.728  17.528  0.00  0.00    +0.000 C 
BRANCH  16  17
ATOM     17  C   UNL     1       6.498   5.083  18.793  0.00  0.00    +0.000 C 
ATOM     18  O   UNL     1       6.681   5.591  19.895  0.00  0.00    +0.000 OA
ATOM     19  N   UNL     1       5.878   3.871  18.608  0.00  0.00    +0.000 N 
ATOM     20  H   UNL     1       5.620   3.585  17.671  0.00  0.00    +0.000 HD
BRANCH  19  21
ATOM     21  C   UNL     1       5.298   3.151  19.720  0.00  0.00    +0.000 C 
BRANCH  21  22
ATOM     22  C   UNL     1       3.815   2.942  19.538  0.00  0.00    +0.000 A 
ATOM     23  C   UNL     1       2.901   3.636  20.349  0.00  0.00    +0.000 A 
ATOM     24  C   UNL     1       1.527   3.486  20.159  0.00  0.00    +0.000 A 
ATOM     25  C   UNL     1       1.063   2.647  19.154  0.00  0.00    +0.000 A 
ATOM     26  F   UNL     1      -0.257   2.512  18.964  0.00  0.00    +0.000 F 
ATOM     27  C   UNL     1       1.948   1.949  18.341  0.00  0.00    +0.000 A 
ATOM     28  C   UNL     1       3.323   2.096  18.530  0.00  0.00    +0.000 A 
ENDBRANCH  21  22
ENDBRANCH  19  21
ENDBRANCH  16  17
ENDBRANCH  15  16
ENDBRANCH   3  15
TORSDOF 7
ENDMDL
MODEL 4
REMARK VINA RESULT:      -7.6      1.470      2.054
REMARK  Name = 
REMARK  10 active torsions:
REMARK  status: ('A' for Active; 'I' for Inactive)
REMARK    1  A    between atoms: C_1  and  C_2
REMARK    2  A    between atoms: C_2  and  C_3
REMARK    3  A    between atoms: C_2  and  C_4
REMARK    4  A    between atoms: C_2  and  C_5
REMARK    5  A    between atoms: C_8  and  C_9
REMARK    6  A    between atoms: N_11  and  C_12
REMARK    7  A    between atoms: C_12  and  C_13
REMARK    8  A    between atoms: C_13  and  C_14
REMARK    9  A    between atoms: N_16  and  C_17
REMARK   10  A    between atoms: C_17  and  C_18
REMARK                            x       y       z     vdW  Elec       q    Type
REMARK                         _______ _______ _______ _____ _____    ______ ____
ROOT
ATOM      1  C   UNL     1       2.672   7.324  18.054  0.00  0.00    +0.000 C 
ATOM      2  O   UNL     1       2.313   6.153  18.133  0.00  0.00    +0.000 OA
ATOM      3  N   UNL     1       3.813   7.691  17.371  0.00  0.00    +0.000 N 
ATOM      4  H   UNL     1       4.112   8.652  17.330  0.00  0.00    +0.000 HD
ENDROOT
BRANCH   1   8
ATOM      5  C   UNL     1       0.435  10.399  20.168  0.00  0.00    +0.000 A 
ATOM      6  C   UNL     1       0.891   9.232  20.792  0.00  0.00    +0.000 A 
ATOM      7  C   UNL     1       1.597   8.251  20.083  0.00  0.00    +0.000 A 
ATOM      8  C   UNL     1       1.870   8.401  18.721  0.00  0.00    +0.000 A 
ATOM      9  C   UNL     1       1.396   9.546  18.073  0.00  0.00    +0.000 A 
ATOM     10  C   UNL     1       0.686  10.525  18.789  0.00  0.00    +0.000 A 
BRANCH   5  12
ATOM     11  C   UNL     1      -0.634  11.128  22.395  0.00  0.00    +0.000 C 
ATOM     12  C   UNL     1      -0.276  11.526  20.945  0.00  0.00    +0.000 C 
ATOM     13  C   UNL     1      -1.587  11.936  20.245  0.00  0.00    +0.000 C 
ATOM     14  C   UNL     1       0.648  12.763  21.024  0.00  0.00    +0.000 C 
ENDBRANCH   5  12
ENDBRANCH   1   8
BRANCH   3  15
ATOM     15  C   UNL     1       4.642   6.702  16.704  0.00  0.00    +0.000 C 
BRANCH  15  16
ATOM     16  C   UNL     1       5.780   6.218  17.588  0.00  0.00    +0.000 C 
BRANCH  16  17
ATOM     17  C   UNL     1       5.530   4.784  17.989  0.00  0.00    +0.000 C 
ATOM     18  O   UNL     1       6.315   4.169  18.704  0.00  0.00    +0.000 OA
ATOM     19  N   UNL     1       4.401   4.223  17.441  0.00  0.00    +0.000 N 
ATOM     20  H   UNL     1       3.718   4.823  16.994  0.00  0.00    +0.000 HD
BRANCH  19  21
ATOM     21  C   UNL     1       4.007   2.869  17.763  0.00  0.00    +0.000 C 
BRANCH  21  22
ATOM     22  C   UNL     1       3.137   2.818  18.994  0.00  0.00    +0.000 A 
ATOM     23  C   UNL     1       1.740   2.916  18.873  0.00  0.00    +0.000 A 
ATOM     24  C   UNL     1       0.922   2.823  20.000  0.00  0.00    +0.000 A 
ATOM     25  C   UNL     1       1.498   2.626  21.248  0.00  0.00    +0.000 A 
ATOM     26  F   UNL     1       0.711   2.526  22.329  0.00  0.00    +0.000 F 
ATOM     27  C   UNL     1       2.876   2.528  21.392  0.00  0.00    +0.000 A 
ATOM     28  C   UNL     1       3.697   2.622  20.267  0.00  0.00    +0.000 A 
ENDBRANCH  21  22
ENDBRANCH  19  21
ENDBRANCH  16  17
ENDBRANCH  15  16
ENDBRANCH   3  15
TORSDOF 7
ENDMDL
MODEL 5
REMARK VINA RESULT:      -7.5      2.572      4.624
REMARK  Name = 
REMARK  10 active torsions:
REMARK  status: ('A' for Active; 'I' for Inactive)
REMARK    1  A    between atoms: C_1  and  C_2
REMARK    2  A    between atoms: C_2  and  C_3
REMARK    3  A    between atoms: C_2  and  C_4
REMARK    4  A    between atoms: C_2  and  C_5
REMARK    5  A    between atoms: C_8  and  C_9
REMARK    6  A    between atoms: N_11  and  C_12
REMARK    7  A    between atoms: C_12  and  C_13
REMARK    8  A    between atoms: C_13  and  C_14
REMARK    9  A    between atoms: N_16  and  C_17
REMARK   10  A    between atoms: C_17  and  C_18
REMARK                            x       y       z     vdW  Elec       q    Type
REMARK                         _______ _______ _______ _____ _____    ______ ____
ROOT
ATOM      1  C   UNL     1       3.115   5.818  19.628  0.00  0.00    +0.000 C 
ATOM      2  O   UNL     1       4.341   5.792  19.687  0.00  0.00    +0.000 OA
ATOM      3  N   UNL     1       2.365   4.660  19.587  0.00  0.00    +0.000 N 
ATOM      4  H   UNL     1       1.360   4.689  19.516  0.00  0.00    +0.000 HD
ENDROOT
BRANCH   1   8
ATOM      5  C   UNL     1       0.986   9.598  19.310  0.00  0.00    +0.000 A 
ATOM      6  C   UNL     1       1.686   9.032  18.238  0.00  0.00    +0.000 A 
ATOM      7  C   UNL     1       2.376   7.820  18.373  0.00  0.00    +0.000 A 
ATOM      8  C   UNL     1       2.392   7.130  19.588  0.00  0.00    +0.000 A 
ATOM      9  C   UNL     1       1.723   7.695  20.678  0.00  0.00    +0.000 A 
ATOM     10  C   UNL     1       1.035   8.913  20.538  0.00  0.00    +0.000 A 
BRANCH   5  12
ATOM     11  C   UNL     1       1.002  12.100  18.697  0.00  0.00    +0.000 C 
ATOM     12  C   UNL     1       0.158  10.891  19.163  0.00  0.00    +0.000 C 
ATOM     13  C   UNL     1      -0.500  11.279  20.502  0.00  0.00    +0.000 C 
ATOM     14  C   UNL     1      -0.954  10.676  18.111  0.00  0.00    +0.000 C 
ENDBRANCH   5  12
ENDBRANCH   1   8
BRANCH   3  15
ATOM     15  C   UNL     1       2.997   3.352  19.617  0.00  0.00    +0.000 C 
BRANCH  15  16
ATOM     16  C   UNL     1       3.004   2.687  18.250  0.00  0.00    +0.000 C 
BRANCH  16  17
ATOM     17  C   UNL     1       3.788   3.540  17.281  0.00  0.00    +0.000 C 
ATOM     18  O   UNL     1       3.272   4.482  16.689  0.00  0.00    +0.000 OA
ATOM     19  N   UNL     1       5.084   3.133  17.078  0.00  0.00    +0.000 N 
ATOM     20  H   UNL     1       5.495   2.453  17.708  0.00  0.00    +0.000 HD
BRANCH  19  21
ATOM     21  C   UNL     1       5.972   3.872  16.207  0.00  0.00    +0.000 C 
BRANCH  21  22
ATOM     22  C   UNL     1       6.633   5.020  16.928  0.00  0.00    +0.000 A 
ATOM     23  C   UNL     1       7.396   4.780  18.085  0.00  0.00    +0.000 A 
ATOM     24  C   UNL     1       8.050   5.828  18.733  0.00  0.00    +0.000 A 
ATOM     25  C   UNL     1       7.949   7.117  18.225  0.00  0.00    +0.000 A 
ATOM     26  F   UNL     1       8.587   8.121  18.842  0.00  0.00    +0.000 F 
ATOM     27  C   UNL     1       7.200   7.378  17.084  0.00  0.00    +0.000 A 
ATOM     28  C   UNL     1       6.543   6.332  16.434  0.00  0.00    +0.000 A 
ENDBRANCH  21  22
ENDBRANCH  19  21
ENDBRANCH  16  17
ENDBRANCH  15  16
ENDBRANCH   3  15
TORSDOF 7
ENDMDL
MODEL 6
REMARK VINA RESULT:      -7.4      4.650      6.077
REMARK  Name = 
REMARK  10 active torsions:
REMARK  status: ('A' for Active; 'I' for Inactive)
REMARK    1  A    between atoms: C_1  and  C_2
REMARK    2  A    between atoms: C_2  and  C_3
REMARK    3  A    between atoms: C_2  and  C_4
REMARK    4  A    between atoms: C_2  and  C_5
REMARK    5  A    between atoms: C_8  and  C_9
REMARK    6  A    between atoms: N_11  and  C_12
REMARK    7  A    between atoms: C_12  and  C_13
REMARK    8  A    between atoms: C_13  and  C_14
REMARK    9  A    between atoms: N_16  and  C_17
REMARK   10  A    between atoms: C_17  and  C_18
REMARK                            x       y       z     vdW  Elec       q    Type
REMARK                         _______ _______ _______ _____ _____    ______ ____
ROOT
ATOM      1  C   UNL     1       8.023   8.247  17.901  0.00  0.00    +0.000 C 
ATOM      2  O   UNL     1       7.391   8.076  16.863  0.00  0.00    +0.000 OA
ATOM      3  N   UNL     1       8.293   7.209  18.769  0.00  0.00    +0.000 N 
ATOM      4  H   UNL     1       8.793   7.362  19.630  0.00  0.00    +0.000 HD
ENDROOT
BRANCH   1   8
ATOM      5  C   UNL     1       9.614  12.131  19.045  0.00  0.00    +0.000 A 
ATOM      6  C   UNL     1       9.849  10.969  19.790  0.00  0.00    +0.000 A 
ATOM      7  C   UNL     1       9.311   9.733  19.405  0.00  0.00    +0.000 A 
ATOM      8  C   UNL     1       8.516   9.616  18.262  0.00  0.00    +0.000 A 
ATOM      9  C   UNL     1       8.246  10.772  17.523  0.00  0.00    +0.000 A 
ATOM     10  C   UNL     1       8.785  12.009  17.914  0.00  0.00    +0.000 A 
BRANCH   5  12
ATOM     11  C   UNL     1      10.229  14.500  18.239  0.00  0.00    +0.000 C 
ATOM     12  C   UNL     1      10.258  13.486  19.407  0.00  0.00    +0.000 C 
ATOM     13  C   UNL     1      11.731  13.303  19.820  0.00  0.00    +0.000 C 
ATOM     14  C   UNL     1       9.490  14.124  20.587  0.00  0.00    +0.000 C 
ENDBRANCH   5  12
ENDBRANCH   1   8
BRANCH   3  15
ATOM     15  C   UNL     1       7.844   5.856  18.487  0.00  0.00    +0.000 C 
BRANCH  15  16
ATOM     16  C   UNL     1       6.737   5.412  19.430  0.00  0.00    +0.000 C 
BRANCH  16  17
ATOM     17  C   UNL     1       5.395   5.707  18.804  0.00  0.00    +0.000 C 
ATOM     18  O   UNL     1       5.233   5.689  17.588  0.00  0.00    +0.000 OA
ATOM     19  N   UNL     1       4.409   6.054  19.697  0.00  0.00    +0.000 N 
ATOM     20  H   UNL     1       4.560   5.897  20.686  0.00  0.00    +0.000 HD
BRANCH  19  21
ATOM     21  C   UNL     1       3.060   6.326  19.252  0.00  0.00    +0.000 C 
BRANCH  21  22
ATOM     22  C   UNL     1       2.250   5.062  19.118  0.00  0.00    +0.000 A 
ATOM     23  C   UNL     1       2.039   4.491  17.851  0.00  0.00    +0.000 A 
ATOM     24  C   UNL     1       1.331   3.296  17.719  0.00  0.00    +0.000 A 
ATOM     25  C   UNL     1       0.836   2.666  18.854  0.00  0.00    +0.000 A 
ATOM     26  F   UNL     1       0.166   1.512  18.728  0.00  0.00    +0.000 F 
ATOM     27  C   UNL     1       1.030   3.212  20.116  0.00  0.00    +0.000 A 
ATOM     28  C   UNL     1       1.737   4.408  20.251  0.00  0.00    +0.000 A 
ENDBRANCH  21  22
ENDBRANCH  19  21
ENDBRANCH  16  17
ENDBRANCH  15  16
ENDBRANCH   3  15
TORSDOF 7
ENDMDL
MODEL 7
REMARK VINA RESULT:      -7.4      2.689      4.608
REMARK  Name = 
REMARK  10 active torsions:
REMARK  status: ('A' for Active; 'I' for Inactive)
REMARK    1  A    between atoms: C_1  and  C_2
REMARK    2  A    between atoms: C_2  and  C_3
REMARK    3  A    between atoms: C_2  and  C_4
REMARK    4  A    between atoms: C_2  and  C_5
REMARK    5  A    between atoms: C_8  and  C_9
REMARK    6  A    between atoms: N_11  and  C_12
REMARK    7  A    between atoms: C_12  and  C_13
REMARK    8  A    between atoms: C_13  and  C_14
REMARK    9  A    between atoms: N_16  and  C_17
REMARK   10  A    between atoms: C_17  and  C_18
REMARK                            x       y       z     vdW  Elec       q    Type
REMARK                         _______ _______ _______ _____ _____    ______ ____
ROOT
ATOM      1  C   UNL     1       2.044   6.491  20.222  0.00  0.00    +0.000 C 
ATOM      2  O   UNL     1       3.129   6.366  19.662  0.00  0.00    +0.000 OA
ATOM      3  N   UNL     1       1.361   5.406  20.732  0.00  0.00    +0.000 N 
ATOM      4  H   UNL     1       0.460   5.513  21.171  0.00  0.00    +0.000 HD
ENDROOT
BRANCH   1   8
ATOM      5  C   UNL     1       0.254  10.410  20.821  0.00  0.00    +0.000 A 
ATOM      6  C   UNL     1       0.186   9.393  21.781  0.00  0.00    +0.000 A 
ATOM      7  C   UNL     1       0.759   8.135  21.555  0.00  0.00    +0.000 A 
ATOM      8  C   UNL     1       1.420   7.847  20.358  0.00  0.00    +0.000 A 
ATOM      9  C   UNL     1       1.471   8.840  19.375  0.00  0.00    +0.000 A 
ATOM     10  C   UNL     1       0.892  10.100  19.606  0.00  0.00    +0.000 A 
BRANCH   5  12
ATOM     11  C   UNL     1      -1.463  12.201  20.127  0.00  0.00    +0.000 C 
ATOM     12  C   UNL     1      -0.303  11.826  21.078  0.00  0.00    +0.000 C 
ATOM     13  C   UNL     1       0.797  12.891  20.904  0.00  0.00    +0.000 C 
ATOM     14  C   UNL     1      -0.849  11.911  22.522  0.00  0.00    +0.000 C 
ENDBRANCH   5  12
ENDBRANCH   1   8
BRANCH   3  15
ATOM     15  C   UNL     1       1.902   4.061  20.634  0.00  0.00    +0.000 C 
BRANCH  15  16
ATOM     16  C   UNL     1       1.279   3.275  19.491  0.00  0.00    +0.000 C 
BRANCH  16  17
ATOM     17  C   UNL     1       1.942   3.667  18.192  0.00  0.00    +0.000 C 
ATOM     18  O   UNL     1       1.285   3.978  17.203  0.00  0.00    +0.000 OA
ATOM     19  N   UNL     1       3.313   3.584  18.199  0.00  0.00    +0.000 N 
ATOM     20  H   UNL     1       3.798   3.477  19.083  0.00  0.00    +0.000 HD
BRANCH  19  21
ATOM     21  C   UNL     1       4.091   3.965  17.041  0.00  0.00    +0.000 C 
BRANCH  21  22
ATOM     22  C   UNL     1       5.202   4.918  17.403  0.00  0.00    +0.000 A 
ATOM     23  C   UNL     1       6.032   4.646  18.505  0.00  0.00    +0.000 A 
ATOM     24  C   UNL     1       7.093   5.496  18.821  0.00  0.00    +0.000 A 
ATOM     25  C   UNL     1       7.330   6.616  18.035  0.00  0.00    +0.000 A 
ATOM     26  F   UNL     1       8.355   7.426  18.333  0.00  0.00    +0.000 F 
ATOM     27  C   UNL     1       6.522   6.906  16.943  0.00  0.00    +0.000 A 
ATOM     28  C   UNL     1       5.459   6.058  16.624  0.00  0.00    +0.000 A 
ENDBRANCH  21  22
ENDBRANCH  19  21
ENDBRANCH  16  17
ENDBRANCH  15  16
ENDBRANCH   3  15
TORSDOF 7
ENDMDL
MODEL 8
REMARK VINA RESULT:      -7.3      2.744      4.694
REMARK  Name = 
REMARK  10 active torsions:
REMARK  status: ('A' for Active; 'I' for Inactive)
REMARK    1  A    between atoms: C_1  and  C_2
REMARK    2  A    between atoms: C_2  and  C_3
REMARK    3  A    between atoms: C_2  and  C_4
REMARK    4  A    between atoms: C_2  and  C_5
REMARK    5  A    between atoms: C_8  and  C_9
REMARK    6  A    between atoms: N_11  and  C_12
REMARK    7  A    between atoms: C_12  and  C_13
REMARK    8  A    between atoms: C_13  and  C_14
REMARK    9  A    between atoms: N_16  and  C_17
REMARK   10  A    between atoms: C_17  and  C_18
REMARK                            x       y       z     vdW  Elec       q    Type
REMARK                         _______ _______ _______ _____ _____    ______ ____
ROOT
ATOM      1  C   UNL     1       2.336   4.796  20.620  0.00  0.00    +0.000 C 
ATOM      2  O   UNL     1       2.092   4.372  21.745  0.00  0.00    +0.000 OA
ATOM      3  N   UNL     1       2.890   3.992  19.644  0.00  0.00    +0.000 N 
ATOM      4  H   UNL     1       3.108   4.354  18.729  0.00  0.00    +0.000 HD
ENDROOT
BRANCH   1   8
ATOM      5  C   UNL     1       1.485   8.891  19.423  0.00  0.00    +0.000 A 
ATOM      6  C   UNL     1       2.161   7.986  18.595  0.00  0.00    +0.000 A 
ATOM      7  C   UNL     1       2.435   6.677  19.013  0.00  0.00    +0.000 A 
ATOM      8  C   UNL     1       2.044   6.225  20.276  0.00  0.00    +0.000 A 
ATOM      9  C   UNL     1       1.395   7.124  21.128  0.00  0.00    +0.000 A 
ATOM     10  C   UNL     1       1.125   8.437  20.705  0.00  0.00    +0.000 A 
BRANCH   5  12
ATOM     11  C   UNL     1       2.191  10.966  18.069  0.00  0.00    +0.000 C 
ATOM     12  C   UNL     1       1.106  10.311  18.955  0.00  0.00    +0.000 C 
ATOM     13  C   UNL     1       0.874  11.244  20.160  0.00  0.00    +0.000 C 
ATOM     14  C   UNL     1      -0.193  10.251  18.120  0.00  0.00    +0.000 C 
ENDBRANCH   5  12
ENDBRANCH   1   8
BRANCH   3  15
ATOM     15  C   UNL     1       3.203   2.598  19.905  0.00  0.00    +0.000 C 
BRANCH  15  16
ATOM     16  C   UNL     1       3.266   1.775  18.628  0.00  0.00    +0.000 C 
BRANCH  16  17
ATOM     17  C   UNL     1       3.491   2.693  17.450  0.00  0.00    +0.000 C 
ATOM     18  O   UNL     1       2.554   3.200  16.841  0.00  0.00    +0.000 OA
ATOM     19  N   UNL     1       4.807   2.852  17.090  0.00  0.00    +0.000 N 
ATOM     20  H   UNL     1       5.534   2.539  17.722  0.00  0.00    +0.000 HD
BRANCH  19  21
ATOM     21  C   UNL     1       5.184   3.732  16.006  0.00  0.00    +0.000 C 
BRANCH  21  22
ATOM     22  C   UNL     1       5.741   5.038  16.514  0.00  0.00    +0.000 A 
ATOM     23  C   UNL     1       7.062   5.103  16.990  0.00  0.00    +0.000 A 
ATOM     24  C   UNL     1       7.603   6.315  17.418  0.00  0.00    +0.000 A 
ATOM     25  C   UNL     1       6.828   7.466  17.367  0.00  0.00    +0.000 A 
ATOM     26  F   UNL     1       7.352   8.633  17.769  0.00  0.00    +0.000 F 
ATOM     27  C   UNL     1       5.520   7.427  16.902  0.00  0.00    +0.000 A 
ATOM     28  C   UNL     1       4.975   6.214  16.474  0.00  0.00    +0.000 A 
ENDBRANCH  21  22
ENDBRANCH  19  21
ENDBRANCH  16  17
ENDBRANCH  15  16
ENDBRANCH   3  15
TORSDOF 7
ENDMDL
MODEL 9
REMARK VINA RESULT:      -7.3      4.989      6.866
REMARK  Name = 
REMARK  10 active torsions:
REMARK  status: ('A' for Active; 'I' for Inactive)
REMARK    1  A    between atoms: C_1  and  C_2
REMARK    2  A    between atoms: C_2  and  C_3
REMARK    3  A    between atoms: C_2  and  C_4
REMARK    4  A    between atoms: C_2  and  C_5
REMARK    5  A    between atoms: C_8  and  C_9
REMARK    6  A    between atoms: N_11  and  C_12
REMARK    7  A    between atoms: C_12  and  C_13
REMARK    8  A    between atoms: C_13  and  C_14
REMARK    9  A    between atoms: N_16  and  C_17
REMARK   10  A    between atoms: C_17  and  C_18
REMARK                            x       y       z     vdW  Elec       q    Type
REMARK                         _______ _______ _______ _____ _____    ______ ____
ROOT
ATOM      1  C   UNL     1       8.089   8.465  18.025  0.00  0.00    +0.000 C 
ATOM      2  O   UNL     1       7.365   8.417  17.034  0.00  0.00    +0.000 OA
ATOM      3  N   UNL     1       8.373   7.342  18.774  0.00  0.00    +0.000 N 
ATOM      4  H   UNL     1       8.950   7.394  19.598  0.00  0.00    +0.000 HD
ENDROOT
BRANCH   1   8
ATOM      5  C   UNL     1       9.662  12.355  19.173  0.00  0.00    +0.000 A 
ATOM      6  C   UNL     1       8.960  12.146  17.980  0.00  0.00    +0.000 A 
ATOM      7  C   UNL     1       8.477  10.878  17.629  0.00  0.00    +0.000 A 
ATOM      8  C   UNL     1       8.682   9.772  18.458  0.00  0.00    +0.000 A 
ATOM      9  C   UNL     1       9.407   9.956  19.639  0.00  0.00    +0.000 A 
ATOM     10  C   UNL     1       9.891  11.229  19.986  0.00  0.00    +0.000 A 
BRANCH   5  12
ATOM     11  C   UNL     1       9.490  14.899  18.801  0.00  0.00    +0.000 C 
ATOM     12  C   UNL     1      10.136  13.755  19.617  0.00  0.00    +0.000 C 
ATOM     13  C   UNL     1      11.664  13.892  19.468  0.00  0.00    +0.000 C 
ATOM     14  C   UNL     1       9.763  13.981  21.100  0.00  0.00    +0.000 C 
ENDBRANCH   5  12
ENDBRANCH   1   8
BRANCH   3  15
ATOM     15  C   UNL     1       7.830   6.042  18.417  0.00  0.00    +0.000 C 
BRANCH  15  16
ATOM     16  C   UNL     1       6.989   5.446  19.534  0.00  0.00    +0.000 C 
BRANCH  16  17
ATOM     17  C   UNL     1       5.575   5.241  19.044  0.00  0.00    +0.000 C 
ATOM     18  O   UNL     1       4.945   4.221  19.305  0.00  0.00    +0.000 OA
ATOM     19  N   UNL     1       5.094   6.248  18.243  0.00  0.00    +0.000 N 
ATOM     20  H   UNL     1       5.597   7.127  18.196  0.00  0.00    +0.000 HD
BRANCH  19  21
ATOM     21  C   UNL     1       3.742   6.213  17.729  0.00  0.00    +0.000 C 
BRANCH  21  22
ATOM     22  C   UNL     1       2.870   7.257  18.380  0.00  0.00    +0.000 A 
ATOM     23  C   UNL     1       2.489   8.404  17.663  0.00  0.00    +0.000 A 
ATOM     24  C   UNL     1       1.644   9.353  18.239  0.00  0.00    +0.000 A 
ATOM     25  C   UNL     1       1.173   9.156  19.530  0.00  0.00    +0.000 A 
ATOM     26  F   UNL     1       0.352  10.062  20.079  0.00  0.00    +0.000 F 
ATOM     27  C   UNL     1       1.536   8.030  20.259  0.00  0.00    +0.000 A 
ATOM     28  C   UNL     1       2.383   7.079  19.686  0.00  0.00    +0.000 A 
ENDBRANCH  21  22
ENDBRANCH  19  21
ENDBRANCH  16  17
ENDBRANCH  15  16
ENDBRANCH   3  15
TORSDOF 7
ENDMDL
