MODEL 1
REMARK VINA RESULT:      -6.9      0.000      0.000
REMARK  Name = 
REMARK  12 active torsions:
REMARK  status: ('A' for Active; 'I' for Inactive)
REMARK    1  A    between atoms: C_2  and  C_3
REMARK    2  A    between atoms: C_3  and  O_5
REMARK    3  A    between atoms: O_5  and  C_6
REMARK    4  A    between atoms: C_9  and  C_10
REMARK    5  A    between atoms: C_10  and  C_11
REMARK    6  A    between atoms: C_11  and  O_12
REMARK    7  A    between atoms: O_12  and  C_13
REMARK    8  A    between atoms: C_15  and  C_16
REMARK    9  A    between atoms: C_16  and  O_17
REMARK   10  A    between atoms: C_18  and  O_19
REMARK   11  A    between atoms: C_20  and  O_21
REMARK   12  A    between atoms: C_22  and  O_23
REMARK                            x       y       z     vdW  Elec       q    Type
REMARK                         _______ _______ _______ _____ _____    ______ ____
ROOT
ATOM      1  C   UNL     1       4.572   4.615  17.507  0.00  0.00    +0.000 C 
ATOM      2  O   UNL     1       4.509   4.193  16.150  0.00  0.00    +0.000 OA
ATOM      3  C   UNL     1       5.492   4.796  15.308  0.00  0.00    +0.000 C 
ATOM      4  C   UNL     1       6.912   4.461  15.792  0.00  0.00    +0.000 C 
ATOM      5  C   UNL     1       7.067   4.822  17.281  0.00  0.00    +0.000 C 
ATOM      6  C   UNL     1       5.928   4.253  18.144  0.00  0.00    +0.000 C 
ENDROOT
BRANCH   4   7
ATOM      7  O   UNL     1       7.888   5.156  15.011  0.00  0.00    +0.000 OA
ATOM      8  H   UNL     1       7.688   5.035  14.066  0.00  0.00    +0.000 HD
ENDBRANCH   4   7
BRANCH   5   9
ATOM      9  O   UNL     1       8.327   4.374  17.805  0.00  0.00    +0.000 OA
ATOM     10  H   UNL     1       9.046   4.809  17.308  0.00  0.00    +0.000 HD
ENDBRANCH   5   9
BRANCH   6  11
ATOM     11  O   UNL     1       6.003   4.773  19.481  0.00  0.00    +0.000 OA
ATOM     12  H   UNL     1       5.524   4.165  20.072  0.00  0.00    +0.000 HD
ENDBRANCH   6  11
BRANCH   1  13
ATOM     13  O   UNL     1       3.440   4.080  18.198  0.00  0.00    +0.000 OA
BRANCH  13  14
ATOM     14  C   UNL     1       2.375   5.011  18.364  0.00  0.00    +0.000 C 
BRANCH  14  15
ATOM     15  C   UNL     1       2.728   6.030  19.456  0.00  0.00    +0.000 C 
BRANCH  15  19
ATOM     16  C   UNL     1       1.093  10.006  18.977  0.00  0.00    +0.000 A 
ATOM     17  C   UNL     1       1.022   9.404  20.231  0.00  0.00    +0.000 A 
ATOM     18  C   UNL     1       1.553   8.120  20.416  0.00  0.00    +0.000 A 
ATOM     19  C   UNL     1       2.141   7.428  19.346  0.00  0.00    +0.000 A 
ATOM     20  C   UNL     1       2.223   8.070  18.098  0.00  0.00    +0.000 A 
ATOM     21  C   UNL     1       1.689   9.342  17.908  0.00  0.00    +0.000 A 
BRANCH  16  22
ATOM     22  O   UNL     1       0.410  11.224  18.801  0.00  0.00    +0.000 OA
BRANCH  22  23
ATOM     23  C   UNL     1      -0.951  11.239  19.042  0.00  0.00    +0.000 C 
ATOM     24  O   UNL     1      -1.517  11.450  20.105  0.00  0.00    +0.000 OA
BRANCH  23  26
ATOM     25  C   UNL     1      -2.273   9.859  17.512  0.00  0.00    +0.000 C 
ATOM     26  C   UNL     1      -1.640  11.014  17.752  0.00  0.00    +0.000 C 
ENDBRANCH  23  26
ENDBRANCH  22  23
ENDBRANCH  16  22
ENDBRANCH  15  19
ENDBRANCH  14  15
ENDBRANCH  13  14
ENDBRANCH   1  13
BRANCH   3  27
ATOM     27  C   UNL     1       5.205   4.255  13.901  0.00  0.00    +0.000 C 
BRANCH  27  28
ATOM     28  O   UNL     1       6.229   3.344  13.497  0.00  0.00    +0.000 OA
ATOM     29  H   UNL     1       6.709   3.101  14.310  0.00  0.00    +0.000 HD
ENDBRANCH  27  28
ENDBRANCH   3  27
TORSDOF 12
ENDMDL
MODEL 2
REMARK VINA RESULT:      -6.8      1.185      1.866
REMARK  Name = 
REMARK  12 active torsions:
REMARK  status: ('A' for Active; 'I' for Inactive)
REMARK    1  A    between atoms: C_2  and  C_3
REMARK    2  A    between atoms: C_3  and  O_5
REMARK    3  A    between atoms: O_5  and  C_6
REMARK    4  A    between atoms: C_9  and  C_10
REMARK    5  A    between atoms: C_10  and  C_11
REMARK    6  A    between atoms: C_11  and  O_12
REMARK    7  A    between atoms: O_12  and  C_13
REMARK    8  A    between atoms: C_15  and  C_16
REMARK    9  A    between atoms: C_16  and  O_17
REMARK   10  A    between atoms: C_18  and  O_19
REMARK   11  A    between atoms: C_20  and  O_21
REMARK   12  A    between atoms: C_22  and  O_23
REMARK                            x       y       z     vdW  Elec       q    Type
REMARK                         _______ _______ _______ _____ _____    ______ ____
ROOT
ATOM      1  C   UNL     1       4.565   4.570  17.394  0.00  0.00    +0.000 C 
ATOM      2  O   UNL     1       4.497   4.146  16.038  0.00  0.00    +0.000 OA
ATOM      3  C   UNL     1       5.524   4.689  15.207  0.00  0.00    +0.000 C 
ATOM      4  C   UNL     1       6.915   4.275  15.712  0.00  0.00    +0.000 C 
ATOM      5  C   UNL     1       7.071   4.633  17.201  0.00  0.00    +0.000 C 
ATOM      6  C   UNL     1       5.890   4.133  18.051  0.00  0.00    +0.000 C 
ENDROOT
BRANCH   4   7
ATOM      7  O   UNL     1       7.940   4.910  14.942  0.00  0.00    +0.000 OA
ATOM      8  H   UNL     1       8.203   5.739  15.379  0.00  0.00    +0.000 HD
ENDBRANCH   4   7
BRANCH   5   9
ATOM      9  O   UNL     1       8.296   4.116  17.744  0.00  0.00    +0.000 OA
ATOM     10  H   UNL     1       8.953   4.837  17.778  0.00  0.00    +0.000 HD
ENDBRANCH   5   9
BRANCH   6  11
ATOM     11  O   UNL     1       5.976   4.654  19.387  0.00  0.00    +0.000 OA
ATOM     12  H   UNL     1       6.616   5.389  19.386  0.00  0.00    +0.000 HD
ENDBRANCH   6  11
BRANCH   1  13
ATOM     13  O   UNL     1       3.396   4.103  18.070  0.00  0.00    +0.000 OA
BRANCH  13  14
ATOM     14  C   UNL     1       2.709   5.117  18.798  0.00  0.00    +0.000 C 
BRANCH  14  15
ATOM     15  C   UNL     1       2.797   6.455  18.054  0.00  0.00    +0.000 C 
BRANCH  15  19
ATOM     16  C   UNL     1       1.015   9.853  20.051  0.00  0.00    +0.000 A 
ATOM     17  C   UNL     1       1.303   9.955  18.692  0.00  0.00    +0.000 A 
ATOM     18  C   UNL     1       1.871   8.866  18.019  0.00  0.00    +0.000 A 
ATOM     19  C   UNL     1       2.169   7.678  18.703  0.00  0.00    +0.000 A 
ATOM     20  C   UNL     1       1.844   7.593  20.068  0.00  0.00    +0.000 A 
ATOM     21  C   UNL     1       1.286   8.676  20.743  0.00  0.00    +0.000 A 
BRANCH  16  22
ATOM     22  O   UNL     1       0.593  11.019  20.716  0.00  0.00    +0.000 OA
BRANCH  22  23
ATOM     23  C   UNL     1      -0.766  11.270  20.775  0.00  0.00    +0.000 C 
ATOM     24  O   UNL     1      -1.557  11.305  19.844  0.00  0.00    +0.000 OA
BRANCH  23  26
ATOM     25  C   UNL     1      -0.869  10.465  23.084  0.00  0.00    +0.000 C 
ATOM     26  C   UNL     1      -1.134  11.433  22.199  0.00  0.00    +0.000 C 
ENDBRANCH  23  26
ENDBRANCH  22  23
ENDBRANCH  16  22
ENDBRANCH  15  19
ENDBRANCH  14  15
ENDBRANCH  13  14
ENDBRANCH   1  13
BRANCH   3  27
ATOM     27  C   UNL     1       5.226   4.159  13.798  0.00  0.00    +0.000 C 
BRANCH  27  28
ATOM     28  O   UNL     1       6.279   3.303  13.352  0.00  0.00    +0.000 OA
ATOM     29  H   UNL     1       5.872   2.681  12.720  0.00  0.00    +0.000 HD
ENDBRANCH  27  28
ENDBRANCH   3  27
TORSDOF 12
ENDMDL
MODEL 3
REMARK VINA RESULT:      -6.7      0.452      1.064
REMARK  Name = 
REMARK  12 active torsions:
REMARK  status: ('A' for Active; 'I' for Inactive)
REMARK    1  A    between atoms: C_2  and  C_3
REMARK    2  A    between atoms: C_3  and  O_5
REMARK    3  A    between atoms: O_5  and  C_6
REMARK    4  A    between atoms: C_9  and  C_10
REMARK    5  A    between atoms: C_10  and  C_11
REMARK    6  A    between atoms: C_11  and  O_12
REMARK    7  A    between atoms: O_12  and  C_13
REMARK    8  A    between atoms: C_15  and  C_16
REMARK    9  A    between atoms: C_16  and  O_17
REMARK   10  A    between atoms: C_18  and  O_19
REMARK   11  A    between atoms: C_20  and  O_21
REMARK   12  A    between atoms: C_22  and  O_23
REMARK                            x       y       z     vdW  Elec       q    Type
REMARK                         _______ _______ _______ _____ _____    ______ ____
ROOT
ATOM      1  C   UNL     1       4.528   4.488  17.431  0.00  0.00    +0.000 C 
ATOM      2  O   UNL     1       4.463   4.125  16.057  0.00  0.00    +0.000 OA
ATOM      3  C   UNL     1       5.457   4.748  15.243  0.00  0.00    +0.000 C 
ATOM      4  C   UNL     1       6.870   4.368  15.715  0.00  0.00    +0.000 C 
ATOM      5  C   UNL     1       7.027   4.663  17.219  0.00  0.00    +0.000 C 
ATOM      6  C   UNL     1       5.876   4.076  18.054  0.00  0.00    +0.000 C 
ENDROOT
BRANCH   4   7
ATOM      7  O   UNL     1       7.860   5.080  14.967  0.00  0.00    +0.000 OA
ATOM      8  H   UNL     1       8.062   5.918  15.418  0.00  0.00    +0.000 HD
ENDBRANCH   4   7
BRANCH   5   9
ATOM      9  O   UNL     1       8.278   4.171  17.726  0.00  0.00    +0.000 OA
ATOM     10  H   UNL     1       8.916   4.120  16.989  0.00  0.00    +0.000 HD
ENDBRANCH   5   9
BRANCH   6  11
ATOM     11  O   UNL     1       5.957   4.537  19.412  0.00  0.00    +0.000 OA
ATOM     12  H   UNL     1       5.681   3.809  19.998  0.00  0.00    +0.000 HD
ENDBRANCH   6  11
BRANCH   1  13
ATOM     13  O   UNL     1       3.386   3.942  18.095  0.00  0.00    +0.000 OA
BRANCH  13  14
ATOM     14  C   UNL     1       2.362   4.897  18.355  0.00  0.00    +0.000 C 
BRANCH  14  15
ATOM     15  C   UNL     1       2.909   6.040  19.220  0.00  0.00    +0.000 C 
BRANCH  15  19
ATOM     16  C   UNL     1       1.067   9.946  18.972  0.00  0.00    +0.000 A 
ATOM     17  C   UNL     1       1.691   9.431  17.838  0.00  0.00    +0.000 A 
ATOM     18  C   UNL     1       2.287   8.164  17.888  0.00  0.00    +0.000 A 
ATOM     19  C   UNL     1       2.276   7.414  19.074  0.00  0.00    +0.000 A 
ATOM     20  C   UNL     1       1.617   7.947  20.196  0.00  0.00    +0.000 A 
ATOM     21  C   UNL     1       1.031   9.209  20.153  0.00  0.00    +0.000 A 
BRANCH  16  22
ATOM     22  O   UNL     1       0.623  11.281  18.921  0.00  0.00    +0.000 OA
BRANCH  22  23
ATOM     23  C   UNL     1      -0.701  11.505  18.593  0.00  0.00    +0.000 C 
ATOM     24  O   UNL     1      -1.344  12.533  18.755  0.00  0.00    +0.000 OA
BRANCH  23  26
ATOM     25  C   UNL     1      -2.534  10.051  17.872  0.00  0.00    +0.000 C 
ATOM     26  C   UNL     1      -1.217  10.284  17.936  0.00  0.00    +0.000 C 
ENDBRANCH  23  26
ENDBRANCH  22  23
ENDBRANCH  16  22
ENDBRANCH  15  19
ENDBRANCH  14  15
ENDBRANCH  13  14
ENDBRANCH   1  13
BRANCH   3  27
ATOM     27  C   UNL     1       5.166   4.272  13.814  0.00  0.00    +0.000 C 
BRANCH  27  28
ATOM     28  O   UNL     1       6.184   3.375  13.367  0.00  0.00    +0.000 OA
ATOM     29  H   UNL     1       6.860   3.364  14.070  0.00  0.00    +0.000 HD
ENDBRANCH  27  28
ENDBRANCH   3  27
TORSDOF 12
ENDMDL
MODEL 4
REMARK VINA RESULT:      -6.7      6.249      8.094
REMARK  Name = 
REMARK  12 active torsions:
REMARK  status: ('A' for Active; 'I' for Inactive)
REMARK    1  A    between atoms: C_2  and  C_3
REMARK    2  A    between atoms: C_3  and  O_5
REMARK    3  A    between atoms: O_5  and  C_6
REMARK    4  A    between atoms: C_9  and  C_10
REMARK    5  A    between atoms: C_10  and  C_11
REMARK    6  A    between atoms: C_11  and  O_12
REMARK    7  A    between atoms: O_12  and  C_13
REMARK    8  A    between atoms: C_15  and  C_16
REMARK    9  A    between atoms: C_16  and  O_17
REMARK   10  A    between atoms: C_18  and  O_19
REMARK   11  A    between atoms: C_20  and  O_21
REMARK   12  A    between atoms: C_22  and  O_23
REMARK                            x       y       z     vdW  Elec       q    Type
REMARK                         _______ _______ _______ _____ _____    ______ ____
ROOT
ATOM      1  C   UNL     1       6.648   6.255  17.106  0.00  0.00    +0.000 C 
ATOM      2  O   UNL     1       5.538   7.090  17.412  0.00  0.00    +0.000 OA
ATOM      3  C   UNL     1       4.283   6.410  17.418  0.00  0.00    +0.000 C 
ATOM      4  C   UNL     1       4.272   5.286  18.468  0.00  0.00    +0.000 C 
ATOM      5  C   UNL     1       5.481   4.354  18.264  0.00  0.00    +0.000 C 
ATOM      6  C   UNL     1       6.805   5.129  18.146  0.00  0.00    +0.000 C 
ENDROOT
BRANCH   4   7
ATOM      7  O   UNL     1       3.055   4.539  18.394  0.00  0.00    +0.000 OA
ATOM      8  H   UNL     1       2.798   4.436  17.461  0.00  0.00    +0.000 HD
ENDBRANCH   4   7
BRANCH   5   9
ATOM      9  O   UNL     1       5.590   3.391  19.324  0.00  0.00    +0.000 OA
ATOM     10  H   UNL     1       5.646   2.499  18.932  0.00  0.00    +0.000 HD
ENDBRANCH   5   9
BRANCH   6  11
ATOM     11  O   UNL     1       7.871   4.245  17.763  0.00  0.00    +0.000 OA
ATOM     12  H   UNL     1       8.025   4.350  16.806  0.00  0.00    +0.000 HD
ENDBRANCH   6  11
BRANCH   1  13
ATOM     13  O   UNL     1       7.806   7.081  16.960  0.00  0.00    +0.000 OA
BRANCH  13  14
ATOM     14  C   UNL     1       8.067   7.909  18.090  0.00  0.00    +0.000 C 
BRANCH  14  15
ATOM     15  C   UNL     1       8.120   9.382  17.666  0.00  0.00    +0.000 C 
BRANCH  15  19
ATOM     16  C   UNL     1      10.839  12.096  19.654  0.00  0.00    +0.000 A 
ATOM     17  C   UNL     1      10.100  11.207  20.431  0.00  0.00    +0.000 A 
ATOM     18  C   UNL     1       9.219  10.310  19.812  0.00  0.00    +0.000 A 
ATOM     19  C   UNL     1       9.061  10.310  18.418  0.00  0.00    +0.000 A 
ATOM     20  C   UNL     1       9.839  11.200  17.656  0.00  0.00    +0.000 A 
ATOM     21  C   UNL     1      10.710  12.098  18.269  0.00  0.00    +0.000 A 
BRANCH  16  22
ATOM     22  O   UNL     1      11.589  13.079  20.328  0.00  0.00    +0.000 OA
BRANCH  22  23
ATOM     23  C   UNL     1      11.454  14.389  19.909  0.00  0.00    +0.000 C 
ATOM     24  O   UNL     1      12.125  14.975  19.071  0.00  0.00    +0.000 OA
BRANCH  23  26
ATOM     25  C   UNL     1      10.444  15.567  21.802  0.00  0.00    +0.000 C 
ATOM     26  C   UNL     1      10.291  14.971  20.613  0.00  0.00    +0.000 C 
ENDBRANCH  23  26
ENDBRANCH  22  23
ENDBRANCH  16  22
ENDBRANCH  15  19
ENDBRANCH  14  15
ENDBRANCH  13  14
ENDBRANCH   1  13
BRANCH   3  27
ATOM     27  C   UNL     1       3.237   7.494  17.705  0.00  0.00    +0.000 C 
BRANCH  27  28
ATOM     28  O   UNL     1       2.585   7.245  18.952  0.00  0.00    +0.000 OA
ATOM     29  H   UNL     1       2.434   8.120  19.356  0.00  0.00    +0.000 HD
ENDBRANCH  27  28
ENDBRANCH   3  27
TORSDOF 12
ENDMDL
MODEL 5
REMARK VINA RESULT:      -6.6      2.588      4.387
REMARK  Name = 
REMARK  12 active torsions:
REMARK  status: ('A' for Active; 'I' for Inactive)
REMARK    1  A    between atoms: C_2  and  C_3
REMARK    2  A    between atoms: C_3  and  O_5
REMARK    3  A    between atoms: O_5  and  C_6
REMARK    4  A    between atoms: C_9  and  C_10
REMARK    5  A    between atoms: C_10  and  C_11
REMARK    6  A    between atoms: C_11  and  O_12
REMARK    7  A    between atoms: O_12  and  C_13
REMARK    8  A    between atoms: C_15  and  C_16
REMARK    9  A    between atoms: C_16  and  O_17
REMARK   10  A    between atoms: C_18  and  O_19
REMARK   11  A    between atoms: C_20  and  O_21
REMARK   12  A    between atoms: C_22  and  O_23
REMARK                            x       y       z     vdW  Elec       q    Type
REMARK                         _______ _______ _______ _____ _____    ______ ____
ROOT
ATOM      1  C   UNL     1       2.829   5.104  18.159  0.00  0.00    +0.000 C 
ATOM      2  O   UNL     1       2.307   4.471  19.321  0.00  0.00    +0.000 OA
ATOM      3  C   UNL     1       2.786   3.141  19.525  0.00  0.00    +0.000 C 
ATOM      4  C   UNL     1       4.315   3.127  19.684  0.00  0.00    +0.000 C 
ATOM      5  C   UNL     1       4.982   3.851  18.500  0.00  0.00    +0.000 C 
ATOM      6  C   UNL     1       4.363   5.235  18.235  0.00  0.00    +0.000 C 
ENDROOT
BRANCH   4   7
ATOM      7  O   UNL     1       4.799   1.784  19.777  0.00  0.00    +0.000 OA
ATOM      8  H   UNL     1       5.057   1.600  20.697  0.00  0.00    +0.000 HD
ENDBRANCH   4   7
BRANCH   5   9
ATOM      9  O   UNL     1       6.397   3.996  18.698  0.00  0.00    +0.000 OA
ATOM     10  H   UNL     1       6.559   4.250  19.627  0.00  0.00    +0.000 HD
ENDBRANCH   5   9
BRANCH   6  11
ATOM     11  O   UNL     1       4.875   5.787  17.012  0.00  0.00    +0.000 OA
ATOM     12  H   UNL     1       5.821   5.560  16.947  0.00  0.00    +0.000 HD
ENDBRANCH   6  11
BRANCH   1  13
ATOM     13  O   UNL     1       2.145   6.346  17.978  0.00  0.00    +0.000 OA
BRANCH  13  14
ATOM     14  C   UNL     1       2.634   7.398  18.804  0.00  0.00    +0.000 C 
BRANCH  14  15
ATOM     15  C   UNL     1       1.850   8.689  18.539  0.00  0.00    +0.000 C 
BRANCH  15  19
ATOM     16  C   UNL     1      -0.507  10.184  21.843  0.00  0.00    +0.000 A 
ATOM     17  C   UNL     1      -0.760  10.681  20.567  0.00  0.00    +0.000 A 
ATOM     18  C   UNL     1      -0.018  10.207  19.477  0.00  0.00    +0.000 A 
ATOM     19  C   UNL     1       0.990   9.248  19.661  0.00  0.00    +0.000 A 
ATOM     20  C   UNL     1       1.206   8.745  20.956  0.00  0.00    +0.000 A 
ATOM     21  C   UNL     1       0.476   9.220  22.043  0.00  0.00    +0.000 A 
BRANCH  16  22
ATOM     22  O   UNL     1      -1.166  10.802  22.923  0.00  0.00    +0.000 OA
BRANCH  22  23
ATOM     23  C   UNL     1      -1.196  12.184  22.953  0.00  0.00    +0.000 C 
ATOM     24  O   UNL     1      -0.244  12.948  23.021  0.00  0.00    +0.000 OA
BRANCH  23  26
ATOM     25  C   UNL     1      -3.484  12.367  23.804  0.00  0.00    +0.000 C 
ATOM     26  C   UNL     1      -2.608  12.608  22.821  0.00  0.00    +0.000 C 
ENDBRANCH  23  26
ENDBRANCH  22  23
ENDBRANCH  16  22
ENDBRANCH  15  19
ENDBRANCH  14  15
ENDBRANCH  13  14
ENDBRANCH   1  13
BRANCH   3  27
ATOM     27  C   UNL     1       2.058   2.637  20.777  0.00  0.00    +0.000 C 
BRANCH  27  28
ATOM     28  O   UNL     1       2.965   2.529  21.875  0.00  0.00    +0.000 OA
ATOM     29  H   UNL     1       2.859   1.625  22.224  0.00  0.00    +0.000 HD
ENDBRANCH  27  28
ENDBRANCH   3  27
TORSDOF 12
ENDMDL
MODEL 6
REMARK VINA RESULT:      -6.6      1.154      1.672
REMARK  Name = 
REMARK  12 active torsions:
REMARK  status: ('A' for Active; 'I' for Inactive)
REMARK    1  A    between atoms: C_2  and  C_3
REMARK    2  A    between atoms: C_3  and  O_5
REMARK    3  A    between atoms: O_5  and  C_6
REMARK    4  A    between atoms: C_9  and  C_10
REMARK    5  A    between atoms: C_10  and  C_11
REMARK    6  A    between atoms: C_11  and  O_12
REMARK    7  A    between atoms: O_12  and  C_13
REMARK    8  A    between atoms: C_15  and  C_16
REMARK    9  A    between atoms: C_16  and  O_17
REMARK   10  A    between atoms: C_18  and  O_19
REMARK   11  A    between atoms: C_20  and  O_21
REMARK   12  A    between atoms: C_22  and  O_23
REMARK                            x       y       z     vdW  Elec       q    Type
REMARK                         _______ _______ _______ _____ _____    ______ ____
ROOT
ATOM      1  C   UNL     1       4.554   4.558  17.459  0.00  0.00    +0.000 C 
ATOM      2  O   UNL     1       4.475   4.168  16.094  0.00  0.00    +0.000 OA
ATOM      3  C   UNL     1       5.479   4.753  15.263  0.00  0.00    +0.000 C 
ATOM      4  C   UNL     1       6.886   4.355  15.738  0.00  0.00    +0.000 C 
ATOM      5  C   UNL     1       7.055   4.678  17.234  0.00  0.00    +0.000 C 
ATOM      6  C   UNL     1       5.897   4.132  18.086  0.00  0.00    +0.000 C 
ENDROOT
BRANCH   4   7
ATOM      7  O   UNL     1       7.886   5.030  14.970  0.00  0.00    +0.000 OA
ATOM      8  H   UNL     1       8.323   4.392  14.380  0.00  0.00    +0.000 HD
ENDBRANCH   4   7
BRANCH   5   9
ATOM      9  O   UNL     1       8.299   4.172  17.746  0.00  0.00    +0.000 OA
ATOM     10  H   UNL     1       8.149   3.276  18.101  0.00  0.00    +0.000 HD
ENDBRANCH   5   9
BRANCH   6  11
ATOM     11  O   UNL     1       5.992   4.621  19.434  0.00  0.00    +0.000 OA
ATOM     12  H   UNL     1       5.989   5.595  19.406  0.00  0.00    +0.000 HD
ENDBRANCH   6  11
BRANCH   1  13
ATOM     13  O   UNL     1       3.405   4.050  18.140  0.00  0.00    +0.000 OA
BRANCH  13  14
ATOM     14  C   UNL     1       2.488   5.060  18.553  0.00  0.00    +0.000 C 
BRANCH  14  15
ATOM     15  C   UNL     1       3.115   6.449  18.376  0.00  0.00    +0.000 C 
BRANCH  15  19
ATOM     16  C   UNL     1       0.777   9.950  19.371  0.00  0.00    +0.000 A 
ATOM     17  C   UNL     1       1.071   9.037  20.381  0.00  0.00    +0.000 A 
ATOM     18  C   UNL     1       1.835   7.899  20.088  0.00  0.00    +0.000 A 
ATOM     19  C   UNL     1       2.293   7.661  18.784  0.00  0.00    +0.000 A 
ATOM     20  C   UNL     1       2.004   8.612  17.789  0.00  0.00    +0.000 A 
ATOM     21  C   UNL     1       1.238   9.740  18.074  0.00  0.00    +0.000 A 
BRANCH  16  22
ATOM     22  O   UNL     1      -0.121  10.990  19.676  0.00  0.00    +0.000 OA
BRANCH  22  23
ATOM     23  C   UNL     1       0.235  12.275  19.309  0.00  0.00    +0.000 C 
ATOM     24  O   UNL     1      -0.216  12.936  18.385  0.00  0.00    +0.000 OA
BRANCH  23  26
ATOM     25  C   UNL     1       0.885  13.623  21.246  0.00  0.00    +0.000 C 
ATOM     26  C   UNL     1       1.236  12.762  20.283  0.00  0.00    +0.000 C 
ENDBRANCH  23  26
ENDBRANCH  22  23
ENDBRANCH  16  22
ENDBRANCH  15  19
ENDBRANCH  14  15
ENDBRANCH  13  14
ENDBRANCH   1  13
BRANCH   3  27
ATOM     27  C   UNL     1       5.171   4.253  13.846  0.00  0.00    +0.000 C 
BRANCH  27  28
ATOM     28  O   UNL     1       6.210   3.388  13.383  0.00  0.00    +0.000 OA
ATOM     29  H   UNL     1       6.722   3.135  14.174  0.00  0.00    +0.000 HD
ENDBRANCH  27  28
ENDBRANCH   3  27
TORSDOF 12
ENDMDL
MODEL 7
REMARK VINA RESULT:      -6.6      1.901      2.521
REMARK  Name = 
REMARK  12 active torsions:
REMARK  status: ('A' for Active; 'I' for Inactive)
REMARK    1  A    between atoms: C_2  and  C_3
REMARK    2  A    between atoms: C_3  and  O_5
REMARK    3  A    between atoms: O_5  and  C_6
REMARK    4  A    between atoms: C_9  and  C_10
REMARK    5  A    between atoms: C_10  and  C_11
REMARK    6  A    between atoms: C_11  and  O_12
REMARK    7  A    between atoms: O_12  and  C_13
REMARK    8  A    between atoms: C_15  and  C_16
REMARK    9  A    between atoms: C_16  and  O_17
REMARK   10  A    between atoms: C_18  and  O_19
REMARK   11  A    between atoms: C_20  and  O_21
REMARK   12  A    between atoms: C_22  and  O_23
REMARK                            x       y       z     vdW  Elec       q    Type
REMARK                         _______ _______ _______ _____ _____    ______ ____
ROOT
ATOM      1  C   UNL     1       4.708   3.656  17.281  0.00  0.00    +0.000 C 
ATOM      2  O   UNL     1       5.328   3.693  16.001  0.00  0.00    +0.000 OA
ATOM      3  C   UNL     1       5.960   4.937  15.696  0.00  0.00    +0.000 C 
ATOM      4  C   UNL     1       7.067   5.254  16.714  0.00  0.00    +0.000 C 
ATOM      5  C   UNL     1       6.512   5.176  18.149  0.00  0.00    +0.000 C 
ATOM      6  C   UNL     1       5.738   3.872  18.408  0.00  0.00    +0.000 C 
ENDROOT
BRANCH   4   7
ATOM      7  O   UNL     1       7.621   6.549  16.469  0.00  0.00    +0.000 OA
ATOM      8  H   UNL     1       7.880   6.953  17.316  0.00  0.00    +0.000 HD
ENDBRANCH   4   7
BRANCH   5   9
ATOM      9  O   UNL     1       7.556   5.308  19.127  0.00  0.00    +0.000 OA
ATOM     10  H   UNL     1       8.011   4.450  19.217  0.00  0.00    +0.000 HD
ENDBRANCH   5   9
BRANCH   6  11
ATOM     11  O   UNL     1       5.075   3.927  19.681  0.00  0.00    +0.000 OA
ATOM     12  H   UNL     1       4.167   4.250  19.539  0.00  0.00    +0.000 HD
ENDBRANCH   6  11
BRANCH   1  13
ATOM     13  O   UNL     1       3.972   2.436  17.389  0.00  0.00    +0.000 OA
BRANCH  13  14
ATOM     14  C   UNL     1       2.667   2.598  17.937  0.00  0.00    +0.000 C 
BRANCH  14  15
ATOM     15  C   UNL     1       2.082   3.954  17.522  0.00  0.00    +0.000 C 
BRANCH  15  19
ATOM     16  C   UNL     1       1.851   7.176  20.399  0.00  0.00    +0.000 A 
ATOM     17  C   UNL     1       1.525   5.887  20.815  0.00  0.00    +0.000 A 
ATOM     18  C   UNL     1       1.601   4.824  19.906  0.00  0.00    +0.000 A 
ATOM     19  C   UNL     1       1.987   5.046  18.575  0.00  0.00    +0.000 A 
ATOM     20  C   UNL     1       2.335   6.352  18.189  0.00  0.00    +0.000 A 
ATOM     21  C   UNL     1       2.253   7.413  19.088  0.00  0.00    +0.000 A 
BRANCH  16  22
ATOM     22  O   UNL     1       1.610   8.230  21.300  0.00  0.00    +0.000 OA
BRANCH  22  23
ATOM     23  C   UNL     1       0.316   8.708  21.399  0.00  0.00    +0.000 C 
ATOM     24  O   UNL     1      -0.685   8.084  21.721  0.00  0.00    +0.000 OA
BRANCH  23  26
ATOM     25  C   UNL     1       0.564  10.593  19.856  0.00  0.00    +0.000 C 
ATOM     26  C   UNL     1       0.346  10.157  21.103  0.00  0.00    +0.000 C 
ENDBRANCH  23  26
ENDBRANCH  22  23
ENDBRANCH  16  22
ENDBRANCH  15  19
ENDBRANCH  14  15
ENDBRANCH  13  14
ENDBRANCH   1  13
BRANCH   3  27
ATOM     27  C   UNL     1       6.498   4.777  14.269  0.00  0.00    +0.000 C 
BRANCH  27  28
ATOM     28  O   UNL     1       6.331   3.432  13.818  0.00  0.00    +0.000 OA
ATOM     29  H   UNL     1       6.877   2.880  14.407  0.00  0.00    +0.000 HD
ENDBRANCH  27  28
ENDBRANCH   3  27
TORSDOF 12
ENDMDL
MODEL 8
REMARK VINA RESULT:      -6.6      1.971      9.319
REMARK  Name = 
REMARK  12 active torsions:
REMARK  status: ('A' for Active; 'I' for Inactive)
REMARK    1  A    between atoms: C_2  and  C_3
REMARK    2  A    between atoms: C_3  and  O_5
REMARK    3  A    between atoms: O_5  and  C_6
REMARK    4  A    between atoms: C_9  and  C_10
REMARK    5  A    between atoms: C_10  and  C_11
REMARK    6  A    between atoms: C_11  and  O_12
REMARK    7  A    between atoms: O_12  and  C_13
REMARK    8  A    between atoms: C_15  and  C_16
REMARK    9  A    between atoms: C_16  and  O_17
REMARK   10  A    between atoms: C_18  and  O_19
REMARK   11  A    between atoms: C_20  and  O_21
REMARK   12  A    between atoms: C_22  and  O_23
REMARK                            x       y       z     vdW  Elec       q    Type
REMARK                         _______ _______ _______ _____ _____    ______ ____
ROOT
ATOM      1  C   UNL     1       0.767  10.412  18.422  0.00  0.00    +0.000 C 
ATOM      2  O   UNL     1       1.264  11.326  19.391  0.00  0.00    +0.000 OA
ATOM      3  C   UNL     1       1.064  12.699  19.052  0.00  0.00    +0.000 C 
ATOM      4  C   UNL     1      -0.432  13.015  18.897  0.00  0.00    +0.000 C 
ATOM      5  C   UNL     1      -1.086  12.032  17.909  0.00  0.00    +0.000 C 
ATOM      6  C   UNL     1      -0.756  10.565  18.236  0.00  0.00    +0.000 C 
ENDROOT
BRANCH   4   7
ATOM      7  O   UNL     1      -0.620  14.361  18.452  0.00  0.00    +0.000 OA
ATOM      8  H   UNL     1      -0.994  14.890  19.178  0.00  0.00    +0.000 HD
ENDBRANCH   4   7
BRANCH   5   9
ATOM      9  O   UNL     1      -2.513  12.197  17.865  0.00  0.00    +0.000 OA
ATOM     10  H   UNL     1      -2.933  11.386  18.209  0.00  0.00    +0.000 HD
ENDBRANCH   5   9
BRANCH   6  11
ATOM     11  O   UNL     1      -1.218   9.701  17.186  0.00  0.00    +0.000 OA
ATOM     12  H   UNL     1      -2.147   9.923  16.995  0.00  0.00    +0.000 HD
ENDBRANCH   6  11
BRANCH   1  13
ATOM     13  O   UNL     1       1.181   9.095  18.792  0.00  0.00    +0.000 OA
BRANCH  13  14
ATOM     14  C   UNL     1       2.167   8.538  17.928  0.00  0.00    +0.000 C 
BRANCH  14  15
ATOM     15  C   UNL     1       2.371   7.051  18.245  0.00  0.00    +0.000 C 
BRANCH  15  19
ATOM     16  C   UNL     1       5.727   4.913  16.549  0.00  0.00    +0.000 A 
ATOM     17  C   UNL     1       5.830   6.293  16.709  0.00  0.00    +0.000 A 
ATOM     18  C   UNL     1       4.761   7.008  17.266  0.00  0.00    +0.000 A 
ATOM     19  C   UNL     1       3.581   6.352  17.647  0.00  0.00    +0.000 A 
ATOM     20  C   UNL     1       3.515   4.955  17.498  0.00  0.00    +0.000 A 
ATOM     21  C   UNL     1       4.572   4.241  16.938  0.00  0.00    +0.000 A 
BRANCH  16  22
ATOM     22  O   UNL     1       6.758   4.262  15.844  0.00  0.00    +0.000 OA
BRANCH  22  23
ATOM     23  C   UNL     1       6.965   4.625  14.527  0.00  0.00    +0.000 C 
ATOM     24  O   UNL     1       7.764   5.446  14.098  0.00  0.00    +0.000 OA
BRANCH  23  26
ATOM     25  C   UNL     1       6.346   3.621  12.382  0.00  0.00    +0.000 C 
ATOM     26  C   UNL     1       6.083   3.790  13.684  0.00  0.00    +0.000 C 
ENDBRANCH  23  26
ENDBRANCH  22  23
ENDBRANCH  16  22
ENDBRANCH  15  19
ENDBRANCH  14  15
ENDBRANCH  13  14
ENDBRANCH   1  13
BRANCH   3  27
ATOM     27  C   UNL     1       1.721  13.495  20.187  0.00  0.00    +0.000 C 
BRANCH  27  28
ATOM     28  O   UNL     1       1.394  12.923  21.455  0.00  0.00    +0.000 OA
ATOM     29  H   UNL     1       0.555  12.443  21.325  0.00  0.00    +0.000 HD
ENDBRANCH  27  28
ENDBRANCH   3  27
TORSDOF 12
ENDMDL
MODEL 9
REMARK VINA RESULT:      -6.6      3.654      8.220
REMARK  Name = 
REMARK  12 active torsions:
REMARK  status: ('A' for Active; 'I' for Inactive)
REMARK    1  A    between atoms: C_2  and  C_3
REMARK    2  A    between atoms: C_3  and  O_5
REMARK    3  A    between atoms: O_5  and  C_6
REMARK    4  A    between atoms: C_9  and  C_10
REMARK    5  A    between atoms: C_10  and  C_11
REMARK    6  A    between atoms: C_11  and  O_12
REMARK    7  A    between atoms: O_12  and  C_13
REMARK    8  A    between atoms: C_15  and  C_16
REMARK    9  A    between atoms: C_16  and  O_17
REMARK   10  A    between atoms: C_18  and  O_19
REMARK   11  A    between atoms: C_20  and  O_21
REMARK   12  A    between atoms: C_22  and  O_23
REMARK                            x       y       z     vdW  Elec       q    Type
REMARK                         _______ _______ _______ _____ _____    ______ ____
ROOT
ATOM      1  C   UNL     1       4.231   3.765  19.051  0.00  0.00    +0.000 C 
ATOM      2  O   UNL     1       3.665   4.591  20.062  0.00  0.00    +0.000 OA
ATOM      3  C   UNL     1       2.251   4.759  19.953  0.00  0.00    +0.000 C 
ATOM      4  C   UNL     1       1.528   3.407  20.055  0.00  0.00    +0.000 C 
ATOM      5  C   UNL     1       2.113   2.409  19.039  0.00  0.00    +0.000 C 
ATOM      6  C   UNL     1       3.649   2.338  19.105  0.00  0.00    +0.000 C 
ENDROOT
BRANCH   4   7
ATOM      7  O   UNL     1       0.124   3.568  19.836  0.00  0.00    +0.000 OA
ATOM      8  H   UNL     1      -0.024   4.338  19.260  0.00  0.00    +0.000 HD
ENDBRANCH   4   7
BRANCH   5   9
ATOM      9  O   UNL     1       1.571   1.091  19.219  0.00  0.00    +0.000 OA
ATOM     10  H   UNL     1       1.183   0.794  18.374  0.00  0.00    +0.000 HD
ENDBRANCH   5   9
BRANCH   6  11
ATOM     11  O   UNL     1       4.162   1.552  18.017  0.00  0.00    +0.000 OA
ATOM     12  H   UNL     1       4.091   2.079  17.201  0.00  0.00    +0.000 HD
ENDBRANCH   6  11
BRANCH   1  13
ATOM     13  O   UNL     1       5.654   3.820  19.169  0.00  0.00    +0.000 OA
BRANCH  13  14
ATOM     14  C   UNL     1       6.202   5.111  18.916  0.00  0.00    +0.000 C 
BRANCH  14  15
ATOM     15  C   UNL     1       5.526   5.744  17.694  0.00  0.00    +0.000 C 
BRANCH  15  19
ATOM     16  C   UNL     1       6.315   4.063  13.787  0.00  0.00    +0.000 A 
ATOM     17  C   UNL     1       7.256   4.926  14.343  0.00  0.00    +0.000 A 
ATOM     18  C   UNL     1       7.030   5.477  15.611  0.00  0.00    +0.000 A 
ATOM     19  C   UNL     1       5.857   5.181  16.321  0.00  0.00    +0.000 A 
ATOM     20  C   UNL     1       4.936   4.286  15.748  0.00  0.00    +0.000 A 
ATOM     21  C   UNL     1       5.153   3.743  14.484  0.00  0.00    +0.000 A 
BRANCH  16  22
ATOM     22  O   UNL     1       6.509   3.661  12.452  0.00  0.00    +0.000 OA
BRANCH  22  23
ATOM     23  C   UNL     1       5.460   3.028  11.811  0.00  0.00    +0.000 C 
ATOM     24  O   UNL     1       4.367   3.498  11.533  0.00  0.00    +0.000 OA
BRANCH  23  26
ATOM     25  C   UNL     1       7.176   1.443  11.080  0.00  0.00    +0.000 C 
ATOM     26  C   UNL     1       5.908   1.666  11.448  0.00  0.00    +0.000 C 
ENDBRANCH  23  26
ENDBRANCH  22  23
ENDBRANCH  16  22
ENDBRANCH  15  19
ENDBRANCH  14  15
ENDBRANCH  13  14
ENDBRANCH   1  13
BRANCH   3  27
ATOM     27  C   UNL     1       1.870   5.720  21.086  0.00  0.00    +0.000 C 
BRANCH  27  28
ATOM     28  O   UNL     1       1.932   7.075  20.636  0.00  0.00    +0.000 OA
ATOM     29  H   UNL     1       1.164   7.525  21.035  0.00  0.00    +0.000 HD
ENDBRANCH  27  28
ENDBRANCH   3  27
TORSDOF 12
ENDMDL
