MODEL 1
REMARK VINA RESULT:      -7.8      0.000      0.000
REMARK  Name = 
REMARK  8 active torsions:
REMARK  status: ('A' for Active; 'I' for Inactive)
REMARK    1  A    between atoms: C_1  and  N_2
REMARK    2  A    between atoms: N_4  and  C_5
REMARK    3  A    between atoms: N_7  and  C_8
REMARK    4  A    between atoms: C_8  and  C_9
REMARK    5  A    between atoms: C_9  and  C_10
REMARK    6  A    between atoms: C_10  and  C_11
REMARK    7  A    between atoms: C_11  and  N_12
REMARK    8  A    between atoms: C_14  and  C_15
REMARK                            x       y       z     vdW  Elec       q    Type
REMARK                         _______ _______ _______ _____ _____    ______ ____
ROOT
ATOM      1  C   UNL     1       5.465   4.263  18.770  0.00  0.00    +0.000 C 
ENDROOT
BRANCH   1   2
ATOM      2  N   UNL     1       4.155   4.537  19.349  0.00  0.00    +0.000 N 
ATOM      3  N   UNL     1       3.695   5.831  19.230  0.00  0.00    +0.000 NA
ATOM      4  C   UNL     1       2.554   6.125  19.778  0.00  0.00    +0.000 A 
ATOM      5  C   UNL     1       1.717   5.151  20.513  0.00  0.00    +0.000 A 
ATOM      6  C   UNL     1       2.150   3.890  20.554  0.00  0.00    +0.000 A 
ATOM      7  C   UNL     1       3.422   3.502  19.913  0.00  0.00    +0.000 A 
ATOM      8  O   UNL     1       3.761   2.321  19.927  0.00  0.00    +0.000 OA
BRANCH   4   9
ATOM      9  C   UNL     1       2.024   7.515  19.652  0.00  0.00    +0.000 A 
ATOM     10  C   UNL     1       1.427   8.109  20.773  0.00  0.00    +0.000 A 
ATOM     11  C   UNL     1       0.901   9.399  20.690  0.00  0.00    +0.000 A 
ATOM     12  C   UNL     1       0.963  10.102  19.488  0.00  0.00    +0.000 A 
ATOM     13  C   UNL     1       1.550   9.516  18.367  0.00  0.00    +0.000 A 
ATOM     14  C   UNL     1       2.077   8.224  18.445  0.00  0.00    +0.000 A 
ENDBRANCH   4   9
ENDBRANCH   1   2
BRANCH   1  15
ATOM     15  C   UNL     1       6.481   5.344  19.133  0.00  0.00    +0.000 C 
BRANCH  15  16
ATOM     16  C   UNL     1       7.313   5.772  17.925  0.00  0.00    +0.000 C 
BRANCH  16  17
ATOM     17  C   UNL     1       7.252   4.716  16.822  0.00  0.00    +0.000 C 
BRANCH  17  22
ATOM     18  C   UNL     1       7.765   5.399  11.966  0.00  0.00    +0.000 C 
ATOM     19  N   UNL     1       7.918   5.625  13.389  0.00  0.00    +0.000 NA
ATOM     20  C   UNL     1       7.301   4.925  14.275  0.00  0.00    +0.000 C 
ATOM     21  N   UNL     1       6.445   3.866  14.204  0.00  0.00    +0.000 N 
ATOM     22  N   UNL     1       7.580   5.318  15.553  0.00  0.00    +0.000 N 
ATOM     23  H   UNL     1       5.797   3.805  14.972  0.00  0.00    +0.000 HD
ATOM     24  H   UNL     1       8.264   6.071  15.581  0.00  0.00    +0.000 HD
BRANCH  21  25
ATOM     25  C   UNL     1       5.919   3.369  12.967  0.00  0.00    +0.000 C 
ATOM     26  N   UNL     1       5.464   2.907  12.009  0.00  0.00    +0.000 NA
ENDBRANCH  21  25
ENDBRANCH  17  22
ENDBRANCH  16  17
ENDBRANCH  15  16
ENDBRANCH   1  15
TORSDOF 7
ENDMDL
MODEL 2
REMARK VINA RESULT:      -7.6      5.128      7.012
REMARK  Name = 
REMARK  8 active torsions:
REMARK  status: ('A' for Active; 'I' for Inactive)
REMARK    1  A    between atoms: C_1  and  N_2
REMARK    2  A    between atoms: N_4  and  C_5
REMARK    3  A    between atoms: N_7  and  C_8
REMARK    4  A    between atoms: C_8  and  C_9
REMARK    5  A    between atoms: C_9  and  C_10
REMARK    6  A    between atoms: C_10  and  C_11
REMARK    7  A    between atoms: C_11  and  N_12
REMARK    8  A    between atoms: C_14  and  C_15
REMARK                            x       y       z     vdW  Elec       q    Type
REMARK                         _______ _______ _______ _____ _____    ______ ____
ROOT
ATOM      1  C   UNL     1       7.668   6.496  18.164  0.00  0.00    +0.000 C 
ENDROOT
BRANCH   1   2
ATOM      2  N   UNL     1       6.593   5.724  17.551  0.00  0.00    +0.000 N 
ATOM      3  N   UNL     1       5.482   5.497  18.334  0.00  0.00    +0.000 NA
ATOM      4  C   UNL     1       4.525   4.771  17.838  0.00  0.00    +0.000 A 
ATOM      5  C   UNL     1       4.555   4.182  16.481  0.00  0.00    +0.000 A 
ATOM      6  C   UNL     1       5.609   4.474  15.717  0.00  0.00    +0.000 A 
ATOM      7  C   UNL     1       6.702   5.327  16.225  0.00  0.00    +0.000 A 
ATOM      8  O   UNL     1       7.630   5.617  15.473  0.00  0.00    +0.000 OA
BRANCH   4   9
ATOM      9  C   UNL     1       3.303   4.521  18.658  0.00  0.00    +0.000 A 
ATOM     10  C   UNL     1       3.171   5.187  19.885  0.00  0.00    +0.000 A 
ATOM     11  C   UNL     1       2.053   4.965  20.690  0.00  0.00    +0.000 A 
ATOM     12  C   UNL     1       1.063   4.075  20.279  0.00  0.00    +0.000 A 
ATOM     13  C   UNL     1       1.189   3.404  19.063  0.00  0.00    +0.000 A 
ATOM     14  C   UNL     1       2.308   3.622  18.253  0.00  0.00    +0.000 A 
ENDBRANCH   4   9
ENDBRANCH   1   2
BRANCH   1  15
ATOM     15  C   UNL     1       7.699   7.932  17.644  0.00  0.00    +0.000 C 
BRANCH  15  16
ATOM     16  C   UNL     1       8.583   8.830  18.509  0.00  0.00    +0.000 C 
BRANCH  16  17
ATOM     17  C   UNL     1       8.550  10.272  18.005  0.00  0.00    +0.000 C 
BRANCH  17  22
ATOM     18  C   UNL     1      12.333  13.428  17.817  0.00  0.00    +0.000 C 
ATOM     19  N   UNL     1      11.612  12.174  17.752  0.00  0.00    +0.000 NA
ATOM     20  C   UNL     1      10.365  12.071  18.054  0.00  0.00    +0.000 C 
ATOM     21  N   UNL     1       9.419  12.969  18.449  0.00  0.00    +0.000 N 
ATOM     22  N   UNL     1       9.892  10.795  17.935  0.00  0.00    +0.000 N 
ATOM     23  H   UNL     1       8.690  12.578  19.022  0.00  0.00    +0.000 HD
ATOM     24  H   UNL     1      10.602  10.155  17.584  0.00  0.00    +0.000 HD
BRANCH  21  25
ATOM     25  C   UNL     1       9.721  14.336  18.757  0.00  0.00    +0.000 C 
ATOM     26  N   UNL     1       9.908  15.460  18.955  0.00  0.00    +0.000 NA
ENDBRANCH  21  25
ENDBRANCH  17  22
ENDBRANCH  16  17
ENDBRANCH  15  16
ENDBRANCH   1  15
TORSDOF 7
ENDMDL
MODEL 3
REMARK VINA RESULT:      -7.6      4.277      6.492
REMARK  Name = 
REMARK  8 active torsions:
REMARK  status: ('A' for Active; 'I' for Inactive)
REMARK    1  A    between atoms: C_1  and  N_2
REMARK    2  A    between atoms: N_4  and  C_5
REMARK    3  A    between atoms: N_7  and  C_8
REMARK    4  A    between atoms: C_8  and  C_9
REMARK    5  A    between atoms: C_9  and  C_10
REMARK    6  A    between atoms: C_10  and  C_11
REMARK    7  A    between atoms: C_11  and  N_12
REMARK    8  A    between atoms: C_14  and  C_15
REMARK                            x       y       z     vdW  Elec       q    Type
REMARK                         _______ _______ _______ _____ _____    ______ ____
ROOT
ATOM      1  C   UNL     1       8.018   5.270  18.555  0.00  0.00    +0.000 C 
ENDROOT
BRANCH   1   2
ATOM      2  N   UNL     1       6.781   4.744  17.989  0.00  0.00    +0.000 N 
ATOM      3  N   UNL     1       5.721   4.612  18.860  0.00  0.00    +0.000 NA
ATOM      4  C   UNL     1       4.618   4.099  18.404  0.00  0.00    +0.000 A 
ATOM      5  C   UNL     1       4.430   3.659  17.003  0.00  0.00    +0.000 A 
ATOM      6  C   UNL     1       5.446   3.863  16.163  0.00  0.00    +0.000 A 
ATOM      7  C   UNL     1       6.706   4.477  16.629  0.00  0.00    +0.000 A 
ATOM      8  O   UNL     1       7.599   4.696  15.815  0.00  0.00    +0.000 OA
BRANCH   4   9
ATOM      9  C   UNL     1       3.448   3.958  19.320  0.00  0.00    +0.000 A 
ATOM     10  C   UNL     1       3.123   2.681  19.800  0.00  0.00    +0.000 A 
ATOM     11  C   UNL     1       2.025   2.504  20.643  0.00  0.00    +0.000 A 
ATOM     12  C   UNL     1       1.243   3.597  21.008  0.00  0.00    +0.000 A 
ATOM     13  C   UNL     1       1.556   4.869  20.531  0.00  0.00    +0.000 A 
ATOM     14  C   UNL     1       2.654   5.052  19.686  0.00  0.00    +0.000 A 
ENDBRANCH   4   9
ENDBRANCH   1   2
BRANCH   1  15
ATOM     15  C   UNL     1       7.934   6.776  18.794  0.00  0.00    +0.000 C 
BRANCH  15  16
ATOM     16  C   UNL     1       7.893   7.559  17.482  0.00  0.00    +0.000 C 
BRANCH  16  17
ATOM     17  C   UNL     1       7.680   9.049  17.744  0.00  0.00    +0.000 C 
BRANCH  17  22
ATOM     18  C   UNL     1      11.118  11.897  19.837  0.00  0.00    +0.000 C 
ATOM     19  N   UNL     1      10.300  10.730  19.580  0.00  0.00    +0.000 NA
ATOM     20  C   UNL     1       9.331  10.732  18.733  0.00  0.00    +0.000 C 
ATOM     21  N   UNL     1       8.828  11.674  17.885  0.00  0.00    +0.000 N 
ATOM     22  N   UNL     1       8.685   9.530  18.660  0.00  0.00    +0.000 N 
ATOM     23  H   UNL     1       7.849  11.567  17.680  0.00  0.00    +0.000 HD
ATOM     24  H   UNL     1       9.114   8.829  19.260  0.00  0.00    +0.000 HD
BRANCH  21  25
ATOM     25  C   UNL     1       9.271  13.037  17.883  0.00  0.00    +0.000 C 
ATOM     26  N   UNL     1       9.633  14.133  17.959  0.00  0.00    +0.000 NA
ENDBRANCH  21  25
ENDBRANCH  17  22
ENDBRANCH  16  17
ENDBRANCH  15  16
ENDBRANCH   1  15
TORSDOF 7
ENDMDL
MODEL 4
REMARK VINA RESULT:      -7.5      1.742      3.480
REMARK  Name = 
REMARK  8 active torsions:
REMARK  status: ('A' for Active; 'I' for Inactive)
REMARK    1  A    between atoms: C_1  and  N_2
REMARK    2  A    between atoms: N_4  and  C_5
REMARK    3  A    between atoms: N_7  and  C_8
REMARK    4  A    between atoms: C_8  and  C_9
REMARK    5  A    between atoms: C_9  and  C_10
REMARK    6  A    between atoms: C_10  and  C_11
REMARK    7  A    between atoms: C_11  and  N_12
REMARK    8  A    between atoms: C_14  and  C_15
REMARK                            x       y       z     vdW  Elec       q    Type
REMARK                         _______ _______ _______ _____ _____    ______ ____
ROOT
ATOM      1  C   UNL     1       4.732   3.594  16.988  0.00  0.00    +0.000 C 
ENDROOT
BRANCH   1   2
ATOM      2  N   UNL     1       3.974   3.995  18.168  0.00  0.00    +0.000 N 
ATOM      3  N   UNL     1       3.465   5.276  18.159  0.00  0.00    +0.000 NA
ATOM      4  C   UNL     1       2.827   5.685  19.215  0.00  0.00    +0.000 A 
ATOM      5  C   UNL     1       2.608   4.854  20.420  0.00  0.00    +0.000 A 
ATOM      6  C   UNL     1       3.049   3.596  20.376  0.00  0.00    +0.000 A 
ATOM      7  C   UNL     1       3.745   3.076  19.183  0.00  0.00    +0.000 A 
ATOM      8  O   UNL     1       4.089   1.896  19.160  0.00  0.00    +0.000 OA
BRANCH   4   9
ATOM      9  C   UNL     1       2.252   7.062  19.228  0.00  0.00    +0.000 A 
ATOM     10  C   UNL     1       2.270   7.807  18.040  0.00  0.00    +0.000 A 
ATOM     11  C   UNL     1       1.759   9.106  18.016  0.00  0.00    +0.000 A 
ATOM     12  C   UNL     1       1.234   9.671  19.176  0.00  0.00    +0.000 A 
ATOM     13  C   UNL     1       1.217   8.938  20.363  0.00  0.00    +0.000 A 
ATOM     14  C   UNL     1       1.728   7.638  20.392  0.00  0.00    +0.000 A 
ENDBRANCH   4   9
ENDBRANCH   1   2
BRANCH   1  15
ATOM     15  C   UNL     1       4.386   4.456  15.776  0.00  0.00    +0.000 C 
BRANCH  15  16
ATOM     16  C   UNL     1       5.445   4.347  14.679  0.00  0.00    +0.000 C 
BRANCH  16  17
ATOM     17  C   UNL     1       6.845   4.254  15.283  0.00  0.00    +0.000 C 
BRANCH  17  22
ATOM     18  C   UNL     1       8.020   8.135  18.088  0.00  0.00    +0.000 C 
ATOM     19  N   UNL     1       7.738   7.362  16.896  0.00  0.00    +0.000 NA
ATOM     20  C   UNL     1       7.523   6.094  16.924  0.00  0.00    +0.000 C 
ATOM     21  N   UNL     1       7.460   5.175  17.929  0.00  0.00    +0.000 N 
ATOM     22  N   UNL     1       7.290   5.566  15.686  0.00  0.00    +0.000 N 
ATOM     23  H   UNL     1       7.714   4.241  17.653  0.00  0.00    +0.000 HD
ATOM     24  H   UNL     1       7.285   6.280  14.960  0.00  0.00    +0.000 HD
BRANCH  21  25
ATOM     25  C   UNL     1       7.792   5.483  19.289  0.00  0.00    +0.000 C 
ATOM     26  N   UNL     1       7.997   5.689  20.409  0.00  0.00    +0.000 NA
ENDBRANCH  21  25
ENDBRANCH  17  22
ENDBRANCH  16  17
ENDBRANCH  15  16
ENDBRANCH   1  15
TORSDOF 7
ENDMDL
MODEL 5
REMARK VINA RESULT:      -7.4      2.498      8.370
REMARK  Name = 
REMARK  8 active torsions:
REMARK  status: ('A' for Active; 'I' for Inactive)
REMARK    1  A    between atoms: C_1  and  N_2
REMARK    2  A    between atoms: N_4  and  C_5
REMARK    3  A    between atoms: N_7  and  C_8
REMARK    4  A    between atoms: C_8  and  C_9
REMARK    5  A    between atoms: C_9  and  C_10
REMARK    6  A    between atoms: C_10  and  C_11
REMARK    7  A    between atoms: C_11  and  N_12
REMARK    8  A    between atoms: C_14  and  C_15
REMARK                            x       y       z     vdW  Elec       q    Type
REMARK                         _______ _______ _______ _____ _____    ______ ____
ROOT
ATOM      1  C   UNL     1       3.676   4.019  18.352  0.00  0.00    +0.000 C 
ENDROOT
BRANCH   1   2
ATOM      2  N   UNL     1       5.004   4.308  17.821  0.00  0.00    +0.000 N 
ATOM      3  N   UNL     1       5.153   4.192  16.456  0.00  0.00    +0.000 NA
ATOM      4  C   UNL     1       6.333   4.393  15.953  0.00  0.00    +0.000 A 
ATOM      5  C   UNL     1       7.524   4.747  16.758  0.00  0.00    +0.000 A 
ATOM      6  C   UNL     1       7.339   4.923  18.067  0.00  0.00    +0.000 A 
ATOM      7  C   UNL     1       6.006   4.743  18.677  0.00  0.00    +0.000 A 
ATOM      8  O   UNL     1       5.865   4.965  19.877  0.00  0.00    +0.000 OA
BRANCH   4   9
ATOM      9  C   UNL     1       6.521   4.288  14.476  0.00  0.00    +0.000 A 
ATOM     10  C   UNL     1       7.506   5.080  13.868  0.00  0.00    +0.000 A 
ATOM     11  C   UNL     1       7.699   5.026  12.486  0.00  0.00    +0.000 A 
ATOM     12  C   UNL     1       6.909   4.186  11.704  0.00  0.00    +0.000 A 
ATOM     13  C   UNL     1       5.924   3.400  12.300  0.00  0.00    +0.000 A 
ATOM     14  C   UNL     1       5.726   3.451  13.683  0.00  0.00    +0.000 A 
ENDBRANCH   4   9
ENDBRANCH   1   2
BRANCH   1  15
ATOM     15  C   UNL     1       2.638   5.021  17.852  0.00  0.00    +0.000 C 
BRANCH  15  16
ATOM     16  C   UNL     1       3.039   6.462  18.168  0.00  0.00    +0.000 C 
BRANCH  16  17
ATOM     17  C   UNL     1       2.435   6.915  19.497  0.00  0.00    +0.000 C 
BRANCH  17  22
ATOM     18  C   UNL     1      -0.150  11.013  20.405  0.00  0.00    +0.000 C 
ATOM     19  N   UNL     1       0.626  10.038  19.668  0.00  0.00    +0.000 NA
ATOM     20  C   UNL     1       1.149   9.001  20.223  0.00  0.00    +0.000 C 
ATOM     21  N   UNL     1       1.134   8.509  21.494  0.00  0.00    +0.000 N 
ATOM     22  N   UNL     1       1.849   8.224  19.344  0.00  0.00    +0.000 N 
ATOM     23  H   UNL     1       1.946   7.967  21.738  0.00  0.00    +0.000 HD
ATOM     24  H   UNL     1       1.798   8.580  18.392  0.00  0.00    +0.000 HD
BRANCH  21  25
ATOM     25  C   UNL     1       0.566   9.223  22.600  0.00  0.00    +0.000 C 
ATOM     26  N   UNL     1       0.173   9.842  23.495  0.00  0.00    +0.000 NA
ENDBRANCH  21  25
ENDBRANCH  17  22
ENDBRANCH  16  17
ENDBRANCH  15  16
ENDBRANCH   1  15
TORSDOF 7
ENDMDL
MODEL 6
REMARK VINA RESULT:      -7.4      1.824      3.320
REMARK  Name = 
REMARK  8 active torsions:
REMARK  status: ('A' for Active; 'I' for Inactive)
REMARK    1  A    between atoms: C_1  and  N_2
REMARK    2  A    between atoms: N_4  and  C_5
REMARK    3  A    between atoms: N_7  and  C_8
REMARK    4  A    between atoms: C_8  and  C_9
REMARK    5  A    between atoms: C_9  and  C_10
REMARK    6  A    between atoms: C_10  and  C_11
REMARK    7  A    between atoms: C_11  and  N_12
REMARK    8  A    between atoms: C_14  and  C_15
REMARK                            x       y       z     vdW  Elec       q    Type
REMARK                         _______ _______ _______ _____ _____    ______ ____
ROOT
ATOM      1  C   UNL     1       3.284   3.456  16.965  0.00  0.00    +0.000 C 
ENDROOT
BRANCH   1   2
ATOM      2  N   UNL     1       2.886   4.144  18.187  0.00  0.00    +0.000 N 
ATOM      3  N   UNL     1       2.616   5.490  18.069  0.00  0.00    +0.000 NA
ATOM      4  C   UNL     1       2.307   6.147  19.147  0.00  0.00    +0.000 A 
ATOM      5  C   UNL     1       2.220   5.533  20.490  0.00  0.00    +0.000 A 
ATOM      6  C   UNL     1       2.417   4.215  20.568  0.00  0.00    +0.000 A 
ATOM      7  C   UNL     1       2.732   3.422  19.363  0.00  0.00    +0.000 A 
ATOM      8  O   UNL     1       2.855   2.204  19.467  0.00  0.00    +0.000 OA
BRANCH   4   9
ATOM      9  C   UNL     1       1.995   7.603  19.046  0.00  0.00    +0.000 A 
ATOM     10  C   UNL     1       1.386   8.235  20.140  0.00  0.00    +0.000 A 
ATOM     11  C   UNL     1       1.060   9.591  20.078  0.00  0.00    +0.000 A 
ATOM     12  C   UNL     1       1.335  10.322  18.924  0.00  0.00    +0.000 A 
ATOM     13  C   UNL     1       1.935   9.700  17.830  0.00  0.00    +0.000 A 
ATOM     14  C   UNL     1       2.263   8.342  17.887  0.00  0.00    +0.000 A 
ENDBRANCH   4   9
ENDBRANCH   1   2
BRANCH   1  15
ATOM     15  C   UNL     1       4.772   3.640  16.672  0.00  0.00    +0.000 C 
BRANCH  15  16
ATOM     16  C   UNL     1       5.008   4.603  15.509  0.00  0.00    +0.000 C 
BRANCH  16  17
ATOM     17  C   UNL     1       6.491   4.663  15.145  0.00  0.00    +0.000 C 
BRANCH  17  22
ATOM     18  C   UNL     1       8.094   8.187  18.198  0.00  0.00    +0.000 C 
ATOM     19  N   UNL     1       7.706   7.541  16.961  0.00  0.00    +0.000 NA
ATOM     20  C   UNL     1       7.380   6.297  16.898  0.00  0.00    +0.000 C 
ATOM     21  N   UNL     1       7.269   5.308  17.829  0.00  0.00    +0.000 N 
ATOM     22  N   UNL     1       7.063   5.894  15.632  0.00  0.00    +0.000 N 
ATOM     23  H   UNL     1       7.430   4.381  17.471  0.00  0.00    +0.000 HD
ATOM     24  H   UNL     1       7.098   6.662  14.965  0.00  0.00    +0.000 HD
BRANCH  21  25
ATOM     25  C   UNL     1       7.670   5.474  19.196  0.00  0.00    +0.000 C 
ATOM     26  N   UNL     1       7.973   5.533  20.310  0.00  0.00    +0.000 NA
ENDBRANCH  21  25
ENDBRANCH  17  22
ENDBRANCH  16  17
ENDBRANCH  15  16
ENDBRANCH   1  15
TORSDOF 7
ENDMDL
MODEL 7
REMARK VINA RESULT:      -7.4      3.290      6.555
REMARK  Name = 
REMARK  8 active torsions:
REMARK  status: ('A' for Active; 'I' for Inactive)
REMARK    1  A    between atoms: C_1  and  N_2
REMARK    2  A    between atoms: N_4  and  C_5
REMARK    3  A    between atoms: N_7  and  C_8
REMARK    4  A    between atoms: C_8  and  C_9
REMARK    5  A    between atoms: C_9  and  C_10
REMARK    6  A    between atoms: C_10  and  C_11
REMARK    7  A    between atoms: C_11  and  N_12
REMARK    8  A    between atoms: C_14  and  C_15
REMARK                            x       y       z     vdW  Elec       q    Type
REMARK                         _______ _______ _______ _____ _____    ______ ____
ROOT
ATOM      1  C   UNL     1       3.279   2.335  20.710  0.00  0.00    +0.000 C 
ENDROOT
BRANCH   1   2
ATOM      2  N   UNL     1       3.490   3.006  19.432  0.00  0.00    +0.000 N 
ATOM      3  N   UNL     1       4.530   3.910  19.382  0.00  0.00    +0.000 NA
ATOM      4  C   UNL     1       4.715   4.563  18.275  0.00  0.00    +0.000 A 
ATOM      5  C   UNL     1       3.883   4.388  17.064  0.00  0.00    +0.000 A 
ATOM      6  C   UNL     1       2.929   3.458  17.115  0.00  0.00    +0.000 A 
ATOM      7  C   UNL     1       2.706   2.663  18.339  0.00  0.00    +0.000 A 
ATOM      8  O   UNL     1       1.852   1.780  18.330  0.00  0.00    +0.000 OA
BRANCH   4   9
ATOM      9  C   UNL     1       5.843   5.538  18.187  0.00  0.00    +0.000 A 
ATOM     10  C   UNL     1       6.930   5.385  19.058  0.00  0.00    +0.000 A 
ATOM     11  C   UNL     1       7.995   6.287  19.021  0.00  0.00    +0.000 A 
ATOM     12  C   UNL     1       7.979   7.348  18.118  0.00  0.00    +0.000 A 
ATOM     13  C   UNL     1       6.898   7.511  17.252  0.00  0.00    +0.000 A 
ATOM     14  C   UNL     1       5.829   6.611  17.287  0.00  0.00    +0.000 A 
ENDBRANCH   4   9
ENDBRANCH   1   2
BRANCH   1  15
ATOM     15  C   UNL     1       2.193   3.021  21.535  0.00  0.00    +0.000 C 
BRANCH  15  16
ATOM     16  C   UNL     1       1.513   4.147  20.757  0.00  0.00    +0.000 C 
BRANCH  16  17
ATOM     17  C   UNL     1       2.052   5.510  21.190  0.00  0.00    +0.000 C 
BRANCH  17  22
ATOM     18  C   UNL     1       2.189   9.093  17.807  0.00  0.00    +0.000 C 
ATOM     19  N   UNL     1       2.450   7.816  18.437  0.00  0.00    +0.000 NA
ATOM     20  C   UNL     1       2.056   7.534  19.629  0.00  0.00    +0.000 C 
ATOM     21  N   UNL     1       1.336   8.216  20.565  0.00  0.00    +0.000 N 
ATOM     22  N   UNL     1       2.422   6.280  20.028  0.00  0.00    +0.000 N 
ATOM     23  H   UNL     1       1.546   7.961  21.516  0.00  0.00    +0.000 HD
ATOM     24  H   UNL     1       2.907   5.770  19.293  0.00  0.00    +0.000 HD
BRANCH  21  25
ATOM     25  C   UNL     1       0.956   9.589  20.408  0.00  0.00    +0.000 C 
ATOM     26  N   UNL     1       0.686  10.712  20.350  0.00  0.00    +0.000 NA
ENDBRANCH  21  25
ENDBRANCH  17  22
ENDBRANCH  16  17
ENDBRANCH  15  16
ENDBRANCH   1  15
TORSDOF 7
ENDMDL
MODEL 8
REMARK VINA RESULT:      -7.3      4.944      6.820
REMARK  Name = 
REMARK  8 active torsions:
REMARK  status: ('A' for Active; 'I' for Inactive)
REMARK    1  A    between atoms: C_1  and  N_2
REMARK    2  A    between atoms: N_4  and  C_5
REMARK    3  A    between atoms: N_7  and  C_8
REMARK    4  A    between atoms: C_8  and  C_9
REMARK    5  A    between atoms: C_9  and  C_10
REMARK    6  A    between atoms: C_10  and  C_11
REMARK    7  A    between atoms: C_11  and  N_12
REMARK    8  A    between atoms: C_14  and  C_15
REMARK                            x       y       z     vdW  Elec       q    Type
REMARK                         _______ _______ _______ _____ _____    ______ ____
ROOT
ATOM      1  C   UNL     1       7.506   6.667  17.942  0.00  0.00    +0.000 C 
ENDROOT
BRANCH   1   2
ATOM      2  N   UNL     1       6.492   5.750  17.435  0.00  0.00    +0.000 N 
ATOM      3  N   UNL     1       5.401   5.535  18.251  0.00  0.00    +0.000 NA
ATOM      4  C   UNL     1       4.502   4.686  17.855  0.00  0.00    +0.000 A 
ATOM      5  C   UNL     1       4.574   3.944  16.576  0.00  0.00    +0.000 A 
ATOM      6  C   UNL     1       5.602   4.221  15.773  0.00  0.00    +0.000 A 
ATOM      7  C   UNL     1       6.628   5.207  16.165  0.00  0.00    +0.000 A 
ATOM      8  O   UNL     1       7.532   5.474  15.375  0.00  0.00    +0.000 OA
BRANCH   4   9
ATOM      9  C   UNL     1       3.303   4.445  18.711  0.00  0.00    +0.000 A 
ATOM     10  C   UNL     1       2.356   3.501  18.288  0.00  0.00    +0.000 A 
ATOM     11  C   UNL     1       1.212   3.262  19.050  0.00  0.00    +0.000 A 
ATOM     12  C   UNL     1       1.003   3.964  20.235  0.00  0.00    +0.000 A 
ATOM     13  C   UNL     1       1.937   4.909  20.659  0.00  0.00    +0.000 A 
ATOM     14  C   UNL     1       3.084   5.154  19.899  0.00  0.00    +0.000 A 
ENDBRANCH   4   9
ENDBRANCH   1   2
BRANCH   1  15
ATOM     15  C   UNL     1       7.116   8.125  17.709  0.00  0.00    +0.000 C 
BRANCH  15  16
ATOM     16  C   UNL     1       8.333   8.999  17.411  0.00  0.00    +0.000 C 
BRANCH  16  17
ATOM     17  C   UNL     1       8.721   9.827  18.636  0.00  0.00    +0.000 C 
BRANCH  17  22
ATOM     18  C   UNL     1      11.364  13.743  17.225  0.00  0.00    +0.000 C 
ATOM     19  N   UNL     1      11.062  12.376  17.597  0.00  0.00    +0.000 NA
ATOM     20  C   UNL     1       9.899  12.006  18.005  0.00  0.00    +0.000 C 
ATOM     21  N   UNL     1       8.713  12.657  18.173  0.00  0.00    +0.000 N 
ATOM     22  N   UNL     1       9.841  10.677  18.314  0.00  0.00    +0.000 N 
ATOM     23  H   UNL     1       8.123  12.266  18.888  0.00  0.00    +0.000 HD
ATOM     24  H   UNL     1      10.721  10.201  18.126  0.00  0.00    +0.000 HD
BRANCH  21  25
ATOM     25  C   UNL     1       8.575  14.076  18.027  0.00  0.00    +0.000 C 
ATOM     26  N   UNL     1       8.522  15.230  17.960  0.00  0.00    +0.000 NA
ENDBRANCH  21  25
ENDBRANCH  17  22
ENDBRANCH  16  17
ENDBRANCH  15  16
ENDBRANCH   1  15
TORSDOF 7
ENDMDL
MODEL 9
REMARK VINA RESULT:      -7.3      2.070      7.832
REMARK  Name = 
REMARK  8 active torsions:
REMARK  status: ('A' for Active; 'I' for Inactive)
REMARK    1  A    between atoms: C_1  and  N_2
REMARK    2  A    between atoms: N_4  and  C_5
REMARK    3  A    between atoms: N_7  and  C_8
REMARK    4  A    between atoms: C_8  and  C_9
REMARK    5  A    between atoms: C_9  and  C_10
REMARK    6  A    between atoms: C_10  and  C_11
REMARK    7  A    between atoms: C_11  and  N_12
REMARK    8  A    between atoms: C_14  and  C_15
REMARK                            x       y       z     vdW  Elec       q    Type
REMARK                         _______ _______ _______ _____ _____    ______ ____
ROOT
ATOM      1  C   UNL     1       4.110   3.427  18.513  0.00  0.00    +0.000 C 
ENDROOT
BRANCH   1   2
ATOM      2  N   UNL     1       5.259   4.094  17.911  0.00  0.00    +0.000 N 
ATOM      3  N   UNL     1       5.399   3.955  16.547  0.00  0.00    +0.000 NA
ATOM      4  C   UNL     1       6.439   4.494  15.984  0.00  0.00    +0.000 A 
ATOM      5  C   UNL     1       7.475   5.253  16.718  0.00  0.00    +0.000 A 
ATOM      6  C   UNL     1       7.280   5.433  18.026  0.00  0.00    +0.000 A 
ATOM      7  C   UNL     1       6.093   4.872  18.702  0.00  0.00    +0.000 A 
ATOM      8  O   UNL     1       5.923   5.104  19.896  0.00  0.00    +0.000 OA
BRANCH   4   9
ATOM      9  C   UNL     1       6.609   4.373  14.505  0.00  0.00    +0.000 A 
ATOM     10  C   UNL     1       7.521   5.222  13.864  0.00  0.00    +0.000 A 
ATOM     11  C   UNL     1       7.694   5.154  12.480  0.00  0.00    +0.000 A 
ATOM     12  C   UNL     1       6.955   4.242  11.729  0.00  0.00    +0.000 A 
ATOM     13  C   UNL     1       6.041   3.398  12.359  0.00  0.00    +0.000 A 
ATOM     14  C   UNL     1       5.864   3.463  13.744  0.00  0.00    +0.000 A 
ENDBRANCH   4   9
ENDBRANCH   1   2
BRANCH   1  15
ATOM     15  C   UNL     1       2.908   3.415  17.570  0.00  0.00    +0.000 C 
BRANCH  15  16
ATOM     16  C   UNL     1       1.912   4.525  17.905  0.00  0.00    +0.000 C 
BRANCH  16  17
ATOM     17  C   UNL     1       2.447   5.416  19.025  0.00  0.00    +0.000 C 
BRANCH  17  22
ATOM     18  C   UNL     1       1.281  10.203  19.207  0.00  0.00    +0.000 C 
ATOM     19  N   UNL     1       1.711   8.934  18.656  0.00  0.00    +0.000 NA
ATOM     20  C   UNL     1       1.882   7.884  19.380  0.00  0.00    +0.000 C 
ATOM     21  N   UNL     1       1.716   7.621  20.707  0.00  0.00    +0.000 N 
ATOM     22  N   UNL     1       2.302   6.802  18.657  0.00  0.00    +0.000 N 
ATOM     23  H   UNL     1       2.317   6.897  21.065  0.00  0.00    +0.000 HD
ATOM     24  H   UNL     1       2.363   7.008  17.662  0.00  0.00    +0.000 HD
BRANCH  21  25
ATOM     25  C   UNL     1       1.403   8.636  21.670  0.00  0.00    +0.000 C 
ATOM     26  N   UNL     1       1.225   9.477  22.444  0.00  0.00    +0.000 NA
ENDBRANCH  21  25
ENDBRANCH  17  22
ENDBRANCH  16  17
ENDBRANCH  15  16
ENDBRANCH   1  15
TORSDOF 7
ENDMDL
