MODEL 1
REMARK VINA RESULT:      -7.9      0.000      0.000
REMARK  Name = 
REMARK  10 active torsions:
REMARK  status: ('A' for Active; 'I' for Inactive)
REMARK    1  A    between atoms: C_1  and  O_2
REMARK    2  A    between atoms: O_2  and  C_3
REMARK    3  A    between atoms: C_3  and  C_5
REMARK    4  A    between atoms: C_6  and  C_7
REMARK    5  A    between atoms: N_8  and  C_9
REMARK    6  A    between atoms: C_9  and  C_10
REMARK    7  A    between atoms: N_17  and  C_18
REMARK    8  A    between atoms: C_18  and  C_19
REMARK    9  A    between atoms: C_19  and  C_20
REMARK   10  A    between atoms: C_30  and  C_31
REMARK                            x       y       z     vdW  Elec       q    Type
REMARK                         _______ _______ _______ _____ _____    ______ ____
ROOT
ATOM      1  C   UNL     1       2.703   4.652  18.286  0.00  0.00    +0.000 C 
ATOM      2  C   UNL     1       1.958   5.120  19.311  0.00  0.00    +0.000 C 
ATOM      3  C   UNL     1       1.103   4.254  20.209  0.00  0.00    +0.000 C 
ATOM      4  N   UNL     1       1.930   6.512  19.559  0.00  0.00    +0.000 N 
ATOM      5  C   UNL     1       2.372   7.381  18.557  0.00  0.00    +0.000 C 
ATOM      6  N   UNL     1       1.883   8.655  18.728  0.00  0.00    +0.000 N 
ATOM      7  N   UNL     1       3.127   7.043  17.566  0.00  0.00    +0.000 NA
ATOM      8  C   UNL     1       3.512   5.608  17.434  0.00  0.00    +0.000 C 
ATOM      9  H   UNL     1       1.132   8.772  19.388  0.00  0.00    +0.000 HD
ENDROOT
BRANCH   8  10
ATOM     10  C   UNL     1       5.034   5.397  17.623  0.00  0.00    +0.000 A 
ATOM     11  C   UNL     1       5.656   5.631  18.848  0.00  0.00    +0.000 A 
ATOM     12  C   UNL     1       7.019   5.358  19.021  0.00  0.00    +0.000 A 
ATOM     13  C   UNL     1       7.774   4.819  17.968  0.00  0.00    +0.000 A 
ATOM     14  C   UNL     1       7.191   4.554  16.727  0.00  0.00    +0.000 A 
ATOM     15  C   UNL     1       5.813   4.836  16.569  0.00  0.00    +0.000 A 
ENDBRANCH   8  10
BRANCH   1  16
ATOM     16  C   UNL     1       2.836   3.196  18.010  0.00  0.00    +0.000 C 
ATOM     17  O   UNL     1       2.229   2.603  17.132  0.00  0.00    +0.000 OA
BRANCH  16  19
ATOM     18  C   UNL     1       3.865   1.209  18.718  0.00  0.00    +0.000 C 
ATOM     19  O   UNL     1       3.722   2.624  18.868  0.00  0.00    +0.000 OA
ENDBRANCH  16  19
ENDBRANCH   1  16
BRANCH   4  20
ATOM     20  C   UNL     1       2.076   6.967  20.966  0.00  0.00    +0.000 C 
BRANCH  20  21
ATOM     21  C   UNL     1       1.115   8.051  21.416  0.00  0.00    +0.000 A 
ATOM     22  C   UNL     1       1.650   9.219  21.990  0.00  0.00    +0.000 A 
ATOM     23  C   UNL     1       0.833  10.311  22.297  0.00  0.00    +0.000 A 
ATOM     24  C   UNL     1      -0.530  10.255  22.034  0.00  0.00    +0.000 A 
ATOM     25  C   UNL     1      -1.081   9.091  21.507  0.00  0.00    +0.000 A 
ATOM     26  C   UNL     1      -0.268   7.997  21.201  0.00  0.00    +0.000 A 
ENDBRANCH  20  21
ENDBRANCH   4  20
BRANCH   6  27
ATOM     27  C   UNL     1       2.184   9.853  17.985  0.00  0.00    +0.000 C 
BRANCH  27  28
ATOM     28  C   UNL     1       1.587  11.136  18.533  0.00  0.00    +0.000 C 
BRANCH  28  29
ATOM     29  C   UNL     1       0.120  11.517  18.594  0.00  0.00    +0.000 A 
ATOM     30  C   UNL     1      -0.200  12.792  19.059  0.00  0.00    +0.000 A 
ATOM     31  N   UNL     1      -1.420  12.645  19.636  0.00  0.00    +0.000 N 
ATOM     32  C   UNL     1      -2.138  11.807  18.838  0.00  0.00    +0.000 A 
ATOM     33  C   UNL     1      -3.525  11.728  18.644  0.00  0.00    +0.000 A 
ATOM     34  C   UNL     1      -3.984  10.726  17.801  0.00  0.00    +0.000 A 
ATOM     35  C   UNL     1      -3.084   9.783  17.296  0.00  0.00    +0.000 A 
ATOM     36  C   UNL     1      -1.691   9.849  17.554  0.00  0.00    +0.000 A 
ATOM     37  C   UNL     1      -1.178  10.951  18.267  0.00  0.00    +0.000 A 
ATOM     38  H   UNL     1      -1.734  13.066  20.501  0.00  0.00    +0.000 HD
ENDBRANCH  28  29
ENDBRANCH  27  28
ENDBRANCH   6  27
TORSDOF 8
ENDMDL
MODEL 2
REMARK VINA RESULT:      -7.8      0.345      1.189
REMARK  Name = 
REMARK  10 active torsions:
REMARK  status: ('A' for Active; 'I' for Inactive)
REMARK    1  A    between atoms: C_1  and  O_2
REMARK    2  A    between atoms: O_2  and  C_3
REMARK    3  A    between atoms: C_3  and  C_5
REMARK    4  A    between atoms: C_6  and  C_7
REMARK    5  A    between atoms: N_8  and  C_9
REMARK    6  A    between atoms: C_9  and  C_10
REMARK    7  A    between atoms: N_17  and  C_18
REMARK    8  A    between atoms: C_18  and  C_19
REMARK    9  A    between atoms: C_19  and  C_20
REMARK   10  A    between atoms: C_30  and  C_31
REMARK                            x       y       z     vdW  Elec       q    Type
REMARK                         _______ _______ _______ _____ _____    ______ ____
ROOT
ATOM      1  C   UNL     1       2.728   4.456  18.380  0.00  0.00    +0.000 C 
ATOM      2  C   UNL     1       1.959   4.954  19.373  0.00  0.00    +0.000 C 
ATOM      3  C   UNL     1       1.081   4.115  20.274  0.00  0.00    +0.000 C 
ATOM      4  N   UNL     1       1.928   6.353  19.581  0.00  0.00    +0.000 N 
ATOM      5  C   UNL     1       2.397   7.192  18.566  0.00  0.00    +0.000 C 
ATOM      6  N   UNL     1       1.907   8.472  18.689  0.00  0.00    +0.000 N 
ATOM      7  N   UNL     1       3.175   6.826  17.604  0.00  0.00    +0.000 NA
ATOM      8  C   UNL     1       3.560   5.386  17.521  0.00  0.00    +0.000 C 
ATOM      9  H   UNL     1       1.140   8.608  19.327  0.00  0.00    +0.000 HD
ENDROOT
BRANCH   8  10
ATOM     10  C   UNL     1       5.076   5.179  17.752  0.00  0.00    +0.000 A 
ATOM     11  C   UNL     1       5.916   4.744  16.729  0.00  0.00    +0.000 A 
ATOM     12  C   UNL     1       7.299   4.638  16.937  0.00  0.00    +0.000 A 
ATOM     13  C   UNL     1       7.860   4.996  18.173  0.00  0.00    +0.000 A 
ATOM     14  C   UNL     1       7.058   5.450  19.222  0.00  0.00    +0.000 A 
ATOM     15  C   UNL     1       5.665   5.550  18.996  0.00  0.00    +0.000 A 
ENDBRANCH   8  10
BRANCH   1  16
ATOM     16  C   UNL     1       2.865   2.993  18.148  0.00  0.00    +0.000 C 
ATOM     17  O   UNL     1       2.009   2.295  17.627  0.00  0.00    +0.000 OA
BRANCH  16  19
ATOM     18  C   UNL     1       4.071   2.125  19.964  0.00  0.00    +0.000 C 
ATOM     19  O   UNL     1       4.067   2.546  18.597  0.00  0.00    +0.000 OA
ENDBRANCH  16  19
ENDBRANCH   1  16
BRANCH   4  20
ATOM     20  C   UNL     1       2.042   6.847  20.978  0.00  0.00    +0.000 C 
BRANCH  20  21
ATOM     21  C   UNL     1       1.172   8.037  21.333  0.00  0.00    +0.000 A 
ATOM     22  C   UNL     1      -0.224   7.904  21.206  0.00  0.00    +0.000 A 
ATOM     23  C   UNL     1      -1.087   8.910  21.647  0.00  0.00    +0.000 A 
ATOM     24  C   UNL     1      -0.572  10.065  22.224  0.00  0.00    +0.000 A 
ATOM     25  C   UNL     1       0.806  10.230  22.317  0.00  0.00    +0.000 A 
ATOM     26  C   UNL     1       1.672   9.227  21.875  0.00  0.00    +0.000 A 
ENDBRANCH  20  21
ENDBRANCH   4  20
BRANCH   6  27
ATOM     27  C   UNL     1       2.228   9.648  17.920  0.00  0.00    +0.000 C 
BRANCH  27  28
ATOM     28  C   UNL     1       1.702  10.960  18.472  0.00  0.00    +0.000 C 
BRANCH  28  29
ATOM     29  C   UNL     1       0.253  11.392  18.595  0.00  0.00    +0.000 A 
ATOM     30  C   UNL     1      -0.003  12.658  19.120  0.00  0.00    +0.000 A 
ATOM     31  N   UNL     1      -1.210  12.534  19.730  0.00  0.00    +0.000 N 
ATOM     32  C   UNL     1      -1.984  11.756  18.922  0.00  0.00    +0.000 A 
ATOM     33  C   UNL     1      -3.378  11.737  18.770  0.00  0.00    +0.000 A 
ATOM     34  C   UNL     1      -3.901  10.788  17.902  0.00  0.00    +0.000 A 
ATOM     35  C   UNL     1      -3.054   9.834  17.332  0.00  0.00    +0.000 A 
ATOM     36  C   UNL     1      -1.652   9.837  17.548  0.00  0.00    +0.000 A 
ATOM     37  C   UNL     1      -1.075  10.889  18.287  0.00  0.00    +0.000 A 
ATOM     38  H   UNL     1      -1.482  12.930  20.620  0.00  0.00    +0.000 HD
ENDBRANCH  28  29
ENDBRANCH  27  28
ENDBRANCH   6  27
TORSDOF 8
ENDMDL
MODEL 3
REMARK VINA RESULT:      -7.8      7.622     11.006
REMARK  Name = 
REMARK  10 active torsions:
REMARK  status: ('A' for Active; 'I' for Inactive)
REMARK    1  A    between atoms: C_1  and  O_2
REMARK    2  A    between atoms: O_2  and  C_3
REMARK    3  A    between atoms: C_3  and  C_5
REMARK    4  A    between atoms: C_6  and  C_7
REMARK    5  A    between atoms: N_8  and  C_9
REMARK    6  A    between atoms: C_9  and  C_10
REMARK    7  A    between atoms: N_17  and  C_18
REMARK    8  A    between atoms: C_18  and  C_19
REMARK    9  A    between atoms: C_19  and  C_20
REMARK   10  A    between atoms: C_30  and  C_31
REMARK                            x       y       z     vdW  Elec       q    Type
REMARK                         _______ _______ _______ _____ _____    ______ ____
ROOT
ATOM      1  C   UNL     1      10.042  14.506  17.992  0.00  0.00    +0.000 C 
ATOM      2  C   UNL     1      10.925  13.742  18.672  0.00  0.00    +0.000 C 
ATOM      3  C   UNL     1      12.333  14.170  19.021  0.00  0.00    +0.000 C 
ATOM      4  N   UNL     1      10.544  12.438  19.063  0.00  0.00    +0.000 N 
ATOM      5  C   UNL     1       9.431  11.852  18.451  0.00  0.00    +0.000 C 
ATOM      6  N   UNL     1       9.441  10.482  18.568  0.00  0.00    +0.000 N 
ATOM      7  N   UNL     1       8.508  12.499  17.823  0.00  0.00    +0.000 NA
ATOM      8  C   UNL     1       8.659  13.976  17.677  0.00  0.00    +0.000 C 
ATOM      9  H   UNL     1      10.301  10.055  18.871  0.00  0.00    +0.000 HD
ENDROOT
BRANCH   8  10
ATOM     10  C   UNL     1       7.560  14.749  18.445  0.00  0.00    +0.000 A 
ATOM     11  C   UNL     1       6.772  15.712  17.817  0.00  0.00    +0.000 A 
ATOM     12  C   UNL     1       5.730  16.344  18.508  0.00  0.00    +0.000 A 
ATOM     13  C   UNL     1       5.447  15.995  19.838  0.00  0.00    +0.000 A 
ATOM     14  C   UNL     1       6.200  15.026  20.504  0.00  0.00    +0.000 A 
ATOM     15  C   UNL     1       7.249  14.398  19.791  0.00  0.00    +0.000 A 
ENDBRANCH   8  10
BRANCH   1  16
ATOM     16  C   UNL     1      10.349  15.912  17.611  0.00  0.00    +0.000 C 
ATOM     17  O   UNL     1      10.701  16.262  16.495  0.00  0.00    +0.000 OA
BRANCH  16  19
ATOM     18  C   UNL     1      11.150  17.792  18.762  0.00  0.00    +0.000 C 
ATOM     19  O   UNL     1      10.182  16.744  18.672  0.00  0.00    +0.000 OA
ENDBRANCH  16  19
ENDBRANCH   1  16
BRANCH   4  20
ATOM     20  C   UNL     1      10.857  12.012  20.451  0.00  0.00    +0.000 C 
BRANCH  20  21
ATOM     21  C   UNL     1       9.871  12.447  21.517  0.00  0.00    +0.000 A 
ATOM     22  C   UNL     1       9.941  13.771  21.990  0.00  0.00    +0.000 A 
ATOM     23  C   UNL     1       8.977  14.276  22.867  0.00  0.00    +0.000 A 
ATOM     24  C   UNL     1       7.925  13.469  23.284  0.00  0.00    +0.000 A 
ATOM     25  C   UNL     1       7.866  12.146  22.860  0.00  0.00    +0.000 A 
ATOM     26  C   UNL     1       8.829  11.636  21.986  0.00  0.00    +0.000 A 
ENDBRANCH  20  21
ENDBRANCH   4  20
BRANCH   6  27
ATOM     27  C   UNL     1       8.435   9.527  18.174  0.00  0.00    +0.000 C 
BRANCH  27  28
ATOM     28  C   UNL     1       8.665   8.099  18.636  0.00  0.00    +0.000 C 
BRANCH  28  29
ATOM     29  C   UNL     1       7.803   6.887  18.341  0.00  0.00    +0.000 A 
ATOM     30  C   UNL     1       7.802   5.850  19.274  0.00  0.00    +0.000 A 
ATOM     31  N   UNL     1       7.573   4.732  18.537  0.00  0.00    +0.000 N 
ATOM     32  C   UNL     1       6.639   5.059  17.601  0.00  0.00    +0.000 A 
ATOM     33  C   UNL     1       5.687   4.246  16.968  0.00  0.00    +0.000 A 
ATOM     34  C   UNL     1       4.892   4.847  16.003  0.00  0.00    +0.000 A 
ATOM     35  C   UNL     1       5.150   6.166  15.620  0.00  0.00    +0.000 A 
ATOM     36  C   UNL     1       6.159   6.951  16.234  0.00  0.00    +0.000 A 
ATOM     37  C   UNL     1       6.867   6.421  17.331  0.00  0.00    +0.000 A 
ATOM     38  H   UNL     1       8.019   3.832  18.651  0.00  0.00    +0.000 HD
ENDBRANCH  28  29
ENDBRANCH  27  28
ENDBRANCH   6  27
TORSDOF 8
ENDMDL
MODEL 4
REMARK VINA RESULT:      -7.6      1.056      2.184
REMARK  Name = 
REMARK  10 active torsions:
REMARK  status: ('A' for Active; 'I' for Inactive)
REMARK    1  A    between atoms: C_1  and  O_2
REMARK    2  A    between atoms: O_2  and  C_3
REMARK    3  A    between atoms: C_3  and  C_5
REMARK    4  A    between atoms: C_6  and  C_7
REMARK    5  A    between atoms: N_8  and  C_9
REMARK    6  A    between atoms: C_9  and  C_10
REMARK    7  A    between atoms: N_17  and  C_18
REMARK    8  A    between atoms: C_18  and  C_19
REMARK    9  A    between atoms: C_19  and  C_20
REMARK   10  A    between atoms: C_30  and  C_31
REMARK                            x       y       z     vdW  Elec       q    Type
REMARK                         _______ _______ _______ _____ _____    ______ ____
ROOT
ATOM      1  C   UNL     1       2.574   4.482  18.421  0.00  0.00    +0.000 C 
ATOM      2  C   UNL     1       1.944   5.053  19.470  0.00  0.00    +0.000 C 
ATOM      3  C   UNL     1       1.131   4.294  20.494  0.00  0.00    +0.000 C 
ATOM      4  N   UNL     1       2.004   6.458  19.623  0.00  0.00    +0.000 N 
ATOM      5  C   UNL     1       2.398   7.236  18.530  0.00  0.00    +0.000 C 
ATOM      6  N   UNL     1       1.986   8.543  18.654  0.00  0.00    +0.000 N 
ATOM      7  N   UNL     1       3.046   6.796  17.505  0.00  0.00    +0.000 NA
ATOM      8  C   UNL     1       3.350   5.336  17.440  0.00  0.00    +0.000 C 
ATOM      9  H   UNL     1       1.302   8.742  19.365  0.00  0.00    +0.000 HD
ENDROOT
BRANCH   8  10
ATOM     10  C   UNL     1       4.870   5.058  17.514  0.00  0.00    +0.000 A 
ATOM     11  C   UNL     1       5.578   4.579  16.413  0.00  0.00    +0.000 A 
ATOM     12  C   UNL     1       6.968   4.409  16.475  0.00  0.00    +0.000 A 
ATOM     13  C   UNL     1       7.671   4.744  17.643  0.00  0.00    +0.000 A 
ATOM     14  C   UNL     1       7.006   5.240  18.767  0.00  0.00    +0.000 A 
ATOM     15  C   UNL     1       5.603   5.406  18.686  0.00  0.00    +0.000 A 
ENDBRANCH   8  10
BRANCH   1  16
ATOM     16  C   UNL     1       2.613   3.006  18.235  0.00  0.00    +0.000 C 
ATOM     17  O   UNL     1       1.929   2.394  17.430  0.00  0.00    +0.000 OA
BRANCH  16  19
ATOM     18  C   UNL     1       3.961   1.140  18.690  0.00  0.00    +0.000 C 
ATOM     19  O   UNL     1       3.512   2.440  19.083  0.00  0.00    +0.000 OA
ENDBRANCH  16  19
ENDBRANCH   1  16
BRANCH   4  20
ATOM     20  C   UNL     1       2.294   6.995  20.978  0.00  0.00    +0.000 C 
BRANCH  20  21
ATOM     21  C   UNL     1       1.298   8.000  21.521  0.00  0.00    +0.000 A 
ATOM     22  C   UNL     1      -0.060   7.839  21.189  0.00  0.00    +0.000 A 
ATOM     23  C   UNL     1      -1.045   8.645  21.766  0.00  0.00    +0.000 A 
ATOM     24  C   UNL     1      -0.690   9.624  22.687  0.00  0.00    +0.000 A 
ATOM     25  C   UNL     1       0.651   9.825  22.993  0.00  0.00    +0.000 A 
ATOM     26  C   UNL     1       1.639   9.022  22.416  0.00  0.00    +0.000 A 
ENDBRANCH  20  21
ENDBRANCH   4  20
BRANCH   6  27
ATOM     27  C   UNL     1       2.277   9.673  17.808  0.00  0.00    +0.000 C 
BRANCH  27  28
ATOM     28  C   UNL     1       1.764  11.014  18.299  0.00  0.00    +0.000 C 
BRANCH  28  29
ATOM     29  C   UNL     1       0.447  11.296  18.998  0.00  0.00    +0.000 A 
ATOM     30  C   UNL     1      -0.676  10.588  18.571  0.00  0.00    +0.000 A 
ATOM     31  N   UNL     1      -1.716  11.430  18.807  0.00  0.00    +0.000 N 
ATOM     32  C   UNL     1      -1.473  12.034  20.003  0.00  0.00    +0.000 A 
ATOM     33  C   UNL     1      -2.377  12.545  20.946  0.00  0.00    +0.000 A 
ATOM     34  C   UNL     1      -1.835  13.163  22.064  0.00  0.00    +0.000 A 
ATOM     35  C   UNL     1      -0.454  13.360  22.142  0.00  0.00    +0.000 A 
ATOM     36  C   UNL     1       0.438  12.886  21.146  0.00  0.00    +0.000 A 
ATOM     37  C   UNL     1      -0.070  12.108  20.086  0.00  0.00    +0.000 A 
ATOM     38  H   UNL     1      -2.513  11.590  18.205  0.00  0.00    +0.000 HD
ENDBRANCH  28  29
ENDBRANCH  27  28
ENDBRANCH   6  27
TORSDOF 8
ENDMDL
MODEL 5
REMARK VINA RESULT:      -7.5      4.009      9.319
REMARK  Name = 
REMARK  10 active torsions:
REMARK  status: ('A' for Active; 'I' for Inactive)
REMARK    1  A    between atoms: C_1  and  O_2
REMARK    2  A    between atoms: O_2  and  C_3
REMARK    3  A    between atoms: C_3  and  C_5
REMARK    4  A    between atoms: C_6  and  C_7
REMARK    5  A    between atoms: N_8  and  C_9
REMARK    6  A    between atoms: C_9  and  C_10
REMARK    7  A    between atoms: N_17  and  C_18
REMARK    8  A    between atoms: C_18  and  C_19
REMARK    9  A    between atoms: C_19  and  C_20
REMARK   10  A    between atoms: C_30  and  C_31
REMARK                            x       y       z     vdW  Elec       q    Type
REMARK                         _______ _______ _______ _____ _____    ______ ____
ROOT
ATOM      1  C   UNL     1      -2.652  12.218  21.031  0.00  0.00    +0.000 C 
ATOM      2  C   UNL     1      -2.326  11.796  19.789  0.00  0.00    +0.000 C 
ATOM      3  C   UNL     1      -3.211  11.961  18.573  0.00  0.00    +0.000 C 
ATOM      4  N   UNL     1      -1.098  11.122  19.594  0.00  0.00    +0.000 N 
ATOM      5  C   UNL     1      -0.432  10.606  20.710  0.00  0.00    +0.000 C 
ATOM      6  N   UNL     1       0.462   9.619  20.364  0.00  0.00    +0.000 N 
ATOM      7  N   UNL     1      -0.634  10.978  21.928  0.00  0.00    +0.000 NA
ATOM      8  C   UNL     1      -1.701  11.988  22.187  0.00  0.00    +0.000 C 
ATOM      9  H   UNL     1       0.390   9.243  19.433  0.00  0.00    +0.000 HD
ENDROOT
BRANCH   8  10
ATOM     10  C   UNL     1      -1.121  13.318  22.725  0.00  0.00    +0.000 A 
ATOM     11  C   UNL     1      -0.114  14.002  22.046  0.00  0.00    +0.000 A 
ATOM     12  C   UNL     1       0.342  15.244  22.507  0.00  0.00    +0.000 A 
ATOM     13  C   UNL     1      -0.229  15.831  23.647  0.00  0.00    +0.000 A 
ATOM     14  C   UNL     1      -1.249  15.190  24.352  0.00  0.00    +0.000 A 
ATOM     15  C   UNL     1      -1.698  13.936  23.873  0.00  0.00    +0.000 A 
ENDBRANCH   8  10
BRANCH   1  16
ATOM     16  C   UNL     1      -3.893  12.995  21.298  0.00  0.00    +0.000 C 
ATOM     17  O   UNL     1      -4.118  14.108  20.851  0.00  0.00    +0.000 OA
BRANCH  16  19
ATOM     18  C   UNL     1      -5.344  13.070  23.139  0.00  0.00    +0.000 C 
ATOM     19  O   UNL     1      -4.732  12.295  22.105  0.00  0.00    +0.000 OA
ENDBRANCH  16  19
ENDBRANCH   1  16
BRANCH   4  20
ATOM     20  C   UNL     1      -0.266  11.524  18.431  0.00  0.00    +0.000 C 
BRANCH  20  21
ATOM     21  C   UNL     1       0.582  12.767  18.620  0.00  0.00    +0.000 A 
ATOM     22  C   UNL     1       1.980  12.618  18.687  0.00  0.00    +0.000 A 
ATOM     23  C   UNL     1       2.823  13.731  18.720  0.00  0.00    +0.000 A 
ATOM     24  C   UNL     1       2.286  15.012  18.685  0.00  0.00    +0.000 A 
ATOM     25  C   UNL     1       0.905  15.177  18.663  0.00  0.00    +0.000 A 
ATOM     26  C   UNL     1       0.058  14.066  18.632  0.00  0.00    +0.000 A 
ENDBRANCH  20  21
ENDBRANCH   4  20
BRANCH   6  27
ATOM     27  C   UNL     1       1.411   8.919  21.193  0.00  0.00    +0.000 C 
BRANCH  27  28
ATOM     28  C   UNL     1       1.237   7.413  21.265  0.00  0.00    +0.000 C 
BRANCH  28  29
ATOM     29  C   UNL     1       1.765   6.378  20.289  0.00  0.00    +0.000 A 
ATOM     30  C   UNL     1       2.671   6.805  19.319  0.00  0.00    +0.000 A 
ATOM     31  N   UNL     1       2.453   5.978  18.264  0.00  0.00    +0.000 N 
ATOM     32  C   UNL     1       2.251   4.731  18.775  0.00  0.00    +0.000 A 
ATOM     33  C   UNL     1       2.501   3.478  18.196  0.00  0.00    +0.000 A 
ATOM     34  C   UNL     1       2.141   2.361  18.937  0.00  0.00    +0.000 A 
ATOM     35  C   UNL     1       1.446   2.526  20.139  0.00  0.00    +0.000 A 
ATOM     36  C   UNL     1       1.151   3.806  20.676  0.00  0.00    +0.000 A 
ATOM     37  C   UNL     1       1.653   4.953  20.029  0.00  0.00    +0.000 A 
ATOM     38  H   UNL     1       2.430   6.237  17.287  0.00  0.00    +0.000 HD
ENDBRANCH  28  29
ENDBRANCH  27  28
ENDBRANCH   6  27
TORSDOF 8
ENDMDL
MODEL 6
REMARK VINA RESULT:      -7.4      7.364     10.705
REMARK  Name = 
REMARK  10 active torsions:
REMARK  status: ('A' for Active; 'I' for Inactive)
REMARK    1  A    between atoms: C_1  and  O_2
REMARK    2  A    between atoms: O_2  and  C_3
REMARK    3  A    between atoms: C_3  and  C_5
REMARK    4  A    between atoms: C_6  and  C_7
REMARK    5  A    between atoms: N_8  and  C_9
REMARK    6  A    between atoms: C_9  and  C_10
REMARK    7  A    between atoms: N_17  and  C_18
REMARK    8  A    between atoms: C_18  and  C_19
REMARK    9  A    between atoms: C_19  and  C_20
REMARK   10  A    between atoms: C_30  and  C_31
REMARK                            x       y       z     vdW  Elec       q    Type
REMARK                         _______ _______ _______ _____ _____    ______ ____
ROOT
ATOM      1  C   UNL     1       9.573  14.575  18.552  0.00  0.00    +0.000 C 
ATOM      2  C   UNL     1      10.404  13.757  19.234  0.00  0.00    +0.000 C 
ATOM      3  C   UNL     1      11.752  14.171  19.780  0.00  0.00    +0.000 C 
ATOM      4  N   UNL     1      10.026  12.408  19.433  0.00  0.00    +0.000 N 
ATOM      5  C   UNL     1       9.004  11.874  18.642  0.00  0.00    +0.000 C 
ATOM      6  N   UNL     1       9.047  10.499  18.606  0.00  0.00    +0.000 N 
ATOM      7  N   UNL     1       8.132  12.568  17.993  0.00  0.00    +0.000 NA
ATOM      8  C   UNL     1       8.249  14.056  18.031  0.00  0.00    +0.000 C 
ATOM      9  H   UNL     1       9.884  10.059  18.951  0.00  0.00    +0.000 HD
ENDROOT
BRANCH   8  10
ATOM     10  C   UNL     1       7.050  14.712  18.756  0.00  0.00    +0.000 A 
ATOM     11  C   UNL     1       5.928  15.154  18.056  0.00  0.00    +0.000 A 
ATOM     12  C   UNL     1       4.819  15.673  18.738  0.00  0.00    +0.000 A 
ATOM     13  C   UNL     1       4.813  15.730  20.141  0.00  0.00    +0.000 A 
ATOM     14  C   UNL     1       5.908  15.287  20.885  0.00  0.00    +0.000 A 
ATOM     15  C   UNL     1       7.019  14.766  20.180  0.00  0.00    +0.000 A 
ENDBRANCH   8  10
BRANCH   1  16
ATOM     16  C   UNL     1       9.871  16.021  18.366  0.00  0.00    +0.000 C 
ATOM     17  O   UNL     1       9.580  16.894  19.169  0.00  0.00    +0.000 OA
BRANCH  16  19
ATOM     18  C   UNL     1      10.938  17.579  16.973  0.00  0.00    +0.000 C 
ATOM     19  O   UNL     1      10.507  16.232  17.184  0.00  0.00    +0.000 OA
ENDBRANCH  16  19
ENDBRANCH   1  16
BRANCH   4  20
ATOM     20  C   UNL     1      10.205  11.833  20.791  0.00  0.00    +0.000 C 
BRANCH  20  21
ATOM     21  C   UNL     1       9.252  12.339  21.856  0.00  0.00    +0.000 A 
ATOM     22  C   UNL     1       9.506  13.596  22.437  0.00  0.00    +0.000 A 
ATOM     23  C   UNL     1       8.594  14.181  23.319  0.00  0.00    +0.000 A 
ATOM     24  C   UNL     1       7.413  13.522  23.636  0.00  0.00    +0.000 A 
ATOM     25  C   UNL     1       7.167  12.260  23.106  0.00  0.00    +0.000 A 
ATOM     26  C   UNL     1       8.077  11.671  22.224  0.00  0.00    +0.000 A 
ENDBRANCH  20  21
ENDBRANCH   4  20
BRANCH   6  27
ATOM     27  C   UNL     1       8.122   9.575  18.001  0.00  0.00    +0.000 C 
BRANCH  27  28
ATOM     28  C   UNL     1       8.532   8.114  18.032  0.00  0.00    +0.000 C 
BRANCH  28  29
ATOM     29  C   UNL     1       7.633   6.910  18.233  0.00  0.00    +0.000 A 
ATOM     30  C   UNL     1       8.052   5.932  19.136  0.00  0.00    +0.000 A 
ATOM     31  N   UNL     1       7.522   4.778  18.654  0.00  0.00    +0.000 N 
ATOM     32  C   UNL     1       6.267   5.072  18.213  0.00  0.00    +0.000 A 
ATOM     33  C   UNL     1       5.135   4.248  18.126  0.00  0.00    +0.000 A 
ATOM     34  C   UNL     1       3.990   4.811  17.578  0.00  0.00    +0.000 A 
ATOM     35  C   UNL     1       4.047   6.097  17.034  0.00  0.00    +0.000 A 
ATOM     36  C   UNL     1       5.221   6.890  17.081  0.00  0.00    +0.000 A 
ATOM     37  C   UNL     1       6.346   6.408  17.780  0.00  0.00    +0.000 A 
ATOM     38  H   UNL     1       7.975   3.874  18.616  0.00  0.00    +0.000 HD
ENDBRANCH  28  29
ENDBRANCH  27  28
ENDBRANCH   6  27
TORSDOF 8
ENDMDL
MODEL 7
REMARK VINA RESULT:      -7.4      7.304     10.629
REMARK  Name = 
REMARK  10 active torsions:
REMARK  status: ('A' for Active; 'I' for Inactive)
REMARK    1  A    between atoms: C_1  and  O_2
REMARK    2  A    between atoms: O_2  and  C_3
REMARK    3  A    between atoms: C_3  and  C_5
REMARK    4  A    between atoms: C_6  and  C_7
REMARK    5  A    between atoms: N_8  and  C_9
REMARK    6  A    between atoms: C_9  and  C_10
REMARK    7  A    between atoms: N_17  and  C_18
REMARK    8  A    between atoms: C_18  and  C_19
REMARK    9  A    between atoms: C_19  and  C_20
REMARK   10  A    between atoms: C_30  and  C_31
REMARK                            x       y       z     vdW  Elec       q    Type
REMARK                         _______ _______ _______ _____ _____    ______ ____
ROOT
ATOM      1  C   UNL     1       9.824  14.167  18.301  0.00  0.00    +0.000 C 
ATOM      2  C   UNL     1      10.590  13.278  18.970  0.00  0.00    +0.000 C 
ATOM      3  C   UNL     1      11.963  13.581  19.524  0.00  0.00    +0.000 C 
ATOM      4  N   UNL     1      10.112  11.958  19.145  0.00  0.00    +0.000 N 
ATOM      5  C   UNL     1       9.055  11.515  18.344  0.00  0.00    +0.000 C 
ATOM      6  N   UNL     1       8.995  10.142  18.285  0.00  0.00    +0.000 N 
ATOM      7  N   UNL     1       8.238  12.284  17.706  0.00  0.00    +0.000 NA
ATOM      8  C   UNL     1       8.466  13.757  17.769  0.00  0.00    +0.000 C 
ATOM      9  H   UNL     1       9.796   9.634  18.623  0.00  0.00    +0.000 HD
ENDROOT
BRANCH   8  10
ATOM     10  C   UNL     1       7.317  14.489  18.504  0.00  0.00    +0.000 A 
ATOM     11  C   UNL     1       7.356  14.711  19.879  0.00  0.00    +0.000 A 
ATOM     12  C   UNL     1       6.345  15.445  20.513  0.00  0.00    +0.000 A 
ATOM     13  C   UNL     1       5.290  15.992  19.765  0.00  0.00    +0.000 A 
ATOM     14  C   UNL     1       5.217  15.808  18.383  0.00  0.00    +0.000 A 
ATOM     15  C   UNL     1       6.247  15.064  17.759  0.00  0.00    +0.000 A 
ENDBRANCH   8  10
BRANCH   1  16
ATOM     16  C   UNL     1      10.229  15.590  18.139  0.00  0.00    +0.000 C 
ATOM     17  O   UNL     1      10.025  16.463  18.969  0.00  0.00    +0.000 OA
BRANCH  16  19
ATOM     18  C   UNL     1      12.061  16.542  17.024  0.00  0.00    +0.000 C 
ATOM     19  O   UNL     1      10.854  15.779  16.947  0.00  0.00    +0.000 OA
ENDBRANCH  16  19
ENDBRANCH   1  16
BRANCH   4  20
ATOM     20  C   UNL     1      10.244  11.348  20.494  0.00  0.00    +0.000 C 
BRANCH  20  21
ATOM     21  C   UNL     1       9.402  11.973  21.589  0.00  0.00    +0.000 A 
ATOM     22  C   UNL     1       9.740  13.264  22.037  0.00  0.00    +0.000 A 
ATOM     23  C   UNL     1       8.926  13.950  22.941  0.00  0.00    +0.000 A 
ATOM     24  C   UNL     1       7.759  13.361  23.412  0.00  0.00    +0.000 A 
ATOM     25  C   UNL     1       7.433  12.069  23.014  0.00  0.00    +0.000 A 
ATOM     26  C   UNL     1       8.246  11.378  22.111  0.00  0.00    +0.000 A 
ENDBRANCH  20  21
ENDBRANCH   4  20
BRANCH   6  27
ATOM     27  C   UNL     1       8.004   9.300  17.663  0.00  0.00    +0.000 C 
BRANCH  27  28
ATOM     28  C   UNL     1       7.969   7.860  18.141  0.00  0.00    +0.000 C 
BRANCH  28  29
ATOM     29  C   UNL     1       7.129   6.726  17.585  0.00  0.00    +0.000 A 
ATOM     30  C   UNL     1       7.312   6.380  16.246  0.00  0.00    +0.000 A 
ATOM     31  N   UNL     1       6.101   5.912  15.849  0.00  0.00    +0.000 N 
ATOM     32  C   UNL     1       5.608   5.168  16.878  0.00  0.00    +0.000 A 
ATOM     33  C   UNL     1       4.724   4.078  16.849  0.00  0.00    +0.000 A 
ATOM     34  C   UNL     1       4.347   3.544  18.073  0.00  0.00    +0.000 A 
ATOM     35  C   UNL     1       4.750   4.174  19.254  0.00  0.00    +0.000 A 
ATOM     36  C   UNL     1       5.597   5.311  19.257  0.00  0.00    +0.000 A 
ATOM     37  C   UNL     1       6.130   5.772  18.036  0.00  0.00    +0.000 A 
ATOM     38  H   UNL     1       5.644   6.090  14.965  0.00  0.00    +0.000 HD
ENDBRANCH  28  29
ENDBRANCH  27  28
ENDBRANCH   6  27
TORSDOF 8
ENDMDL
MODEL 8
REMARK VINA RESULT:      -7.4      3.975      9.254
REMARK  Name = 
REMARK  10 active torsions:
REMARK  status: ('A' for Active; 'I' for Inactive)
REMARK    1  A    between atoms: C_1  and  O_2
REMARK    2  A    between atoms: O_2  and  C_3
REMARK    3  A    between atoms: C_3  and  C_5
REMARK    4  A    between atoms: C_6  and  C_7
REMARK    5  A    between atoms: N_8  and  C_9
REMARK    6  A    between atoms: C_9  and  C_10
REMARK    7  A    between atoms: N_17  and  C_18
REMARK    8  A    between atoms: C_18  and  C_19
REMARK    9  A    between atoms: C_19  and  C_20
REMARK   10  A    between atoms: C_30  and  C_31
REMARK                            x       y       z     vdW  Elec       q    Type
REMARK                         _______ _______ _______ _____ _____    ______ ____
ROOT
ATOM      1  C   UNL     1      -2.788  12.262  20.962  0.00  0.00    +0.000 C 
ATOM      2  C   UNL     1      -2.437  11.807  19.740  0.00  0.00    +0.000 C 
ATOM      3  C   UNL     1      -3.301  11.926  18.504  0.00  0.00    +0.000 C 
ATOM      4  N   UNL     1      -1.199  11.140  19.587  0.00  0.00    +0.000 N 
ATOM      5  C   UNL     1      -0.547  10.665  20.729  0.00  0.00    +0.000 C 
ATOM      6  N   UNL     1       0.362   9.677  20.429  0.00  0.00    +0.000 N 
ATOM      7  N   UNL     1      -0.774  11.071  21.932  0.00  0.00    +0.000 NA
ATOM      8  C   UNL     1      -1.856  12.078  22.142  0.00  0.00    +0.000 C 
ATOM      9  H   UNL     1       0.311   9.272  19.509  0.00  0.00    +0.000 HD
ENDROOT
BRANCH   8  10
ATOM     10  C   UNL     1      -1.298  13.430  22.649  0.00  0.00    +0.000 A 
ATOM     11  C   UNL     1      -1.824  14.058  23.776  0.00  0.00    +0.000 A 
ATOM     12  C   UNL     1      -1.254  15.241  24.266  0.00  0.00    +0.000 A 
ATOM     13  C   UNL     1      -0.125  15.795  23.642  0.00  0.00    +0.000 A 
ATOM     14  C   UNL     1       0.445  15.193  22.518  0.00  0.00    +0.000 A 
ATOM     15  C   UNL     1      -0.144  14.000  22.037  0.00  0.00    +0.000 A 
ENDBRANCH   8  10
BRANCH   1  16
ATOM     16  C   UNL     1      -4.041  13.034  21.184  0.00  0.00    +0.000 C 
ATOM     17  O   UNL     1      -4.198  14.201  20.859  0.00  0.00    +0.000 OA
BRANCH  16  19
ATOM     18  C   UNL     1      -6.263  12.281  21.171  0.00  0.00    +0.000 C 
ATOM     19  O   UNL     1      -4.977  12.263  21.797  0.00  0.00    +0.000 OA
ENDBRANCH  16  19
ENDBRANCH   1  16
BRANCH   4  20
ATOM     20  C   UNL     1      -0.350  11.515  18.427  0.00  0.00    +0.000 C 
BRANCH  20  21
ATOM     21  C   UNL     1       0.473  12.779  18.588  0.00  0.00    +0.000 A 
ATOM     22  C   UNL     1      -0.177  14.020  18.448  0.00  0.00    +0.000 A 
ATOM     23  C   UNL     1       0.489  15.217  18.722  0.00  0.00    +0.000 A 
ATOM     24  C   UNL     1       1.814  15.197  19.141  0.00  0.00    +0.000 A 
ATOM     25  C   UNL     1       2.483  13.981  19.241  0.00  0.00    +0.000 A 
ATOM     26  C   UNL     1       1.821  12.782  18.967  0.00  0.00    +0.000 A 
ENDBRANCH  20  21
ENDBRANCH   4  20
BRANCH   6  27
ATOM     27  C   UNL     1       1.303   9.012  21.295  0.00  0.00    +0.000 C 
BRANCH  27  28
ATOM     28  C   UNL     1       1.212   7.497  21.328  0.00  0.00    +0.000 C 
BRANCH  28  29
ATOM     29  C   UNL     1       1.723   6.522  20.284  0.00  0.00    +0.000 A 
ATOM     30  C   UNL     1       2.647   6.996  19.352  0.00  0.00    +0.000 A 
ATOM     31  N   UNL     1       2.418   6.251  18.240  0.00  0.00    +0.000 N 
ATOM     32  C   UNL     1       2.183   4.976  18.659  0.00  0.00    +0.000 A 
ATOM     33  C   UNL     1       2.410   3.761  17.995  0.00  0.00    +0.000 A 
ATOM     34  C   UNL     1       2.018   2.604  18.653  0.00  0.00    +0.000 A 
ATOM     35  C   UNL     1       1.318   2.699  19.859  0.00  0.00    +0.000 A 
ATOM     36  C   UNL     1       1.048   3.944  20.483  0.00  0.00    +0.000 A 
ATOM     37  C   UNL     1       1.582   5.122  19.923  0.00  0.00    +0.000 A 
ATOM     38  H   UNL     1       2.409   6.579  17.284  0.00  0.00    +0.000 HD
ENDBRANCH  28  29
ENDBRANCH  27  28
ENDBRANCH   6  27
TORSDOF 8
ENDMDL
MODEL 9
REMARK VINA RESULT:      -7.4      7.372     10.440
REMARK  Name = 
REMARK  10 active torsions:
REMARK  status: ('A' for Active; 'I' for Inactive)
REMARK    1  A    between atoms: C_1  and  O_2
REMARK    2  A    between atoms: O_2  and  C_3
REMARK    3  A    between atoms: C_3  and  C_5
REMARK    4  A    between atoms: C_6  and  C_7
REMARK    5  A    between atoms: N_8  and  C_9
REMARK    6  A    between atoms: C_9  and  C_10
REMARK    7  A    between atoms: N_17  and  C_18
REMARK    8  A    between atoms: C_18  and  C_19
REMARK    9  A    between atoms: C_19  and  C_20
REMARK   10  A    between atoms: C_30  and  C_31
REMARK                            x       y       z     vdW  Elec       q    Type
REMARK                         _______ _______ _______ _____ _____    ______ ____
ROOT
ATOM      1  C   UNL     1      10.837  13.219  18.330  0.00  0.00    +0.000 C 
ATOM      2  C   UNL     1      11.089  12.287  19.276  0.00  0.00    +0.000 C 
ATOM      3  C   UNL     1      12.333  12.258  20.135  0.00  0.00    +0.000 C 
ATOM      4  N   UNL     1      10.159  11.239  19.470  0.00  0.00    +0.000 N 
ATOM      5  C   UNL     1       9.208  10.993  18.475  0.00  0.00    +0.000 C 
ATOM      6  N   UNL     1       8.691   9.721  18.561  0.00  0.00    +0.000 N 
ATOM      7  N   UNL     1       8.861  11.834  17.560  0.00  0.00    +0.000 NA
ATOM      8  C   UNL     1       9.566  13.148  17.510  0.00  0.00    +0.000 C 
ATOM      9  H   UNL     1       9.176   9.070  19.155  0.00  0.00    +0.000 HD
ENDROOT
BRANCH   8  10
ATOM     10  C   UNL     1       8.614  14.328  17.826  0.00  0.00    +0.000 A 
ATOM     11  C   UNL     1       7.239  14.140  17.957  0.00  0.00    +0.000 A 
ATOM     12  C   UNL     1       6.404  15.205  18.321  0.00  0.00    +0.000 A 
ATOM     13  C   UNL     1       6.946  16.472  18.585  0.00  0.00    +0.000 A 
ATOM     14  C   UNL     1       8.319  16.705  18.480  0.00  0.00    +0.000 A 
ATOM     15  C   UNL     1       9.148  15.618  18.111  0.00  0.00    +0.000 A 
ENDBRANCH   8  10
BRANCH   1  16
ATOM     16  C   UNL     1      11.734  14.387  18.119  0.00  0.00    +0.000 C 
ATOM     17  O   UNL     1      12.190  14.718  17.035  0.00  0.00    +0.000 OA
BRANCH  16  19
ATOM     18  C   UNL     1      12.250  16.425  19.161  0.00  0.00    +0.000 C 
ATOM     19  O   UNL     1      11.972  15.028  19.293  0.00  0.00    +0.000 OA
ENDBRANCH  16  19
ENDBRANCH   1  16
BRANCH   4  20
ATOM     20  C   UNL     1       9.784  10.897  20.867  0.00  0.00    +0.000 C 
BRANCH  20  21
ATOM     21  C   UNL     1       8.893  11.896  21.579  0.00  0.00    +0.000 A 
ATOM     22  C   UNL     1       8.161  11.457  22.698  0.00  0.00    +0.000 A 
ATOM     23  C   UNL     1       7.432  12.356  23.480  0.00  0.00    +0.000 A 
ATOM     24  C   UNL     1       7.422  13.708  23.160  0.00  0.00    +0.000 A 
ATOM     25  C   UNL     1       8.104  14.151  22.031  0.00  0.00    +0.000 A 
ATOM     26  C   UNL     1       8.832  13.255  21.245  0.00  0.00    +0.000 A 
ENDBRANCH  20  21
ENDBRANCH   4  20
BRANCH   6  27
ATOM     27  C   UNL     1       7.624   9.119  17.801  0.00  0.00    +0.000 C 
BRANCH  27  28
ATOM     28  C   UNL     1       7.818   7.658  17.438  0.00  0.00    +0.000 C 
BRANCH  28  29
ATOM     29  C   UNL     1       6.973   6.479  17.883  0.00  0.00    +0.000 A 
ATOM     30  C   UNL     1       7.603   5.467  18.606  0.00  0.00    +0.000 A 
ATOM     31  N   UNL     1       6.910   4.343  18.289  0.00  0.00    +0.000 N 
ATOM     32  C   UNL     1       5.593   4.689  18.247  0.00  0.00    +0.000 A 
ATOM     33  C   UNL     1       4.455   3.906  18.492  0.00  0.00    +0.000 A 
ATOM     34  C   UNL     1       3.222   4.519  18.319  0.00  0.00    +0.000 A 
ATOM     35  C   UNL     1       3.163   5.815  17.800  0.00  0.00    +0.000 A 
ATOM     36  C   UNL     1       4.329   6.568  17.504  0.00  0.00    +0.000 A 
ATOM     37  C   UNL     1       5.591   6.032  17.828  0.00  0.00    +0.000 A 
ATOM     38  H   UNL     1       7.295   3.426  18.106  0.00  0.00    +0.000 HD
ENDBRANCH  28  29
ENDBRANCH  27  28
ENDBRANCH   6  27
TORSDOF 8
ENDMDL
