MODEL 1
REMARK VINA RESULT:      -7.1      0.000      0.000
REMARK  Name = 
REMARK  7 active torsions:
REMARK  status: ('A' for Active; 'I' for Inactive)
REMARK    1  A    between atoms: C_1  and  O_2
REMARK    2  A    between atoms: O_2  and  C_3
REMARK    3  A    between atoms: C_6  and  C_7
REMARK    4  A    between atoms: C_9  and  C_10
REMARK    5  A    between atoms: C_10  and  N_11
REMARK    6  A    between atoms: N_11  and  C_12
REMARK    7  A    between atoms: N_11  and  C_13
REMARK                            x       y       z     vdW  Elec       q    Type
REMARK                         _______ _______ _______ _____ _____    ______ ____
ROOT
ATOM      1  C   UNL     1       1.712   8.435  19.640  0.00  0.00    +0.000 A 
ATOM      2  N   UNL     1       2.253   7.232  19.672  0.00  0.00    +0.000 NA
ATOM      3  C   UNL     1       2.751   7.044  18.395  0.00  0.00    +0.000 A 
ATOM      4  C   UNL     1       2.542   8.189  17.659  0.00  0.00    +0.000 A 
ATOM      5  O   UNL     1       1.885   9.088  18.445  0.00  0.00    +0.000 OA
ENDROOT
BRANCH   1   9
ATOM      6  C   UNL     1      -0.567  10.524  22.612  0.00  0.00    +0.000 A 
ATOM      7  C   UNL     1      -0.635  10.895  21.270  0.00  0.00    +0.000 A 
ATOM      8  C   UNL     1       0.089  10.191  20.300  0.00  0.00    +0.000 A 
ATOM      9  C   UNL     1       0.907   9.110  20.657  0.00  0.00    +0.000 A 
ATOM     10  C   UNL     1       0.974   8.751  22.013  0.00  0.00    +0.000 A 
ATOM     11  C   UNL     1       0.247   9.453  22.983  0.00  0.00    +0.000 A 
BRANCH   6  13
ATOM     12  C   UNL     1      -2.182  12.235  22.865  0.00  0.00    +0.000 C 
ATOM     13  O   UNL     1      -1.299  11.297  23.471  0.00  0.00    +0.000 OA
ENDBRANCH   6  13
ENDBRANCH   1   9
BRANCH   3  14
ATOM     14  C   UNL     1       3.246   5.701  17.965  0.00  0.00    +0.000 C 
BRANCH  14  15
ATOM     15  N   UNL     1       4.523   5.261  18.595  0.00  0.00    +0.000 NA
ATOM     16  C   UNL     1       4.264   4.040  19.378  0.00  0.00    +0.000 C 
BRANCH  15  17
ATOM     17  C   UNL     1       5.537   5.012  17.515  0.00  0.00    +0.000 C 
ATOM     18  C   UNL     1       5.684   6.217  16.549  0.00  0.00    +0.000 C 
ATOM     19  C   UNL     1       6.320   7.432  17.222  0.00  0.00    +0.000 C 
ATOM     20  C   UNL     1       7.698   7.100  17.785  0.00  0.00    +0.000 C 
ATOM     21  C   UNL     1       7.682   5.855  18.669  0.00  0.00    +0.000 C 
ATOM     22  C   UNL     1       6.972   4.678  17.997  0.00  0.00    +0.000 C 
ENDBRANCH  15  17
ENDBRANCH  14  15
ENDBRANCH   3  14
TORSDOF 5
ENDMDL
MODEL 2
REMARK VINA RESULT:      -6.9      0.234      1.050
REMARK  Name = 
REMARK  7 active torsions:
REMARK  status: ('A' for Active; 'I' for Inactive)
REMARK    1  A    between atoms: C_1  and  O_2
REMARK    2  A    between atoms: O_2  and  C_3
REMARK    3  A    between atoms: C_6  and  C_7
REMARK    4  A    between atoms: C_9  and  C_10
REMARK    5  A    between atoms: C_10  and  N_11
REMARK    6  A    between atoms: N_11  and  C_12
REMARK    7  A    between atoms: N_11  and  C_13
REMARK                            x       y       z     vdW  Elec       q    Type
REMARK                         _______ _______ _______ _____ _____    ______ ____
ROOT
ATOM      1  C   UNL     1       1.645   8.621  19.566  0.00  0.00    +0.000 A 
ATOM      2  N   UNL     1       2.177   7.416  19.646  0.00  0.00    +0.000 NA
ATOM      3  C   UNL     1       2.697   7.184  18.386  0.00  0.00    +0.000 A 
ATOM      4  C   UNL     1       2.510   8.306  17.610  0.00  0.00    +0.000 A 
ATOM      5  O   UNL     1       1.844   9.234  18.354  0.00  0.00    +0.000 OA
ENDROOT
BRANCH   1   9
ATOM      6  C   UNL     1      -0.850  10.603  22.437  0.00  0.00    +0.000 A 
ATOM      7  C   UNL     1      -0.089   9.491  22.799  0.00  0.00    +0.000 A 
ATOM      8  C   UNL     1       0.745   8.866  21.865  0.00  0.00    +0.000 A 
ATOM      9  C   UNL     1       0.824   9.333  20.545  0.00  0.00    +0.000 A 
ATOM     10  C   UNL     1       0.047  10.447  20.190  0.00  0.00    +0.000 A 
ATOM     11  C   UNL     1      -0.786  11.074  21.125  0.00  0.00    +0.000 A 
BRANCH   6  13
ATOM     12  C   UNL     1      -2.296  12.344  23.124  0.00  0.00    +0.000 C 
ATOM     13  O   UNL     1      -1.644  11.115  23.425  0.00  0.00    +0.000 OA
ENDBRANCH   6  13
ENDBRANCH   1   9
BRANCH   3  14
ATOM     14  C   UNL     1       3.191   5.824  18.009  0.00  0.00    +0.000 C 
BRANCH  14  15
ATOM     15  N   UNL     1       4.484   5.421  18.632  0.00  0.00    +0.000 NA
ATOM     16  C   UNL     1       4.252   4.224  19.460  0.00  0.00    +0.000 C 
BRANCH  15  17
ATOM     17  C   UNL     1       5.483   5.147  17.544  0.00  0.00    +0.000 C 
ATOM     18  C   UNL     1       5.717   6.379  16.631  0.00  0.00    +0.000 C 
ATOM     19  C   UNL     1       6.433   7.518  17.355  0.00  0.00    +0.000 C 
ATOM     20  C   UNL     1       7.782   7.067  17.906  0.00  0.00    +0.000 C 
ATOM     21  C   UNL     1       7.675   5.790  18.737  0.00  0.00    +0.000 C 
ATOM     22  C   UNL     1       6.889   4.694  18.014  0.00  0.00    +0.000 C 
ENDBRANCH  15  17
ENDBRANCH  14  15
ENDBRANCH   3  14
TORSDOF 5
ENDMDL
MODEL 3
REMARK VINA RESULT:      -6.8      4.790      7.674
REMARK  Name = 
REMARK  7 active torsions:
REMARK  status: ('A' for Active; 'I' for Inactive)
REMARK    1  A    between atoms: C_1  and  O_2
REMARK    2  A    between atoms: O_2  and  C_3
REMARK    3  A    between atoms: C_6  and  C_7
REMARK    4  A    between atoms: C_9  and  C_10
REMARK    5  A    between atoms: C_10  and  N_11
REMARK    6  A    between atoms: N_11  and  C_12
REMARK    7  A    between atoms: N_11  and  C_13
REMARK                            x       y       z     vdW  Elec       q    Type
REMARK                         _______ _______ _______ _____ _____    ______ ____
ROOT
ATOM      1  C   UNL     1       8.508   8.903  18.365  0.00  0.00    +0.000 A 
ATOM      2  N   UNL     1       8.531   7.682  18.864  0.00  0.00    +0.000 NA
ATOM      3  C   UNL     1       7.609   6.983  18.107  0.00  0.00    +0.000 A 
ATOM      4  C   UNL     1       7.114   7.813  17.125  0.00  0.00    +0.000 A 
ATOM      5  O   UNL     1       7.685   9.041  17.276  0.00  0.00    +0.000 OA
ENDROOT
BRANCH   1   9
ATOM      6  C   UNL     1      10.562  12.391  19.785  0.00  0.00    +0.000 A 
ATOM      7  C   UNL     1      10.506  12.101  18.422  0.00  0.00    +0.000 A 
ATOM      8  C   UNL     1       9.809  10.977  17.962  0.00  0.00    +0.000 A 
ATOM      9  C   UNL     1       9.167  10.112  18.860  0.00  0.00    +0.000 A 
ATOM     10  C   UNL     1       9.238  10.410  20.230  0.00  0.00    +0.000 A 
ATOM     11  C   UNL     1       9.932  11.536  20.690  0.00  0.00    +0.000 A 
BRANCH   6  13
ATOM     12  C   UNL     1      11.362  14.517  19.124  0.00  0.00    +0.000 C 
ATOM     13  O   UNL     1      11.288  13.501  20.118  0.00  0.00    +0.000 OA
ENDBRANCH   6  13
ENDBRANCH   1   9
BRANCH   3  14
ATOM     14  C   UNL     1       7.181   5.609  18.512  0.00  0.00    +0.000 C 
BRANCH  14  15
ATOM     15  N   UNL     1       6.013   5.059  17.765  0.00  0.00    +0.000 NA
ATOM     16  C   UNL     1       6.513   4.150  16.719  0.00  0.00    +0.000 C 
BRANCH  15  17
ATOM     17  C   UNL     1       5.114   4.340  18.729  0.00  0.00    +0.000 C 
ATOM     18  C   UNL     1       4.206   5.311  19.529  0.00  0.00    +0.000 C 
ATOM     19  C   UNL     1       3.153   5.985  18.651  0.00  0.00    +0.000 C 
ATOM     20  C   UNL     1       2.263   4.956  17.960  0.00  0.00    +0.000 C 
ATOM     21  C   UNL     1       3.069   3.886  17.228  0.00  0.00    +0.000 C 
ATOM     22  C   UNL     1       4.164   3.283  18.111  0.00  0.00    +0.000 C 
ENDBRANCH  15  17
ENDBRANCH  14  15
ENDBRANCH   3  14
TORSDOF 5
ENDMDL
MODEL 4
REMARK VINA RESULT:      -6.8      4.484      9.266
REMARK  Name = 
REMARK  7 active torsions:
REMARK  status: ('A' for Active; 'I' for Inactive)
REMARK    1  A    between atoms: C_1  and  O_2
REMARK    2  A    between atoms: O_2  and  C_3
REMARK    3  A    between atoms: C_6  and  C_7
REMARK    4  A    between atoms: C_9  and  C_10
REMARK    5  A    between atoms: C_10  and  N_11
REMARK    6  A    between atoms: N_11  and  C_12
REMARK    7  A    between atoms: N_11  and  C_13
REMARK                            x       y       z     vdW  Elec       q    Type
REMARK                         _______ _______ _______ _____ _____    ______ ____
ROOT
ATOM      1  C   UNL     1       5.936   5.450  15.929  0.00  0.00    +0.000 A 
ATOM      2  N   UNL     1       5.263   4.899  16.921  0.00  0.00    +0.000 NA
ATOM      3  C   UNL     1       5.399   5.793  17.968  0.00  0.00    +0.000 A 
ATOM      4  C   UNL     1       6.103   6.893  17.531  0.00  0.00    +0.000 A 
ATOM      5  O   UNL     1       6.446   6.689  16.228  0.00  0.00    +0.000 OA
ENDROOT
BRANCH   1   9
ATOM      6  C   UNL     1       6.940   3.696  12.147  0.00  0.00    +0.000 A 
ATOM      7  C   UNL     1       5.803   3.287  12.844  0.00  0.00    +0.000 A 
ATOM      8  C   UNL     1       5.465   3.884  14.064  0.00  0.00    +0.000 A 
ATOM      9  C   UNL     1       6.266   4.892  14.618  0.00  0.00    +0.000 A 
ATOM     10  C   UNL     1       7.413   5.288  13.911  0.00  0.00    +0.000 A 
ATOM     11  C   UNL     1       7.750   4.694  12.689  0.00  0.00    +0.000 A 
BRANCH   6  13
ATOM     12  C   UNL     1       7.048   1.610  11.034  0.00  0.00    +0.000 C 
ATOM     13  O   UNL     1       7.183   3.026  10.979  0.00  0.00    +0.000 OA
ENDBRANCH   6  13
ENDBRANCH   1   9
BRANCH   3  14
ATOM     14  C   UNL     1       4.960   5.417  19.347  0.00  0.00    +0.000 C 
BRANCH  14  15
ATOM     15  N   UNL     1       3.485   5.359  19.552  0.00  0.00    +0.000 NA
ATOM     16  C   UNL     1       2.869   6.502  18.855  0.00  0.00    +0.000 C 
BRANCH  15  17
ATOM     17  C   UNL     1       2.970   4.053  19.019  0.00  0.00    +0.000 C 
ATOM     18  C   UNL     1       3.467   2.838  19.845  0.00  0.00    +0.000 C 
ATOM     19  C   UNL     1       2.864   2.797  21.248  0.00  0.00    +0.000 C 
ATOM     20  C   UNL     1       1.340   2.750  21.198  0.00  0.00    +0.000 C 
ATOM     21  C   UNL     1       0.752   3.848  20.315  0.00  0.00    +0.000 C 
ATOM     22  C   UNL     1       1.428   3.912  18.944  0.00  0.00    +0.000 C 
ENDBRANCH  15  17
ENDBRANCH  14  15
ENDBRANCH   3  14
TORSDOF 5
ENDMDL
MODEL 5
REMARK VINA RESULT:      -6.7      4.747      7.638
REMARK  Name = 
REMARK  7 active torsions:
REMARK  status: ('A' for Active; 'I' for Inactive)
REMARK    1  A    between atoms: C_1  and  O_2
REMARK    2  A    between atoms: O_2  and  C_3
REMARK    3  A    between atoms: C_6  and  C_7
REMARK    4  A    between atoms: C_9  and  C_10
REMARK    5  A    between atoms: C_10  and  N_11
REMARK    6  A    between atoms: N_11  and  C_12
REMARK    7  A    between atoms: N_11  and  C_13
REMARK                            x       y       z     vdW  Elec       q    Type
REMARK                         _______ _______ _______ _____ _____    ______ ____
ROOT
ATOM      1  C   UNL     1       8.480   8.888  18.330  0.00  0.00    +0.000 A 
ATOM      2  N   UNL     1       8.526   7.652  18.789  0.00  0.00    +0.000 NA
ATOM      3  C   UNL     1       7.563   6.977  18.060  0.00  0.00    +0.000 A 
ATOM      4  C   UNL     1       7.019   7.837  17.132  0.00  0.00    +0.000 A 
ATOM      5  O   UNL     1       7.601   9.060  17.290  0.00  0.00    +0.000 OA
ENDROOT
BRANCH   1   9
ATOM      6  C   UNL     1      10.370  12.440  19.814  0.00  0.00    +0.000 A 
ATOM      7  C   UNL     1       9.781  11.527  20.688  0.00  0.00    +0.000 A 
ATOM      8  C   UNL     1       9.192  10.355  20.200  0.00  0.00    +0.000 A 
ATOM      9  C   UNL     1       9.167  10.081  18.825  0.00  0.00    +0.000 A 
ATOM     10  C   UNL     1       9.754  11.013  17.955  0.00  0.00    +0.000 A 
ATOM     11  C   UNL     1      10.347  12.184  18.443  0.00  0.00    +0.000 A 
BRANCH   6  13
ATOM     12  C   UNL     1      11.315  14.589  19.515  0.00  0.00    +0.000 C 
ATOM     13  O   UNL     1      10.894  13.559  20.402  0.00  0.00    +0.000 OA
ENDBRANCH   6  13
ENDBRANCH   1   9
BRANCH   3  14
ATOM     14  C   UNL     1       7.155   5.592  18.445  0.00  0.00    +0.000 C 
BRANCH  14  15
ATOM     15  N   UNL     1       5.964   5.056  17.726  0.00  0.00    +0.000 NA
ATOM     16  C   UNL     1       6.428   4.144  16.665  0.00  0.00    +0.000 C 
BRANCH  15  17
ATOM     17  C   UNL     1       5.081   4.343  18.710  0.00  0.00    +0.000 C 
ATOM     18  C   UNL     1       4.218   5.322  19.550  0.00  0.00    +0.000 C 
ATOM     19  C   UNL     1       3.152   6.027  18.714  0.00  0.00    +0.000 C 
ATOM     20  C   UNL     1       2.220   5.025  18.039  0.00  0.00    +0.000 C 
ATOM     21  C   UNL     1       2.981   3.948  17.270  0.00  0.00    +0.000 C 
ATOM     22  C   UNL     1       4.091   3.313  18.111  0.00  0.00    +0.000 C 
ENDBRANCH  15  17
ENDBRANCH  14  15
ENDBRANCH   3  14
TORSDOF 5
ENDMDL
MODEL 6
REMARK VINA RESULT:      -6.7      2.192      3.468
REMARK  Name = 
REMARK  7 active torsions:
REMARK  status: ('A' for Active; 'I' for Inactive)
REMARK    1  A    between atoms: C_1  and  O_2
REMARK    2  A    between atoms: O_2  and  C_3
REMARK    3  A    between atoms: C_6  and  C_7
REMARK    4  A    between atoms: C_9  and  C_10
REMARK    5  A    between atoms: C_10  and  N_11
REMARK    6  A    between atoms: N_11  and  C_12
REMARK    7  A    between atoms: N_11  and  C_13
REMARK                            x       y       z     vdW  Elec       q    Type
REMARK                         _______ _______ _______ _____ _____    ______ ____
ROOT
ATOM      1  C   UNL     1       1.497   8.780  19.747  0.00  0.00    +0.000 A 
ATOM      2  N   UNL     1       2.044   7.582  19.822  0.00  0.00    +0.000 NA
ATOM      3  C   UNL     1       2.521   7.340  18.547  0.00  0.00    +0.000 A 
ATOM      4  C   UNL     1       2.295   8.451  17.765  0.00  0.00    +0.000 A 
ATOM      5  O   UNL     1       1.647   9.381  18.522  0.00  0.00    +0.000 OA
ENDROOT
BRANCH   1   9
ATOM      6  C   UNL     1      -0.719  10.965  22.699  0.00  0.00    +0.000 A 
ATOM      7  C   UNL     1      -0.475  11.513  21.439  0.00  0.00    +0.000 A 
ATOM      8  C   UNL     1       0.224  10.783  20.470  0.00  0.00    +0.000 A 
ATOM      9  C   UNL     1       0.705   9.496  20.747  0.00  0.00    +0.000 A 
ATOM     10  C   UNL     1       0.461   8.959  22.021  0.00  0.00    +0.000 A 
ATOM     11  C   UNL     1      -0.240   9.688  22.990  0.00  0.00    +0.000 A 
BRANCH   6  13
ATOM     12  C   UNL     1      -2.721  12.122  23.199  0.00  0.00    +0.000 C 
ATOM     13  O   UNL     1      -1.390  11.778  23.570  0.00  0.00    +0.000 OA
ENDBRANCH   6  13
ENDBRANCH   1   9
BRANCH   3  14
ATOM     14  C   UNL     1       3.014   5.981  18.168  0.00  0.00    +0.000 C 
BRANCH  14  15
ATOM     15  N   UNL     1       2.111   4.851  18.528  0.00  0.00    +0.000 NA
ATOM     16  C   UNL     1       1.379   4.432  17.320  0.00  0.00    +0.000 C 
BRANCH  15  17
ATOM     17  C   UNL     1       2.937   3.726  19.084  0.00  0.00    +0.000 C 
ATOM     18  C   UNL     1       3.429   4.010  20.528  0.00  0.00    +0.000 C 
ATOM     19  C   UNL     1       2.289   4.017  21.545  0.00  0.00    +0.000 C 
ATOM     20  C   UNL     1       1.537   2.690  21.548  0.00  0.00    +0.000 C 
ATOM     21  C   UNL     1       1.099   2.265  20.148  0.00  0.00    +0.000 C 
ATOM     22  C   UNL     1       2.246   2.340  19.137  0.00  0.00    +0.000 C 
ENDBRANCH  15  17
ENDBRANCH  14  15
ENDBRANCH   3  14
TORSDOF 5
ENDMDL
MODEL 7
REMARK VINA RESULT:      -6.6      1.401      1.844
REMARK  Name = 
REMARK  7 active torsions:
REMARK  status: ('A' for Active; 'I' for Inactive)
REMARK    1  A    between atoms: C_1  and  O_2
REMARK    2  A    between atoms: O_2  and  C_3
REMARK    3  A    between atoms: C_6  and  C_7
REMARK    4  A    between atoms: C_9  and  C_10
REMARK    5  A    between atoms: C_10  and  N_11
REMARK    6  A    between atoms: N_11  and  C_12
REMARK    7  A    between atoms: N_11  and  C_13
REMARK                            x       y       z     vdW  Elec       q    Type
REMARK                         _______ _______ _______ _____ _____    ______ ____
ROOT
ATOM      1  C   UNL     1       1.717   7.264  20.079  0.00  0.00    +0.000 A 
ATOM      2  N   UNL     1       2.362   7.020  18.955  0.00  0.00    +0.000 NA
ATOM      3  C   UNL     1       2.697   5.680  19.032  0.00  0.00    +0.000 A 
ATOM      4  C   UNL     1       2.169   5.152  20.190  0.00  0.00    +0.000 A 
ATOM      5  O   UNL     1       1.536   6.153  20.865  0.00  0.00    +0.000 OA
ENDROOT
BRANCH   1   9
ATOM      6  C   UNL     1       0.237  10.957  21.681  0.00  0.00    +0.000 A 
ATOM      7  C   UNL     1       0.492   9.868  22.515  0.00  0.00    +0.000 A 
ATOM      8  C   UNL     1       1.003   8.675  21.990  0.00  0.00    +0.000 A 
ATOM      9  C   UNL     1       1.254   8.542  20.617  0.00  0.00    +0.000 A 
ATOM     10  C   UNL     1       0.984   9.642  19.787  0.00  0.00    +0.000 A 
ATOM     11  C   UNL     1       0.477  10.837  20.312  0.00  0.00    +0.000 A 
BRANCH   6  13
ATOM     12  C   UNL     1      -0.021  13.308  21.668  0.00  0.00    +0.000 C 
ATOM     13  O   UNL     1      -0.281  12.060  22.301  0.00  0.00    +0.000 OA
ENDBRANCH   6  13
ENDBRANCH   1   9
BRANCH   3  14
ATOM     14  C   UNL     1       3.637   5.075  18.039  0.00  0.00    +0.000 C 
BRANCH  14  15
ATOM     15  N   UNL     1       4.955   4.649  18.589  0.00  0.00    +0.000 NA
ATOM     16  C   UNL     1       4.808   3.303  19.170  0.00  0.00    +0.000 C 
BRANCH  15  17
ATOM     17  C   UNL     1       5.969   4.656  17.480  0.00  0.00    +0.000 C 
ATOM     18  C   UNL     1       5.768   5.843  16.501  0.00  0.00    +0.000 C 
ATOM     19  C   UNL     1       6.082   7.192  17.144  0.00  0.00    +0.000 C 
ATOM     20  C   UNL     1       7.515   7.240  17.668  0.00  0.00    +0.000 C 
ATOM     21  C   UNL     1       7.849   6.048  18.562  0.00  0.00    +0.000 C 
ATOM     22  C   UNL     1       7.454   4.716  17.921  0.00  0.00    +0.000 C 
ENDBRANCH  15  17
ENDBRANCH  14  15
ENDBRANCH   3  14
TORSDOF 5
ENDMDL
MODEL 8
REMARK VINA RESULT:      -6.5      2.320      3.952
REMARK  Name = 
REMARK  7 active torsions:
REMARK  status: ('A' for Active; 'I' for Inactive)
REMARK    1  A    between atoms: C_1  and  O_2
REMARK    2  A    between atoms: O_2  and  C_3
REMARK    3  A    between atoms: C_6  and  C_7
REMARK    4  A    between atoms: C_9  and  C_10
REMARK    5  A    between atoms: C_10  and  N_11
REMARK    6  A    between atoms: N_11  and  C_12
REMARK    7  A    between atoms: N_11  and  C_13
REMARK                            x       y       z     vdW  Elec       q    Type
REMARK                         _______ _______ _______ _____ _____    ______ ____
ROOT
ATOM      1  C   UNL     1       1.820   8.583  18.677  0.00  0.00    +0.000 A 
ATOM      2  N   UNL     1       2.370   7.680  19.467  0.00  0.00    +0.000 NA
ATOM      3  C   UNL     1       3.297   7.039  18.665  0.00  0.00    +0.000 A 
ATOM      4  C   UNL     1       3.311   7.640  17.426  0.00  0.00    +0.000 A 
ATOM      5  O   UNL     1       2.376   8.632  17.423  0.00  0.00    +0.000 OA
ENDROOT
BRANCH   1   9
ATOM      6  C   UNL     1      -1.478  11.240  19.349  0.00  0.00    +0.000 A 
ATOM      7  C   UNL     1      -1.287  10.640  18.104  0.00  0.00    +0.000 A 
ATOM      8  C   UNL     1      -0.226   9.751  17.899  0.00  0.00    +0.000 A 
ATOM      9  C   UNL     1       0.675   9.455  18.932  0.00  0.00    +0.000 A 
ATOM     10  C   UNL     1       0.478  10.073  20.178  0.00  0.00    +0.000 A 
ATOM     11  C   UNL     1      -0.586  10.960  20.384  0.00  0.00    +0.000 A 
BRANCH   6  13
ATOM     12  C   UNL     1      -3.674  11.767  18.644  0.00  0.00    +0.000 C 
ATOM     13  O   UNL     1      -2.534  12.107  19.425  0.00  0.00    +0.000 OA
ENDBRANCH   6  13
ENDBRANCH   1   9
BRANCH   3  14
ATOM     14  C   UNL     1       3.975   5.793  19.138  0.00  0.00    +0.000 C 
BRANCH  14  15
ATOM     15  N   UNL     1       3.528   4.534  18.477  0.00  0.00    +0.000 NA
ATOM     16  C   UNL     1       4.537   4.148  17.475  0.00  0.00    +0.000 C 
BRANCH  15  17
ATOM     17  C   UNL     1       3.361   3.469  19.522  0.00  0.00    +0.000 C 
ATOM     18  C   UNL     1       2.483   3.938  20.712  0.00  0.00    +0.000 C 
ATOM     19  C   UNL     1       1.022   4.142  20.318  0.00  0.00    +0.000 C 
ATOM     20  C   UNL     1       0.414   2.862  19.751  0.00  0.00    +0.000 C 
ATOM     21  C   UNL     1       1.266   2.256  18.637  0.00  0.00    +0.000 C 
ATOM     22  C   UNL     1       2.738   2.135  19.036  0.00  0.00    +0.000 C 
ENDBRANCH  15  17
ENDBRANCH  14  15
ENDBRANCH   3  14
TORSDOF 5
ENDMDL
MODEL 9
REMARK VINA RESULT:      -6.5      4.954      7.423
REMARK  Name = 
REMARK  7 active torsions:
REMARK  status: ('A' for Active; 'I' for Inactive)
REMARK    1  A    between atoms: C_1  and  O_2
REMARK    2  A    between atoms: O_2  and  C_3
REMARK    3  A    between atoms: C_6  and  C_7
REMARK    4  A    between atoms: C_9  and  C_10
REMARK    5  A    between atoms: C_10  and  N_11
REMARK    6  A    between atoms: N_11  and  C_12
REMARK    7  A    between atoms: N_11  and  C_13
REMARK                            x       y       z     vdW  Elec       q    Type
REMARK                         _______ _______ _______ _____ _____    ______ ____
ROOT
ATOM      1  C   UNL     1       8.142   8.414  18.150  0.00  0.00    +0.000 A 
ATOM      2  N   UNL     1       7.452   7.931  17.134  0.00  0.00    +0.000 NA
ATOM      3  C   UNL     1       7.380   6.572  17.382  0.00  0.00    +0.000 A 
ATOM      4  C   UNL     1       7.982   6.303  18.591  0.00  0.00    +0.000 A 
ATOM      5  O   UNL     1       8.467   7.473  19.095  0.00  0.00    +0.000 OA
ENDROOT
BRANCH   1   9
ATOM      6  C   UNL     1       9.575  12.394  18.855  0.00  0.00    +0.000 A 
ATOM      7  C   UNL     1       9.960  11.339  19.683  0.00  0.00    +0.000 A 
ATOM      8  C   UNL     1       9.513  10.037  19.430  0.00  0.00    +0.000 A 
ATOM      9  C   UNL     1       8.658   9.767  18.352  0.00  0.00    +0.000 A 
ATOM     10  C   UNL     1       8.270  10.838  17.532  0.00  0.00    +0.000 A 
ATOM     11  C   UNL     1       8.720  12.141  17.782  0.00  0.00    +0.000 A 
BRANCH   6  13
ATOM     12  C   UNL     1      10.355  13.797  20.593  0.00  0.00    +0.000 C 
ATOM     13  O   UNL     1      10.056  13.624  19.212  0.00  0.00    +0.000 OA
ENDBRANCH   6  13
ENDBRANCH   1   9
BRANCH   3  14
ATOM     14  C   UNL     1       6.864   5.637  16.335  0.00  0.00    +0.000 C 
BRANCH  14  15
ATOM     15  N   UNL     1       5.396   5.380  16.378  0.00  0.00    +0.000 NA
ATOM     16  C   UNL     1       5.040   4.511  15.242  0.00  0.00    +0.000 C 
BRANCH  15  17
ATOM     17  C   UNL     1       5.054   4.733  17.689  0.00  0.00    +0.000 C 
ATOM     18  C   UNL     1       4.255   5.677  18.625  0.00  0.00    +0.000 C 
ATOM     19  C   UNL     1       2.847   5.963  18.106  0.00  0.00    +0.000 C 
ATOM     20  C   UNL     1       2.047   4.676  17.928  0.00  0.00    +0.000 C 
ATOM     21  C   UNL     1       2.798   3.632  17.104  0.00  0.00    +0.000 C 
ATOM     22  C   UNL     1       4.229   3.423  17.604  0.00  0.00    +0.000 C 
ENDBRANCH  15  17
ENDBRANCH  14  15
ENDBRANCH   3  14
TORSDOF 5
ENDMDL
